MODEL 1
REMARK VINA RESULT:      -8.1      0.000      0.000
REMARK  4 active torsions:
REMARK  status: ('A' for Active; 'I' for Inactive)
REMARK    1  A    between atoms: C5_5  and  N1_6 
REMARK    2  A    between atoms: C14_17  and  C15_18 
REMARK    3  A    between atoms: C16_19  and  N3_20 
REMARK    4  A    between atoms: N3_20  and  C17_21 
ROOT
HETATM    1  C1  UNL     1      22.497   5.431  52.268  1.00  0.00     0.042 C 
HETATM    2  C2  UNL     1      23.377   6.089  51.550  1.00  0.00     0.020 C 
HETATM    3  C3  UNL     1      24.527   6.489  50.690  1.00  0.00     0.030 C 
HETATM    4  C4  UNL     1      25.310   7.304  50.051  1.00  0.00     0.031 C 
HETATM    5  C5  UNL     1      26.360   6.637  49.339  1.00  0.00     0.033 C 
HETATM    6  C12 UNL     1      26.843   5.470  49.012  1.00  0.00     0.081 C 
HETATM    7  C13 UNL     1      26.212   4.235  49.400  1.00  0.00     0.177 C 
HETATM    8  O1  UNL     1      27.230   3.657  48.861  1.00  0.00    -0.291 OA
HETATM    9  C14 UNL     1      25.680   2.941  49.737  1.00  0.00     0.180 C 
HETATM   10  N4  UNL     1      24.224   3.023  50.079  1.00  0.00    -0.373 N 
HETATM   11  C18 UNL     1      23.320   3.558  49.066  1.00  0.00     0.062 A 
HETATM   12  C19 UNL     1      23.180   2.541  48.113  1.00  0.00     0.032 A 
HETATM   13  C20 UNL     1      22.417   2.594  46.936  1.00  0.00     0.002 A 
HETATM   14  C21 UNL     1      21.737   3.771  46.704  1.00  0.00     0.003 A 
HETATM   15  C22 UNL     1      21.869   4.773  47.637  1.00  0.00     0.039 A 
HETATM   16  C23 UNL     1      22.607   4.741  48.789  1.00  0.00     0.097 A 
HETATM   17  O3  UNL     1      22.736   5.704  49.698  1.00  0.00    -0.330 OA
HETATM   18  C24 UNL     1      21.963   6.743  50.176  1.00  0.00     0.298 C 
HETATM   19  N5  UNL     1      22.766   7.402  51.290  1.00  0.00    -0.369 N 
HETATM   20  H24 UNL     1      23.372   2.912  50.648  1.00  0.00     0.161 HD
HETATM   21  H31 UNL     1      23.112   8.143  51.934  1.00  0.00     0.161 HD
ENDROOT
BRANCH   5  22
HETATM   22  N1  UNL     1      26.805   7.945  49.045  1.00  0.00    -0.379 N 
HETATM   23  C6  UNL     1      27.147   9.014  49.998  1.00  0.00     0.125 C 
HETATM   24  C7  UNL     1      28.432   9.636  49.507  1.00  0.00     0.050 C 
HETATM   25  C8  UNL     1      28.126  10.815  48.606  1.00  0.00     0.273 C 
HETATM   26  N2  UNL     1      27.874  10.359  47.243  1.00  0.00     0.085 N 
HETATM   27  C9  UNL     1      27.671  11.534  46.421  1.00  0.00     0.309 C 
HETATM   28  C10 UNL     1      26.656   9.563  47.186  1.00  0.00     0.291 C 
HETATM   29  C11 UNL     1      26.895   8.138  47.588  1.00  0.00     0.153 C 
ENDBRANCH   5  22
BRANCH   9  30
HETATM   30  C15 UNL     1      26.352   2.447  50.985  1.00  0.00     0.023 C 
HETATM   31  C16 UNL     1      25.859   2.716  52.180  1.00  0.00     0.089 C 
BRANCH  31  32
HETATM   32  N3  UNL     1      26.374   2.324  53.435  1.00  0.00    -0.344 N 
HETATM   33  H22 UNL     1      25.803   2.317  54.303  1.00  0.00     0.167 HD
BRANCH  32  34
HETATM   34  C17 UNL     1      27.698   1.897  53.695  1.00  0.00     0.352 C 
HETATM   35  O2  UNL     1      28.537   2.660  54.211  1.00  0.00    -0.283 OA
ENDBRANCH  32  34
ENDBRANCH  31  32
ENDBRANCH   9  30
TORSDOF 4
ENDMDL
MODEL 2
REMARK VINA RESULT:      -7.7      3.867      6.428
REMARK  4 active torsions:
REMARK  status: ('A' for Active; 'I' for Inactive)
REMARK    1  A    between atoms: C5_5  and  N1_6 
REMARK    2  A    between atoms: C14_17  and  C15_18 
REMARK    3  A    between atoms: C16_19  and  N3_20 
REMARK    4  A    between atoms: N3_20  and  C17_21 
ROOT
HETATM    1  C1  UNL     1      28.179  11.054  48.942  1.00  0.00     0.042 C 
HETATM    2  C2  UNL     1      28.933  10.013  48.677  1.00  0.00     0.020 C 
HETATM    3  C3  UNL     1      29.470   8.641  48.451  1.00  0.00     0.030 C 
HETATM    4  C4  UNL     1      30.368   7.741  48.189  1.00  0.00     0.031 C 
HETATM    5  C5  UNL     1      29.840   6.407  48.165  1.00  0.00     0.033 C 
HETATM    6  C12 UNL     1      28.749   5.698  48.254  1.00  0.00     0.081 C 
HETATM    7  C13 UNL     1      27.450   6.294  48.422  1.00  0.00     0.177 C 
HETATM    8  O1  UNL     1      27.014   5.086  48.522  1.00  0.00    -0.291 OA
HETATM    9  C14 UNL     1      26.105   6.774  48.603  1.00  0.00     0.180 C 
HETATM   10  N4  UNL     1      25.975   8.203  48.174  1.00  0.00    -0.373 N 
HETATM   11  C18 UNL     1      26.318   8.531  46.795  1.00  0.00     0.062 A 
HETATM   12  C19 UNL     1      25.252   8.059  46.020  1.00  0.00     0.032 A 
HETATM   13  C20 UNL     1      25.134   8.129  44.623  1.00  0.00     0.002 A 
HETATM   14  C21 UNL     1      26.180   8.728  43.953  1.00  0.00     0.003 A 
HETATM   15  C22 UNL     1      27.230   9.196  44.708  1.00  0.00     0.039 A 
HETATM   16  C23 UNL     1      27.363   9.137  46.069  1.00  0.00     0.097 A 
HETATM   17  O3  UNL     1      28.373   9.591  46.807  1.00  0.00    -0.330 OA
HETATM   18  C24 UNL     1      29.299  10.611  46.722  1.00  0.00     0.298 C 
HETATM   19  N5  UNL     1      30.124  10.555  48.002  1.00  0.00    -0.369 N 
HETATM   20  H24 UNL     1      25.758   9.208  48.261  1.00  0.00     0.161 HD
HETATM   21  H31 UNL     1      30.936  10.665  48.642  1.00  0.00     0.161 HD
ENDROOT
BRANCH   5  22
HETATM   22  N1  UNL     1      31.188   6.026  47.979  1.00  0.00    -0.379 N 
HETATM   23  C6  UNL     1      32.394   6.829  48.235  1.00  0.00     0.125 C 
HETATM   24  C7  UNL     1      33.372   5.925  48.947  1.00  0.00     0.050 C 
HETATM   25  C8  UNL     1      34.282   5.251  47.941  1.00  0.00     0.273 C 
HETATM   26  N2  UNL     1      33.640   4.059  47.396  1.00  0.00     0.085 N 
HETATM   27  C9  UNL     1      34.590   3.420  46.509  1.00  0.00     0.309 C 
HETATM   28  C10 UNL     1      32.470   4.422  46.607  1.00  0.00     0.291 C 
HETATM   29  C11 UNL     1      31.261   4.647  47.465  1.00  0.00     0.153 C 
ENDBRANCH   5  22
BRANCH   9  30
HETATM   30  C15 UNL     1      25.776   6.768  50.067  1.00  0.00     0.023 C 
HETATM   31  C16 UNL     1      24.623   6.298  50.507  1.00  0.00     0.089 C 
BRANCH  31  32
HETATM   32  N3  UNL     1      24.175   6.225  51.844  1.00  0.00    -0.344 N 
HETATM   33  H22 UNL     1      24.382   6.957  52.550  1.00  0.00     0.167 HD
BRANCH  32  34
HETATM   34  C17 UNL     1      23.403   5.180  52.408  1.00  0.00     0.352 C 
HETATM   35  O2  UNL     1      23.874   4.038  52.569  1.00  0.00    -0.283 OA
ENDBRANCH  32  34
ENDBRANCH  31  32
ENDBRANCH   9  30
TORSDOF 4
ENDMDL
MODEL 3
REMARK VINA RESULT:      -7.7      2.025      2.332
REMARK  4 active torsions:
REMARK  status: ('A' for Active; 'I' for Inactive)
REMARK    1  A    between atoms: C5_5  and  N1_6 
REMARK    2  A    between atoms: C14_17  and  C15_18 
REMARK    3  A    between atoms: C16_19  and  N3_20 
REMARK    4  A    between atoms: N3_20  and  C17_21 
ROOT
HETATM    1  C1  UNL     1      23.203   7.289  51.138  1.00  0.00     0.042 C 
HETATM    2  C2  UNL     1      24.286   7.248  50.398  1.00  0.00     0.020 C 
HETATM    3  C3  UNL     1      25.518   6.837  49.667  1.00  0.00     0.030 C 
HETATM    4  C4  UNL     1      26.573   6.995  48.927  1.00  0.00     0.031 C 
HETATM    5  C5  UNL     1      27.288   5.774  48.695  1.00  0.00     0.033 C 
HETATM    6  C12 UNL     1      27.276   4.485  48.895  1.00  0.00     0.081 C 
HETATM    7  C13 UNL     1      26.201   3.818  49.582  1.00  0.00     0.177 C 
HETATM    8  O1  UNL     1      26.918   2.753  49.471  1.00  0.00    -0.291 OA
HETATM    9  C14 UNL     1      25.193   3.046  50.260  1.00  0.00     0.180 C 
HETATM   10  N4  UNL     1      23.881   3.768  50.289  1.00  0.00    -0.373 N 
HETATM   11  C18 UNL     1      23.284   4.141  49.011  1.00  0.00     0.062 A 
HETATM   12  C19 UNL     1      22.774   2.953  48.474  1.00  0.00     0.032 A 
HETATM   13  C20 UNL     1      22.119   2.803  47.242  1.00  0.00     0.002 A 
HETATM   14  C21 UNL     1      21.966   3.948  46.490  1.00  0.00     0.003 A 
HETATM   15  C22 UNL     1      22.463   5.119  47.012  1.00  0.00     0.039 A 
HETATM   16  C23 UNL     1      23.104   5.286  48.210  1.00  0.00     0.097 A 
HETATM   17  O3  UNL     1      23.584   6.416  48.723  1.00  0.00    -0.330 OA
HETATM   18  C24 UNL     1      23.275   7.760  48.657  1.00  0.00     0.298 C 
HETATM   19  N5  UNL     1      24.250   8.474  49.585  1.00  0.00    -0.369 N 
HETATM   20  H24 UNL     1      23.043   4.204  50.702  1.00  0.00     0.161 HD
HETATM   21  H31 UNL     1      24.847   9.233  49.972  1.00  0.00     0.161 HD
ENDROOT
BRANCH   5  22
HETATM   22  N1  UNL     1      28.221   6.606  48.037  1.00  0.00    -0.379 N 
HETATM   23  C6  UNL     1      27.940   7.725  47.123  1.00  0.00     0.125 C 
HETATM   24  C7  UNL     1      28.859   8.854  47.527  1.00  0.00     0.050 C 
HETATM   25  C8  UNL     1      30.144   8.788  46.726  1.00  0.00     0.273 C 
HETATM   26  N2  UNL     1      31.081   7.858  47.347  1.00  0.00     0.085 N 
HETATM   27  C9  UNL     1      32.311   7.904  46.584  1.00  0.00     0.309 C 
HETATM   28  C10 UNL     1      30.569   6.495  47.282  1.00  0.00     0.291 C 
HETATM   29  C11 UNL     1      29.595   6.206  48.385  1.00  0.00     0.153 C 
ENDBRANCH   5  22
BRANCH   9  30
HETATM   30  C15 UNL     1      25.588   2.884  51.699  1.00  0.00     0.023 C 
HETATM   31  C16 UNL     1      25.492   1.715  52.307  1.00  0.00     0.089 C 
BRANCH  31  32
HETATM   32  N3  UNL     1      25.824   1.409  53.645  1.00  0.00    -0.344 N 
HETATM   33  H22 UNL     1      25.277   1.756  54.456  1.00  0.00     0.167 HD
BRANCH  32  34
HETATM   34  C17 UNL     1      26.914   0.613  54.071  1.00  0.00     0.352 C 
HETATM   35  O2  UNL     1      26.764  -0.306  54.898  1.00  0.00    -0.283 OA
ENDBRANCH  32  34
ENDBRANCH  31  32
ENDBRANCH   9  30
TORSDOF 4
ENDMDL
MODEL 4
REMARK VINA RESULT:      -7.4      3.196      7.674
REMARK  4 active torsions:
REMARK  status: ('A' for Active; 'I' for Inactive)
REMARK    1  A    between atoms: C5_5  and  N1_6 
REMARK    2  A    between atoms: C14_17  and  C15_18 
REMARK    3  A    between atoms: C16_19  and  N3_20 
REMARK    4  A    between atoms: N3_20  and  C17_21 
ROOT
HETATM    1  C1  UNL     1      21.916   3.713  46.387  1.00  0.00     0.042 C 
HETATM    2  C2  UNL     1      21.743   3.288  47.616  1.00  0.00     0.020 C 
HETATM    3  C3  UNL     1      21.806   3.071  49.090  1.00  0.00     0.030 C 
HETATM    4  C4  UNL     1      21.527   2.504  50.223  1.00  0.00     0.031 C 
HETATM    5  C5  UNL     1      22.182   3.121  51.340  1.00  0.00     0.033 C 
HETATM    6  C12 UNL     1      22.947   4.113  51.703  1.00  0.00     0.081 C 
HETATM    7  C13 UNL     1      23.415   5.110  50.776  1.00  0.00     0.177 C 
HETATM    8  O1  UNL     1      24.094   5.576  51.767  1.00  0.00    -0.291 OA
HETATM    9  C14 UNL     1      23.952   6.154  49.942  1.00  0.00     0.180 C 
HETATM   10  N4  UNL     1      23.150   6.314  48.687  1.00  0.00    -0.373 N 
HETATM   11  C18 UNL     1      21.731   6.623  48.824  1.00  0.00     0.062 A 
HETATM   12  C19 UNL     1      21.674   7.972  49.196  1.00  0.00     0.032 A 
HETATM   13  C20 UNL     1      20.518   8.721  49.461  1.00  0.00     0.002 A 
HETATM   14  C21 UNL     1      19.318   8.052  49.339  1.00  0.00     0.003 A 
HETATM   15  C22 UNL     1      19.366   6.728  48.973  1.00  0.00     0.039 A 
HETATM   16  C23 UNL     1      20.482   5.980  48.710  1.00  0.00     0.097 A 
HETATM   17  O3  UNL     1      20.536   4.700  48.352  1.00  0.00    -0.330 OA
HETATM   18  C24 UNL     1      19.734   3.818  47.656  1.00  0.00     0.298 C 
HETATM   19  N5  UNL     1      20.499   2.502  47.586  1.00  0.00    -0.369 N 
HETATM   20  H24 UNL     1      22.966   6.354  47.673  1.00  0.00     0.161 HD
HETATM   21  H31 UNL     1      20.670   1.477  47.524  1.00  0.00     0.161 HD
ENDROOT
BRANCH   5  22
HETATM   22  N1  UNL     1      21.606   2.068  52.084  1.00  0.00    -0.379 N 
HETATM   23  C6  UNL     1      20.231   1.978  52.602  1.00  0.00     0.125 C 
HETATM   24  C7  UNL     1      19.747   0.579  52.303  1.00  0.00     0.050 C 
HETATM   25  C8  UNL     1      20.032  -0.330  53.481  1.00  0.00     0.273 C 
HETATM   26  N2  UNL     1      21.400  -0.833  53.412  1.00  0.00     0.085 N 
HETATM   27  C9  UNL     1      21.580  -1.755  54.515  1.00  0.00     0.309 C 
HETATM   28  C10 UNL     1      22.355   0.254  53.583  1.00  0.00     0.291 C 
HETATM   29  C11 UNL     1      22.595   0.999  52.304  1.00  0.00     0.153 C 
ENDBRANCH   5  22
BRANCH   9  30
HETATM   30  C15 UNL     1      25.326   5.757  49.487  1.00  0.00     0.023 C 
HETATM   31  C16 UNL     1      26.279   6.657  49.325  1.00  0.00     0.089 C 
BRANCH  31  32
HETATM   32  N3  UNL     1      27.610   6.439  48.907  1.00  0.00    -0.344 N 
HETATM   33  H22 UNL     1      28.326   7.190  48.887  1.00  0.00     0.167 HD
BRANCH  32  34
HETATM   34  C17 UNL     1      28.153   5.208  48.465  1.00  0.00     0.352 C 
HETATM   35  O2  UNL     1      29.383   5.038  48.365  1.00  0.00    -0.283 OA
ENDBRANCH  32  34
ENDBRANCH  31  32
ENDBRANCH   9  30
TORSDOF 4
ENDMDL
MODEL 5
REMARK VINA RESULT:      -7.3      4.651      8.529
REMARK  4 active torsions:
REMARK  status: ('A' for Active; 'I' for Inactive)
REMARK    1  A    between atoms: C5_5  and  N1_6 
REMARK    2  A    between atoms: C14_17  and  C15_18 
REMARK    3  A    between atoms: C16_19  and  N3_20 
REMARK    4  A    between atoms: N3_20  and  C17_21 
ROOT
HETATM    1  C1  UNL     1      22.633   2.051  47.395  1.00  0.00     0.042 C 
HETATM    2  C2  UNL     1      21.663   1.826  48.249  1.00  0.00     0.020 C 
HETATM    3  C3  UNL     1      20.847   1.562  49.468  1.00  0.00     0.030 C 
HETATM    4  C4  UNL     1      19.771   1.318  50.152  1.00  0.00     0.031 C 
HETATM    5  C5  UNL     1      20.009   1.218  51.562  1.00  0.00     0.033 C 
HETATM    6  C12 UNL     1      20.914   1.332  52.495  1.00  0.00     0.081 C 
HETATM    7  C13 UNL     1      22.270   1.724  52.214  1.00  0.00     0.177 C 
HETATM    8  O1  UNL     1      22.490   1.509  53.465  1.00  0.00    -0.291 OA
HETATM    9  C14 UNL     1      23.651   2.096  52.053  1.00  0.00     0.180 C 
HETATM   10  N4  UNL     1      23.869   2.845  50.774  1.00  0.00    -0.373 N 
HETATM   11  C18 UNL     1      23.114   4.077  50.574  1.00  0.00     0.062 A 
HETATM   12  C19 UNL     1      23.726   5.030  51.397  1.00  0.00     0.032 A 
HETATM   13  C20 UNL     1      23.342   6.371  51.557  1.00  0.00     0.002 A 
HETATM   14  C21 UNL     1      22.249   6.782  50.825  1.00  0.00     0.003 A 
HETATM   15  C22 UNL     1      21.644   5.852  50.014  1.00  0.00     0.039 A 
HETATM   16  C23 UNL     1      22.003   4.542  49.843  1.00  0.00     0.097 A 
HETATM   17  O3  UNL     1      21.425   3.637  49.058  1.00  0.00    -0.330 OA
HETATM   18  C24 UNL     1      20.727   3.641  47.866  1.00  0.00     0.298 C 
HETATM   19  N5  UNL     1      20.426   2.184  47.537  1.00  0.00    -0.369 N 
HETATM   20  H24 UNL     1      24.276   3.054  49.851  1.00  0.00     0.161 HD
HETATM   21  H31 UNL     1      19.933   1.357  47.143  1.00  0.00     0.161 HD
ENDROOT
BRANCH   5  22
HETATM   22  N1  UNL     1      18.640   0.873  51.629  1.00  0.00    -0.379 N 
HETATM   23  C6  UNL     1      18.045  -0.470  51.539  1.00  0.00     0.125 C 
HETATM   24  C7  UNL     1      17.001  -0.555  52.626  1.00  0.00     0.050 C 
HETATM   25  C8  UNL     1      15.649  -0.141  52.080  1.00  0.00     0.273 C 
HETATM   26  N2  UNL     1      15.511   1.311  52.116  1.00  0.00     0.085 N 
HETATM   27  C9  UNL     1      14.174   1.632  51.661  1.00  0.00     0.309 C 
HETATM   28  C10 UNL     1      16.454   1.939  51.201  1.00  0.00     0.291 C 
HETATM   29  C11 UNL     1      17.818   2.082  51.808  1.00  0.00     0.153 C 
ENDBRANCH   5  22
BRANCH   9  30
HETATM   30  C15 UNL     1      24.480   0.851  51.929  1.00  0.00     0.023 C 
HETATM   31  C16 UNL     1      25.797   0.895  52.015  1.00  0.00     0.089 C 
BRANCH  31  32
HETATM   32  N3  UNL     1      26.705  -0.183  51.920  1.00  0.00    -0.344 N 
HETATM   33  H22 UNL     1      27.067  -0.539  51.014  1.00  0.00     0.167 HD
BRANCH  32  34
HETATM   34  C17 UNL     1      27.239  -0.920  53.004  1.00  0.00     0.352 C 
HETATM   35  O2  UNL     1      27.123  -2.158  53.069  1.00  0.00    -0.283 OA
ENDBRANCH  32  34
ENDBRANCH  31  32
ENDBRANCH   9  30
TORSDOF 4
ENDMDL
MODEL 6
REMARK VINA RESULT:      -6.7      2.969      7.127
REMARK  4 active torsions:
REMARK  status: ('A' for Active; 'I' for Inactive)
REMARK    1  A    between atoms: C5_5  and  N1_6 
REMARK    2  A    between atoms: C14_17  and  C15_18 
REMARK    3  A    between atoms: C16_19  and  N3_20 
REMARK    4  A    between atoms: N3_20  and  C17_21 
ROOT
HETATM    1  C1  UNL     1      21.844   3.695  47.019  1.00  0.00     0.042 C 
HETATM    2  C2  UNL     1      22.604   3.290  48.009  1.00  0.00     0.020 C 
HETATM    3  C3  UNL     1      23.308   3.126  49.313  1.00  0.00     0.030 C 
HETATM    4  C4  UNL     1      24.144   2.604  50.158  1.00  0.00     0.031 C 
HETATM    5  C5  UNL     1      24.099   3.222  51.452  1.00  0.00     0.033 C 
HETATM    6  C12 UNL     1      23.485   4.114  52.178  1.00  0.00     0.081 C 
HETATM    7  C13 UNL     1      22.369   4.879  51.686  1.00  0.00     0.177 C 
HETATM    8  O1  UNL     1      22.426   5.506  52.810  1.00  0.00    -0.291 OA
HETATM    9  C14 UNL     1      21.256   5.707  51.302  1.00  0.00     0.180 C 
HETATM   10  N4  UNL     1      20.509   5.115  50.147  1.00  0.00    -0.373 N 
HETATM   11  C18 UNL     1      19.952   3.777  50.314  1.00  0.00     0.062 A 
HETATM   12  C19 UNL     1      18.829   3.938  51.135  1.00  0.00     0.032 A 
HETATM   13  C20 UNL     1      17.971   2.925  51.590  1.00  0.00     0.002 A 
HETATM   14  C21 UNL     1      18.272   1.643  51.182  1.00  0.00     0.003 A 
HETATM   15  C22 UNL     1      19.372   1.478  50.374  1.00  0.00     0.039 A 
HETATM   16  C23 UNL     1      20.221   2.451  49.920  1.00  0.00     0.097 A 
HETATM   17  O3  UNL     1      21.285   2.300  49.136  1.00  0.00    -0.330 OA
HETATM   18  C24 UNL     1      21.680   1.434  48.135  1.00  0.00     0.298 C 
HETATM   19  N5  UNL     1      23.033   1.931  47.642  1.00  0.00    -0.369 N 
HETATM   20  H24 UNL     1      20.092   5.069  49.205  1.00  0.00     0.161 HD
HETATM   21  H31 UNL     1      23.988   1.907  47.231  1.00  0.00     0.161 HD
ENDROOT
BRANCH   5  22
HETATM   22  N1  UNL     1      25.182   2.364  51.747  1.00  0.00    -0.379 N 
HETATM   23  C6  UNL     1      26.596   2.542  51.381  1.00  0.00     0.125 C 
HETATM   24  C7  UNL     1      27.406   2.204  52.610  1.00  0.00     0.050 C 
HETATM   25  C8  UNL     1      27.795   0.739  52.588  1.00  0.00     0.273 C 
HETATM   26  N2  UNL     1      26.714  -0.080  53.124  1.00  0.00     0.085 N 
HETATM   27  C9  UNL     1      27.180  -1.452  53.151  1.00  0.00     0.309 C 
HETATM   28  C10 UNL     1      25.548  -0.025  52.253  1.00  0.00     0.291 C 
HETATM   29  C11 UNL     1      24.712   1.194  52.508  1.00  0.00     0.153 C 
ENDBRANCH   5  22
BRANCH   9  30
HETATM   30  C15 UNL     1      21.777   7.024  50.804  1.00  0.00     0.023 C 
HETATM   31  C16 UNL     1      22.686   7.082  49.849  1.00  0.00     0.089 C 
BRANCH  31  32
HETATM   32  N3  UNL     1      23.267   8.237  49.279  1.00  0.00    -0.344 N 
HETATM   33  H22 UNL     1      22.818   9.172  49.316  1.00  0.00     0.167 HD
BRANCH  32  34
HETATM   34  C17 UNL     1      24.505   8.294  48.594  1.00  0.00     0.352 C 
HETATM   35  O2  UNL     1      24.566   8.207  47.353  1.00  0.00    -0.283 OA
ENDBRANCH  32  34
ENDBRANCH  31  32
ENDBRANCH   9  30
TORSDOF 4
ENDMDL
MODEL 7
REMARK VINA RESULT:      -6.6      3.817      8.788
REMARK  4 active torsions:
REMARK  status: ('A' for Active; 'I' for Inactive)
REMARK    1  A    between atoms: C5_5  and  N1_6 
REMARK    2  A    between atoms: C14_17  and  C15_18 
REMARK    3  A    between atoms: C16_19  and  N3_20 
REMARK    4  A    between atoms: N3_20  and  C17_21 
ROOT
HETATM    1  C1  UNL     1      31.069  11.279  48.673  1.00  0.00     0.042 C 
HETATM    2  C2  UNL     1      30.061  10.455  48.833  1.00  0.00     0.020 C 
HETATM    3  C3  UNL     1      28.868   9.581  48.643  1.00  0.00     0.030 C 
HETATM    4  C4  UNL     1      27.906   8.784  48.996  1.00  0.00     0.031 C 
HETATM    5  C5  UNL     1      27.102   8.345  47.893  1.00  0.00     0.033 C 
HETATM    6  C12 UNL     1      26.972   8.383  46.595  1.00  0.00     0.081 C 
HETATM    7  C13 UNL     1      27.911   9.065  45.743  1.00  0.00     0.177 C 
HETATM    8  O1  UNL     1      27.108   8.765  44.781  1.00  0.00    -0.291 OA
HETATM    9  C14 UNL     1      28.773   9.721  44.795  1.00  0.00     0.180 C 
HETATM   10  N4  UNL     1      30.139   9.945  45.366  1.00  0.00    -0.373 N 
HETATM   11  C18 UNL     1      30.885   8.776  45.819  1.00  0.00     0.062 A 
HETATM   12  C19 UNL     1      31.327   8.138  44.654  1.00  0.00     0.032 A 
HETATM   13  C20 UNL     1      32.076   6.953  44.579  1.00  0.00     0.002 A 
HETATM   14  C21 UNL     1      32.407   6.365  45.781  1.00  0.00     0.003 A 
HETATM   15  C22 UNL     1      31.978   6.988  46.929  1.00  0.00     0.039 A 
HETATM   16  C23 UNL     1      31.248   8.141  47.023  1.00  0.00     0.097 A 
HETATM   17  O3  UNL     1      30.832   8.751  48.131  1.00  0.00    -0.330 OA
HETATM   18  C24 UNL     1      31.273   8.878  49.433  1.00  0.00     0.298 C 
HETATM   19  N5  UNL     1      30.289   9.806  50.134  1.00  0.00    -0.369 N 
HETATM   20  H24 UNL     1      30.973  10.475  45.659  1.00  0.00     0.161 HD
HETATM   21  H31 UNL     1      29.734  10.235  50.902  1.00  0.00     0.161 HD
ENDROOT
BRANCH   5  22
HETATM   22  N1  UNL     1      26.318   7.723  48.890  1.00  0.00    -0.379 N 
HETATM   23  C6  UNL     1      25.836   8.309  50.151  1.00  0.00     0.125 C 
HETATM   24  C7  UNL     1      24.389   7.899  50.293  1.00  0.00     0.050 C 
HETATM   25  C8  UNL     1      24.291   6.613  51.089  1.00  0.00     0.273 C 
HETATM   26  N2  UNL     1      24.490   5.461  50.217  1.00  0.00     0.085 N 
HETATM   27  C9  UNL     1      24.302   4.270  51.020  1.00  0.00     0.309 C 
HETATM   28  C10 UNL     1      25.852   5.437  49.701  1.00  0.00     0.291 C 
HETATM   29  C11 UNL     1      26.018   6.332  48.509  1.00  0.00     0.153 C 
ENDBRANCH   5  22
BRANCH   9  30
HETATM   30  C15 UNL     1      28.232  11.091  44.510  1.00  0.00     0.023 C 
HETATM   31  C16 UNL     1      28.329  12.063  45.399  1.00  0.00     0.089 C 
BRANCH  31  32
HETATM   32  N3  UNL     1      27.873  13.394  45.276  1.00  0.00    -0.344 N 
HETATM   33  H22 UNL     1      27.855  13.904  44.372  1.00  0.00     0.167 HD
BRANCH  32  34
HETATM   34  C17 UNL     1      27.391  14.209  46.329  1.00  0.00     0.352 C 
HETATM   35  O2  UNL     1      28.167  14.836  47.073  1.00  0.00    -0.283 OA
ENDBRANCH  32  34
ENDBRANCH  31  32
ENDBRANCH   9  30
TORSDOF 4
ENDMDL
MODEL 8
REMARK VINA RESULT:      -6.6      4.549      8.292
REMARK  4 active torsions:
REMARK  status: ('A' for Active; 'I' for Inactive)
REMARK    1  A    between atoms: C5_5  and  N1_6 
REMARK    2  A    between atoms: C14_17  and  C15_18 
REMARK    3  A    between atoms: C16_19  and  N3_20 
REMARK    4  A    between atoms: N3_20  and  C17_21 
ROOT
HETATM    1  C1  UNL     1      22.511   2.104  47.475  1.00  0.00     0.042 C 
HETATM    2  C2  UNL     1      21.399   2.214  48.163  1.00  0.00     0.020 C 
HETATM    3  C3  UNL     1      20.369   2.279  49.239  1.00  0.00     0.030 C 
HETATM    4  C4  UNL     1      19.178   2.383  49.742  1.00  0.00     0.031 C 
HETATM    5  C5  UNL     1      19.165   2.351  51.176  1.00  0.00     0.033 C 
HETATM    6  C12 UNL     1      19.917   2.310  52.241  1.00  0.00     0.081 C 
HETATM    7  C13 UNL     1      21.355   2.312  52.174  1.00  0.00     0.177 C 
HETATM    8  O1  UNL     1      21.319   2.158  53.453  1.00  0.00    -0.291 OA
HETATM    9  C14 UNL     1      22.793   2.298  52.232  1.00  0.00     0.180 C 
HETATM   10  N4  UNL     1      23.394   2.848  50.975  1.00  0.00    -0.373 N 
HETATM   11  C18 UNL     1      23.038   4.211  50.594  1.00  0.00     0.062 A 
HETATM   12  C19 UNL     1      23.753   5.043  51.463  1.00  0.00     0.032 A 
HETATM   13  C20 UNL     1      23.724   6.446  51.495  1.00  0.00     0.002 A 
HETATM   14  C21 UNL     1      22.905   7.059  50.572  1.00  0.00     0.003 A 
HETATM   15  C22 UNL     1      22.201   6.248  49.714  1.00  0.00     0.039 A 
HETATM   16  C23 UNL     1      22.215   4.880  49.666  1.00  0.00     0.097 A 
HETATM   17  O3  UNL     1      21.539   4.089  48.837  1.00  0.00    -0.330 OA
HETATM   18  C24 UNL     1      21.055   4.167  47.546  1.00  0.00     0.298 C 
HETATM   19  N5  UNL     1      20.425   2.815  47.238  1.00  0.00    -0.369 N 
HETATM   20  H24 UNL     1      23.976   2.862  50.124  1.00  0.00     0.161 HD
HETATM   21  H31 UNL     1      19.793   2.111  46.805  1.00  0.00     0.161 HD
ENDROOT
BRANCH   5  22
HETATM   22  N1  UNL     1      17.761   2.378  51.027  1.00  0.00    -0.379 N 
HETATM   23  C6  UNL     1      16.886   1.299  50.542  1.00  0.00     0.125 C 
HETATM   24  C7  UNL     1      15.697   1.254  51.472  1.00  0.00     0.050 C 
HETATM   25  C8  UNL     1      14.582   2.125  50.930  1.00  0.00     0.273 C 
HETATM   26  N2  UNL     1      14.787   3.515  51.325  1.00  0.00     0.085 N 
HETATM   27  C9  UNL     1      13.651   4.275  50.848  1.00  0.00     0.309 C 
HETATM   28  C10 UNL     1      15.981   4.057  50.690  1.00  0.00     0.291 C 
HETATM   29  C11 UNL     1      17.230   3.690  51.435  1.00  0.00     0.153 C 
ENDBRANCH   5  22
BRANCH   9  30
HETATM   30  C15 UNL     1      23.265   0.875  52.306  1.00  0.00     0.023 C 
HETATM   31  C16 UNL     1      24.352   0.549  52.981  1.00  0.00     0.089 C 
BRANCH  31  32
HETATM   32  N3  UNL     1      24.916  -0.735  53.142  1.00  0.00    -0.344 N 
HETATM   33  H22 UNL     1      24.345  -1.585  53.316  1.00  0.00     0.167 HD
BRANCH  32  34
HETATM   34  C17 UNL     1      26.295  -1.051  53.096  1.00  0.00     0.352 C 
HETATM   35  O2  UNL     1      27.060  -0.504  52.279  1.00  0.00    -0.283 OA
ENDBRANCH  32  34
ENDBRANCH  31  32
ENDBRANCH   9  30
TORSDOF 4
ENDMDL
MODEL 9
REMARK VINA RESULT:      -6.5      4.923      8.754
REMARK  4 active torsions:
REMARK  status: ('A' for Active; 'I' for Inactive)
REMARK    1  A    between atoms: C5_5  and  N1_6 
REMARK    2  A    between atoms: C14_17  and  C15_18 
REMARK    3  A    between atoms: C16_19  and  N3_20 
REMARK    4  A    between atoms: N3_20  and  C17_21 
ROOT
HETATM    1  C1  UNL     1      27.565  10.608  44.563  1.00  0.00     0.042 C 
HETATM    2  C2  UNL     1      28.498   9.788  44.986  1.00  0.00     0.020 C 
HETATM    3  C3  UNL     1      29.548   9.080  45.773  1.00  0.00     0.030 C 
HETATM    4  C4  UNL     1      30.470   8.196  46.006  1.00  0.00     0.031 C 
HETATM    5  C5  UNL     1      31.028   8.295  47.323  1.00  0.00     0.033 C 
HETATM    6  C12 UNL     1      30.941   8.917  48.466  1.00  0.00     0.081 C 
HETATM    7  C13 UNL     1      29.947   9.925  48.726  1.00  0.00     0.177 C 
HETATM    8  O1  UNL     1      30.541  10.084  49.858  1.00  0.00    -0.291 OA
HETATM    9  C14 UNL     1      29.008  10.951  49.096  1.00  0.00     0.180 C 
HETATM   10  N4  UNL     1      27.786  10.910  48.229  1.00  0.00    -0.373 N 
HETATM   11  C18 UNL     1      27.014   9.673  48.205  1.00  0.00     0.062 A 
HETATM   12  C19 UNL     1      26.320   9.640  49.421  1.00  0.00     0.032 A 
HETATM   13  C20 UNL     1      25.453   8.630  49.865  1.00  0.00     0.002 A 
HETATM   14  C21 UNL     1      25.272   7.564  49.010  1.00  0.00     0.003 A 
HETATM   15  C22 UNL     1      25.949   7.591  47.813  1.00  0.00     0.039 A 
HETATM   16  C23 UNL     1      26.797   8.565  47.363  1.00  0.00     0.097 A 
HETATM   17  O3  UNL     1      27.452   8.600  46.205  1.00  0.00    -0.330 OA
HETATM   18  C24 UNL     1      27.252   8.127  44.924  1.00  0.00     0.298 C 
HETATM   19  N5  UNL     1      28.428   8.622  44.091  1.00  0.00    -0.369 N 
HETATM   20  H24 UNL     1      27.071  11.260  47.574  1.00  0.00     0.161 HD
HETATM   21  H31 UNL     1      29.145   8.648  43.338  1.00  0.00     0.161 HD
ENDROOT
BRANCH   5  22
HETATM   22  N1  UNL     1      31.902   7.278  46.880  1.00  0.00    -0.379 N 
HETATM   23  C6  UNL     1      32.170   6.862  45.493  1.00  0.00     0.125 C 
HETATM   24  C7  UNL     1      33.666   6.696  45.373  1.00  0.00     0.050 C 
HETATM   25  C8  UNL     1      34.053   5.259  45.663  1.00  0.00     0.273 C 
HETATM   26  N2  UNL     1      34.186   5.051  47.101  1.00  0.00     0.085 N 
HETATM   27  C9  UNL     1      34.634   3.688  47.304  1.00  0.00     0.309 C 
HETATM   28  C10 UNL     1      32.895   5.196  47.762  1.00  0.00     0.291 C 
HETATM   29  C11 UNL     1      32.558   6.633  48.030  1.00  0.00     0.153 C 
ENDBRANCH   5  22
BRANCH   9  30
HETATM   30  C15 UNL     1      29.628  12.295  48.843  1.00  0.00     0.023 C 
HETATM   31  C16 UNL     1      29.300  13.011  47.784  1.00  0.00     0.089 C 
BRANCH  31  32
HETATM   32  N3  UNL     1      29.792  14.282  47.414  1.00  0.00    -0.344 N 
HETATM   33  H22 UNL     1      30.753  14.603  47.642  1.00  0.00     0.167 HD
BRANCH  32  34
HETATM   34  C17 UNL     1      29.078  15.278  46.706  1.00  0.00     0.352 C 
HETATM   35  O2  UNL     1      29.631  16.327  46.324  1.00  0.00    -0.283 OA
ENDBRANCH  32  34
ENDBRANCH  31  32
ENDBRANCH   9  30
TORSDOF 4
ENDMDL
