MODEL 1
REMARK VINA RESULT:      -8.2      0.000      0.000
REMARK  2 active torsions:
REMARK  status: ('A' for Active; 'I' for Inactive)
REMARK    1  A    between atoms: C2_2  and  C3_3 
REMARK    2  A    between atoms: C3_3  and  C4_4 
ROOT
HETATM    1  C4  UNL     1      21.094   1.812  50.390  1.00  0.00    -0.023 C 
HETATM    2  C5  UNL     1      21.258   0.963  51.389  1.00  0.00     0.091 C 
HETATM    3  N1  UNL     1      21.631   1.265  52.711  1.00  0.00    -0.396 N 
HETATM    4  C6  UNL     1      21.651   0.543  53.955  1.00  0.00     0.145 C 
HETATM    5  C7  UNL     1      22.666  -0.595  53.891  1.00  0.00     0.187 C 
HETATM    6  O1  UNL     1      23.867  -0.018  53.578  1.00  0.00    -0.389 OA
HETATM    7  C8  UNL     1      24.866  -0.995  53.487  1.00  0.00     0.171 C 
HETATM    8  C9  UNL     1      26.082  -0.236  52.987  1.00  0.00     0.005 C 
HETATM    9  C10 UNL     1      27.240  -1.203  52.822  1.00  0.00     0.012 C 
HETATM   10  C11 UNL     1      26.413   0.827  54.018  1.00  0.00     0.010 C 
HETATM   11  C12 UNL     1      27.494   1.749  53.411  1.00  0.00     0.027 C 
HETATM   12  C13 UNL     1      26.929   2.381  52.179  1.00  0.00    -0.026 C 
HETATM   13  C14 UNL     1      26.825   2.697  50.877  1.00  0.00     0.007 C 
HETATM   14  C15 UNL     1      25.691   3.574  50.482  1.00  0.00    -0.035 A 
HETATM   15  C16 UNL     1      24.831   4.444  50.054  1.00  0.00     0.024 A 
HETATM   16  C17 UNL     1      23.679   3.808  50.625  1.00  0.00    -0.018 A 
HETATM   17  C18 UNL     1      24.500   2.909  51.073  1.00  0.00     0.024 A 
HETATM   18  C19 UNL     1      22.276   4.063  50.697  1.00  0.00     0.059 A 
HETATM   19  C20 UNL     1      21.282   3.219  50.595  1.00  0.00     0.056 A 
HETATM   20  C21 UNL     1      20.042   4.009  50.755  1.00  0.00     0.260 A 
HETATM   21  O2  UNL     1      18.787   3.760  50.757  1.00  0.00    -0.267 OA
HETATM   22  N2  UNL     1      20.375   5.398  50.961  1.00  0.00    -0.289 N 
HETATM   23  C22 UNL     1      21.804   5.420  50.921  1.00  0.00     0.260 A 
HETATM   24  O3  UNL     1      22.407   6.525  51.074  1.00  0.00    -0.267 OA
HETATM   25  H7  UNL     1      21.971   2.271  52.771  1.00  0.00     0.158 HD
HETATM   26  H26 UNL     1      19.735   6.236  51.112  1.00  0.00     0.172 HD
ENDROOT
BRANCH   1  27
HETATM   27  C3  UNL     1      20.699   1.244  49.075  1.00  0.00     0.067 C 
BRANCH  27  28
HETATM   28  C2  UNL     1      21.351   1.869  47.914  1.00  0.00    -0.032 C 
HETATM   29  C1  UNL     1      22.616   2.013  47.533  1.00  0.00     0.007 C 
ENDBRANCH  27  28
ENDBRANCH   1  27
TORSDOF 2
ENDMDL
MODEL 2
REMARK VINA RESULT:      -7.9      3.178      5.006
REMARK  2 active torsions:
REMARK  status: ('A' for Active; 'I' for Inactive)
REMARK    1  A    between atoms: C2_2  and  C3_3 
REMARK    2  A    between atoms: C3_3  and  C4_4 
ROOT
HETATM    1  C4  UNL     1      23.147   6.457  47.625  1.00  0.00    -0.023 C 
HETATM    2  C5  UNL     1      22.292   6.210  48.601  1.00  0.00     0.091 C 
HETATM    3  N1  UNL     1      22.452   6.498  49.968  1.00  0.00    -0.396 N 
HETATM    4  C6  UNL     1      21.587   6.510  51.116  1.00  0.00     0.145 C 
HETATM    5  C7  UNL     1      21.108   5.096  51.434  1.00  0.00     0.187 C 
HETATM    6  O1  UNL     1      22.236   4.343  51.613  1.00  0.00    -0.389 OA
HETATM    7  C8  UNL     1      21.894   3.016  51.900  1.00  0.00     0.171 C 
HETATM    8  C9  UNL     1      23.225   2.284  51.914  1.00  0.00     0.005 C 
HETATM    9  C10 UNL     1      22.981   0.813  52.196  1.00  0.00     0.012 C 
HETATM   10  C11 UNL     1      24.076   2.906  53.005  1.00  0.00     0.010 C 
HETATM   11  C12 UNL     1      25.504   2.331  52.869  1.00  0.00     0.027 C 
HETATM   12  C13 UNL     1      26.032   2.708  51.522  1.00  0.00    -0.026 C 
HETATM   13  C14 UNL     1      26.524   2.534  50.283  1.00  0.00     0.007 C 
HETATM   14  C15 UNL     1      26.817   3.758  49.493  1.00  0.00    -0.035 A 
HETATM   15  C16 UNL     1      27.242   4.753  48.777  1.00  0.00     0.024 A 
HETATM   16  C17 UNL     1      26.032   5.520  48.856  1.00  0.00    -0.018 A 
HETATM   17  C18 UNL     1      25.561   4.549  49.574  1.00  0.00     0.024 A 
HETATM   18  C19 UNL     1      25.570   6.786  48.387  1.00  0.00     0.059 A 
HETATM   19  C20 UNL     1      24.397   7.104  47.902  1.00  0.00     0.056 A 
HETATM   20  C21 UNL     1      24.451   8.547  47.583  1.00  0.00     0.260 A 
HETATM   21  O2  UNL     1      23.642   9.413  47.100  1.00  0.00    -0.267 OA
HETATM   22  N2  UNL     1      25.755   9.069  47.916  1.00  0.00    -0.289 N 
HETATM   23  C22 UNL     1      26.460   7.936  48.428  1.00  0.00     0.260 A 
HETATM   24  O3  UNL     1      27.660   8.080  48.813  1.00  0.00    -0.267 OA
HETATM   25  H7  UNL     1      23.462   6.770  50.165  1.00  0.00     0.158 HD
HETATM   26  H26 UNL     1      26.136  10.059  47.819  1.00  0.00     0.172 HD
ENDROOT
BRANCH   1  27
HETATM   27  C3  UNL     1      22.746   6.052  46.253  1.00  0.00     0.067 C 
BRANCH  27  28
HETATM   28  C2  UNL     1      21.842   4.893  46.194  1.00  0.00    -0.032 C 
HETATM   29  C1  UNL     1      21.879   3.724  45.562  1.00  0.00     0.007 C 
ENDBRANCH  27  28
ENDBRANCH   1  27
TORSDOF 2
ENDMDL
MODEL 3
REMARK VINA RESULT:      -7.6      2.002      4.432
REMARK  2 active torsions:
REMARK  status: ('A' for Active; 'I' for Inactive)
REMARK    1  A    between atoms: C2_2  and  C3_3 
REMARK    2  A    between atoms: C3_3  and  C4_4 
ROOT
HETATM    1  C4  UNL     1      22.360   4.557  50.851  1.00  0.00    -0.023 C 
HETATM    2  C5  UNL     1      23.649   4.516  50.563  1.00  0.00     0.091 C 
HETATM    3  N1  UNL     1      24.325   3.534  49.820  1.00  0.00    -0.396 N 
HETATM    4  C6  UNL     1      25.632   3.420  49.230  1.00  0.00     0.145 C 
HETATM    5  C7  UNL     1      26.703   3.386  50.317  1.00  0.00     0.187 C 
HETATM    6  O1  UNL     1      26.384   2.336  51.134  1.00  0.00    -0.389 OA
HETATM    7  C8  UNL     1      27.313   2.232  52.177  1.00  0.00     0.171 C 
HETATM    8  C9  UNL     1      26.746   1.144  53.072  1.00  0.00     0.005 C 
HETATM    9  C10 UNL     1      27.664   0.952  54.265  1.00  0.00     0.012 C 
HETATM   10  C11 UNL     1      26.664  -0.128  52.248  1.00  0.00     0.010 C 
HETATM   11  C12 UNL     1      25.875  -1.170  53.072  1.00  0.00     0.027 C 
HETATM   12  C13 UNL     1      24.505  -0.625  53.322  1.00  0.00    -0.026 C 
HETATM   13  C14 UNL     1      23.445  -0.195  54.028  1.00  0.00     0.007 C 
HETATM   14  C15 UNL     1      22.259   0.263  53.258  1.00  0.00    -0.035 A 
HETATM   15  C16 UNL     1      21.127   0.546  52.693  1.00  0.00     0.024 A 
HETATM   16  C17 UNL     1      21.662   1.488  51.753  1.00  0.00    -0.018 A 
HETATM   17  C18 UNL     1      22.817   1.241  52.288  1.00  0.00     0.024 A 
HETATM   18  C19 UNL     1      21.159   2.301  50.692  1.00  0.00     0.059 A 
HETATM   19  C20 UNL     1      21.478   3.530  50.378  1.00  0.00     0.056 A 
HETATM   20  C21 UNL     1      20.670   3.883  49.191  1.00  0.00     0.260 A 
HETATM   21  O2  UNL     1      20.539   4.911  48.440  1.00  0.00    -0.267 OA
HETATM   22  N2  UNL     1      19.838   2.763  48.819  1.00  0.00    -0.289 N 
HETATM   23  C22 UNL     1      20.159   1.759  49.785  1.00  0.00     0.260 A 
HETATM   24  O3  UNL     1      19.577   0.635  49.720  1.00  0.00    -0.267 OA
HETATM   25  H7  UNL     1      23.694   2.689  49.676  1.00  0.00     0.158 HD
HETATM   26  H26 UNL     1      19.141   2.670  48.020  1.00  0.00     0.172 HD
ENDROOT
BRANCH   1  27
HETATM   27  C3  UNL     1      21.882   5.707  51.662  1.00  0.00     0.067 C 
BRANCH  27  28
HETATM   28  C2  UNL     1      21.955   7.010  50.983  1.00  0.00    -0.032 C 
HETATM   29  C1  UNL     1      21.062   7.792  50.388  1.00  0.00     0.007 C 
ENDBRANCH  27  28
ENDBRANCH   1  27
TORSDOF 2
ENDMDL
MODEL 4
REMARK VINA RESULT:      -7.6      4.165      6.428
REMARK  2 active torsions:
REMARK  status: ('A' for Active; 'I' for Inactive)
REMARK    1  A    between atoms: C2_2  and  C3_3 
REMARK    2  A    between atoms: C3_3  and  C4_4 
ROOT
HETATM    1  C4  UNL     1      24.026   8.086  47.474  1.00  0.00    -0.023 C 
HETATM    2  C5  UNL     1      23.045   7.739  48.288  1.00  0.00     0.091 C 
HETATM    3  N1  UNL     1      23.083   7.684  49.693  1.00  0.00    -0.396 N 
HETATM    4  C6  UNL     1      22.101   7.548  50.735  1.00  0.00     0.145 C 
HETATM    5  C7  UNL     1      21.439   6.175  50.664  1.00  0.00     0.187 C 
HETATM    6  O1  UNL     1      22.450   5.258  50.749  1.00  0.00    -0.389 OA
HETATM    7  C8  UNL     1      21.935   3.959  50.681  1.00  0.00     0.171 C 
HETATM    8  C9  UNL     1      23.168   3.073  50.629  1.00  0.00     0.005 C 
HETATM    9  C10 UNL     1      22.735   1.622  50.528  1.00  0.00     0.012 C 
HETATM   10  C11 UNL     1      23.955   3.311  51.903  1.00  0.00     0.010 C 
HETATM   11  C12 UNL     1      25.318   2.599  51.752  1.00  0.00     0.027 C 
HETATM   12  C13 UNL     1      26.031   3.199  50.583  1.00  0.00    -0.026 C 
HETATM   13  C14 UNL     1      26.636   3.248  49.383  1.00  0.00     0.007 C 
HETATM   14  C15 UNL     1      27.148   4.570  48.937  1.00  0.00    -0.035 A 
HETATM   15  C16 UNL     1      27.756   5.636  48.518  1.00  0.00     0.024 A 
HETATM   16  C17 UNL     1      26.636   6.519  48.678  1.00  0.00    -0.018 A 
HETATM   17  C18 UNL     1      25.984   5.481  49.101  1.00  0.00     0.024 A 
HETATM   18  C19 UNL     1      26.370   7.908  48.489  1.00  0.00     0.059 A 
HETATM   19  C20 UNL     1      25.300   8.481  48.000  1.00  0.00     0.056 A 
HETATM   20  C21 UNL     1      25.547   9.938  48.042  1.00  0.00     0.260 A 
HETATM   21  O2  UNL     1      24.896  10.991  47.715  1.00  0.00    -0.267 OA
HETATM   22  N2  UNL     1      26.855  10.193  48.597  1.00  0.00    -0.289 N 
HETATM   23  C22 UNL     1      27.371   8.890  48.878  1.00  0.00     0.260 A 
HETATM   24  O3  UNL     1      28.528   8.783  49.384  1.00  0.00    -0.267 OA
HETATM   25  H7  UNL     1      24.088   7.767  50.032  1.00  0.00     0.158 HD
HETATM   26  H26 UNL     1      27.350  11.119  48.772  1.00  0.00     0.172 HD
ENDROOT
BRANCH   1  27
HETATM   27  C3  UNL     1      23.738   8.060  46.016  1.00  0.00     0.067 C 
BRANCH  27  28
HETATM   28  C2  UNL     1      24.931   8.027  45.155  1.00  0.00    -0.032 C 
HETATM   29  C1  UNL     1      25.533   8.922  44.378  1.00  0.00     0.007 C 
ENDBRANCH  27  28
ENDBRANCH   1  27
TORSDOF 2
ENDMDL
MODEL 5
REMARK VINA RESULT:      -7.3      3.020      7.368
REMARK  2 active torsions:
REMARK  status: ('A' for Active; 'I' for Inactive)
REMARK    1  A    between atoms: C2_2  and  C3_3 
REMARK    2  A    between atoms: C3_3  and  C4_4 
ROOT
HETATM    1  C4  UNL     1      25.244   4.123  50.397  1.00  0.00    -0.023 C 
HETATM    2  C5  UNL     1      24.928   5.406  50.407  1.00  0.00     0.091 C 
HETATM    3  N1  UNL     1      23.666   5.971  50.659  1.00  0.00    -0.396 N 
HETATM    4  C6  UNL     1      23.176   7.297  50.921  1.00  0.00     0.145 C 
HETATM    5  C7  UNL     1      23.368   8.186  49.696  1.00  0.00     0.187 C 
HETATM    6  O1  UNL     1      22.719   7.563  48.666  1.00  0.00    -0.389 OA
HETATM    7  C8  UNL     1      22.851   8.306  47.487  1.00  0.00     0.171 C 
HETATM    8  C9  UNL     1      22.226   7.424  46.420  1.00  0.00     0.005 C 
HETATM    9  C10 UNL     1      22.331   8.119  45.075  1.00  0.00     0.012 C 
HETATM   10  C11 UNL     1      20.774   7.206  46.801  1.00  0.00     0.010 C 
HETATM   11  C12 UNL     1      20.199   6.127  45.857  1.00  0.00     0.027 C 
HETATM   12  C13 UNL     1      20.981   4.868  46.057  1.00  0.00    -0.026 C 
HETATM   13  C14 UNL     1      21.770   3.828  45.739  1.00  0.00     0.007 C 
HETATM   14  C15 UNL     1      22.096   2.867  46.825  1.00  0.00    -0.035 A 
HETATM   15  C16 UNL     1      22.322   1.898  47.656  1.00  0.00     0.024 A 
HETATM   16  C17 UNL     1      22.800   2.727  48.725  1.00  0.00    -0.018 A 
HETATM   17  C18 UNL     1      22.594   3.730  47.929  1.00  0.00     0.024 A 
HETATM   18  C19 UNL     1      23.261   2.538  50.063  1.00  0.00     0.059 A 
HETATM   19  C20 UNL     1      24.250   3.129  50.682  1.00  0.00     0.056 A 
HETATM   20  C21 UNL     1      24.283   2.571  52.051  1.00  0.00     0.260 A 
HETATM   21  O2  UNL     1      24.998   2.745  53.098  1.00  0.00    -0.267 OA
HETATM   22  N2  UNL     1      23.231   1.595  52.203  1.00  0.00    -0.289 N 
HETATM   23  C22 UNL     1      22.585   1.582  50.927  1.00  0.00     0.260 A 
HETATM   24  O3  UNL     1      21.599   0.806  50.744  1.00  0.00    -0.267 OA
HETATM   25  H7  UNL     1      22.920   5.212  50.647  1.00  0.00     0.158 HD
HETATM   26  H26 UNL     1      22.967   1.005  53.049  1.00  0.00     0.172 HD
ENDROOT
BRANCH   1  27
HETATM   27  C3  UNL     1      26.657   3.775  50.098  1.00  0.00     0.067 C 
BRANCH  27  28
HETATM   28  C2  UNL     1      27.173   4.331  48.837  1.00  0.00    -0.032 C 
HETATM   29  C1  UNL     1      28.125   5.209  48.538  1.00  0.00     0.007 C 
ENDBRANCH  27  28
ENDBRANCH   1  27
TORSDOF 2
ENDMDL
MODEL 6
REMARK VINA RESULT:      -7.2      2.076      6.269
REMARK  2 active torsions:
REMARK  status: ('A' for Active; 'I' for Inactive)
REMARK    1  A    between atoms: C2_2  and  C3_3 
REMARK    2  A    between atoms: C3_3  and  C4_4 
ROOT
HETATM    1  C4  UNL     1      24.092   1.434  52.273  1.00  0.00    -0.023 C 
HETATM    2  C5  UNL     1      24.304   2.718  52.505  1.00  0.00     0.091 C 
HETATM    3  N1  UNL     1      23.340   3.734  52.615  1.00  0.00    -0.396 N 
HETATM    4  C6  UNL     1      23.345   5.101  53.063  1.00  0.00     0.145 C 
HETATM    5  C7  UNL     1      24.197   5.960  52.133  1.00  0.00     0.187 C 
HETATM    6  O1  UNL     1      23.671   5.803  50.880  1.00  0.00    -0.389 OA
HETATM    7  C8  UNL     1      24.401   6.552  49.949  1.00  0.00     0.171 C 
HETATM    8  C9  UNL     1      23.809   6.157  48.608  1.00  0.00     0.005 C 
HETATM    9  C10 UNL     1      24.542   6.895  47.503  1.00  0.00     0.012 C 
HETATM   10  C11 UNL     1      22.341   6.539  48.627  1.00  0.00     0.010 C 
HETATM   11  C12 UNL     1      21.682   5.930  47.368  1.00  0.00     0.027 C 
HETATM   12  C13 UNL     1      21.832   4.444  47.436  1.00  0.00    -0.026 C 
HETATM   13  C14 UNL     1      22.216   3.212  47.060  1.00  0.00     0.007 C 
HETATM   14  C15 UNL     1      21.832   2.083  47.947  1.00  0.00    -0.035 A 
HETATM   15  C16 UNL     1      21.428   1.018  48.568  1.00  0.00     0.024 A 
HETATM   16  C17 UNL     1      21.869   1.429  49.870  1.00  0.00    -0.018 A 
HETATM   17  C18 UNL     1      22.294   2.511  49.294  1.00  0.00     0.024 A 
HETATM   18  C19 UNL     1      21.830   0.903  51.196  1.00  0.00     0.059 A 
HETATM   19  C20 UNL     1      22.756   0.935  52.120  1.00  0.00     0.056 A 
HETATM   20  C21 UNL     1      22.190   0.259  53.307  1.00  0.00     0.260 A 
HETATM   21  O2  UNL     1      22.595  -0.016  54.489  1.00  0.00    -0.267 OA
HETATM   22  N2  UNL     1      20.847  -0.183  53.018  1.00  0.00    -0.289 N 
HETATM   23  C22 UNL     1      20.628   0.234  51.668  1.00  0.00     0.260 A 
HETATM   24  O3  UNL     1      19.513  -0.017  51.120  1.00  0.00    -0.267 OA
HETATM   25  H7  UNL     1      22.395   3.375  52.282  1.00  0.00     0.158 HD
HETATM   26  H26 UNL     1      20.152  -0.699  53.639  1.00  0.00     0.172 HD
ENDROOT
BRANCH   1  27
HETATM   27  C3  UNL     1      25.286   0.552  52.197  1.00  0.00     0.067 C 
BRANCH  27  28
HETATM   28  C2  UNL     1      25.942   0.292  53.488  1.00  0.00    -0.032 C 
HETATM   29  C1  UNL     1      27.209   0.199  53.877  1.00  0.00     0.007 C 
ENDBRANCH  27  28
ENDBRANCH   1  27
TORSDOF 2
ENDMDL
MODEL 7
REMARK VINA RESULT:      -7.2      8.825     11.937
REMARK  2 active torsions:
REMARK  status: ('A' for Active; 'I' for Inactive)
REMARK    1  A    between atoms: C2_2  and  C3_3 
REMARK    2  A    between atoms: C3_3  and  C4_4 
ROOT
HETATM    1  C4  UNL     1      30.254   9.175  47.832  1.00  0.00    -0.023 C 
HETATM    2  C5  UNL     1      30.321   9.651  46.601  1.00  0.00     0.091 C 
HETATM    3  N1  UNL     1      29.778   9.081  45.437  1.00  0.00    -0.396 N 
HETATM    4  C6  UNL     1      29.559   9.529  44.088  1.00  0.00     0.145 C 
HETATM    5  C7  UNL     1      30.893   9.775  43.388  1.00  0.00     0.187 C 
HETATM    6  O1  UNL     1      31.586   8.598  43.462  1.00  0.00    -0.389 OA
HETATM    7  C8  UNL     1      32.838   8.733  42.850  1.00  0.00     0.171 C 
HETATM    8  C9  UNL     1      33.539   7.419  43.148  1.00  0.00     0.005 C 
HETATM    9  C10 UNL     1      34.933   7.451  42.549  1.00  0.00     0.012 C 
HETATM   10  C11 UNL     1      32.713   6.309  42.526  1.00  0.00     0.010 C 
HETATM   11  C12 UNL     1      33.287   4.963  43.022  1.00  0.00     0.027 C 
HETATM   12  C13 UNL     1      33.166   4.925  44.511  1.00  0.00    -0.026 C 
HETATM   13  C14 UNL     1      33.566   4.847  45.793  1.00  0.00     0.007 C 
HETATM   14  C15 UNL     1      32.510   4.913  46.837  1.00  0.00    -0.035 A 
HETATM   15  C16 UNL     1      31.664   4.815  47.815  1.00  0.00     0.024 A 
HETATM   16  C17 UNL     1      30.910   5.987  47.477  1.00  0.00    -0.018 A 
HETATM   17  C18 UNL     1      31.733   6.131  46.485  1.00  0.00     0.024 A 
HETATM   18  C19 UNL     1      29.760   6.667  47.982  1.00  0.00     0.059 A 
HETATM   19  C20 UNL     1      29.553   7.953  48.101  1.00  0.00     0.056 A 
HETATM   20  C21 UNL     1      28.196   8.110  48.667  1.00  0.00     0.260 A 
HETATM   21  O2  UNL     1      27.446   9.092  49.000  1.00  0.00    -0.267 OA
HETATM   22  N2  UNL     1      27.605   6.810  48.879  1.00  0.00    -0.289 N 
HETATM   23  C22 UNL     1      28.614   5.897  48.438  1.00  0.00     0.260 A 
HETATM   24  O3  UNL     1      28.386   4.651  48.502  1.00  0.00    -0.267 OA
HETATM   25  H7  UNL     1      29.463   8.083  45.634  1.00  0.00     0.158 HD
HETATM   26  H26 UNL     1      26.648   6.553  49.268  1.00  0.00     0.172 HD
ENDROOT
BRANCH   1  27
HETATM   27  C3  UNL     1      30.916   9.966  48.902  1.00  0.00     0.067 C 
BRANCH  27  28
HETATM   28  C2  UNL     1      31.027  11.406  48.624  1.00  0.00    -0.032 C 
HETATM   29  C1  UNL     1      30.552  12.499  49.212  1.00  0.00     0.007 C 
ENDBRANCH  27  28
ENDBRANCH   1  27
TORSDOF 2
ENDMDL
MODEL 8
REMARK VINA RESULT:      -7.0      3.700      7.966
REMARK  2 active torsions:
REMARK  status: ('A' for Active; 'I' for Inactive)
REMARK    1  A    between atoms: C2_2  and  C3_3 
REMARK    2  A    between atoms: C3_3  and  C4_4 
ROOT
HETATM    1  C4  UNL     1      20.753   1.316  50.361  1.00  0.00    -0.023 C 
HETATM    2  C5  UNL     1      19.937   2.332  50.141  1.00  0.00     0.091 C 
HETATM    3  N1  UNL     1      19.285   3.125  51.102  1.00  0.00    -0.396 N 
HETATM    4  C6  UNL     1      18.558   4.365  51.077  1.00  0.00     0.145 C 
HETATM    5  C7  UNL     1      17.265   4.205  50.281  1.00  0.00     0.187 C 
HETATM    6  O1  UNL     1      16.575   3.183  50.874  1.00  0.00    -0.389 OA
HETATM    7  C8  UNL     1      15.370   2.956  50.199  1.00  0.00     0.171 C 
HETATM    8  C9  UNL     1      14.803   1.713  50.863  1.00  0.00     0.005 C 
HETATM    9  C10 UNL     1      13.490   1.346  50.195  1.00  0.00     0.012 C 
HETATM   10  C11 UNL     1      14.587   2.037  52.330  1.00  0.00     0.010 C 
HETATM   11  C12 UNL     1      14.236   0.718  53.054  1.00  0.00     0.027 C 
HETATM   12  C13 UNL     1      15.389  -0.221  52.896  1.00  0.00    -0.026 C 
HETATM   13  C14 UNL     1      16.049  -1.334  52.529  1.00  0.00     0.007 C 
HETATM   14  C15 UNL     1      17.496  -1.403  52.859  1.00  0.00    -0.035 A 
HETATM   15  C16 UNL     1      18.720  -1.627  53.224  1.00  0.00     0.024 A 
HETATM   16  C17 UNL     1      19.255  -0.399  52.713  1.00  0.00    -0.018 A 
HETATM   17  C18 UNL     1      18.048  -0.130  52.325  1.00  0.00     0.024 A 
HETATM   18  C19 UNL     1      20.528   0.247  52.677  1.00  0.00     0.059 A 
HETATM   19  C20 UNL     1      21.078   0.924  51.701  1.00  0.00     0.056 A 
HETATM   20  C21 UNL     1      22.392   1.385  52.199  1.00  0.00     0.260 A 
HETATM   21  O2  UNL     1      23.364   2.072  51.728  1.00  0.00    -0.267 OA
HETATM   22  N2  UNL     1      22.585   0.929  53.555  1.00  0.00    -0.289 N 
HETATM   23  C22 UNL     1      21.389   0.203  53.848  1.00  0.00     0.260 A 
HETATM   24  O3  UNL     1      21.258  -0.330  54.991  1.00  0.00    -0.267 OA
HETATM   25  H7  UNL     1      19.371   2.675  52.062  1.00  0.00     0.158 HD
HETATM   26  H26 UNL     1      23.410   1.079  54.212  1.00  0.00     0.172 HD
ENDROOT
BRANCH   1  27
HETATM   27  C3  UNL     1      21.316   0.629  49.170  1.00  0.00     0.067 C 
BRANCH  27  28
HETATM   28  C2  UNL     1      21.903   1.526  48.162  1.00  0.00    -0.032 C 
HETATM   29  C1  UNL     1      22.825   2.482  48.203  1.00  0.00     0.007 C 
ENDBRANCH  27  28
ENDBRANCH   1  27
TORSDOF 2
ENDMDL
MODEL 9
REMARK VINA RESULT:      -6.8      2.495      6.055
REMARK  2 active torsions:
REMARK  status: ('A' for Active; 'I' for Inactive)
REMARK    1  A    between atoms: C2_2  and  C3_3 
REMARK    2  A    between atoms: C3_3  and  C4_4 
ROOT
HETATM    1  C4  UNL     1      21.210   1.225  52.012  1.00  0.00    -0.023 C 
HETATM    2  C5  UNL     1      20.974   1.247  50.712  1.00  0.00     0.091 C 
HETATM    3  N1  UNL     1      21.920   1.329  49.676  1.00  0.00    -0.396 N 
HETATM    4  C6  UNL     1      21.887   1.153  48.249  1.00  0.00     0.145 C 
HETATM    5  C7  UNL     1      21.030   2.237  47.601  1.00  0.00     0.187 C 
HETATM    6  O1  UNL     1      21.571   3.433  47.987  1.00  0.00    -0.389 OA
HETATM    7  C8  UNL     1      20.838   4.495  47.445  1.00  0.00     0.171 C 
HETATM    8  C9  UNL     1      21.451   5.731  48.080  1.00  0.00     0.005 C 
HETATM    9  C10 UNL     1      20.716   6.963  47.583  1.00  0.00     0.012 C 
HETATM   10  C11 UNL     1      22.912   5.776  47.675  1.00  0.00     0.010 C 
HETATM   11  C12 UNL     1      23.593   6.889  48.502  1.00  0.00     0.027 C 
HETATM   12  C13 UNL     1      23.468   6.537  49.950  1.00  0.00    -0.026 C 
HETATM   13  C14 UNL     1      23.109   6.671  51.238  1.00  0.00     0.007 C 
HETATM   14  C15 UNL     1      23.503   5.580  52.168  1.00  0.00    -0.035 A 
HETATM   15  C16 UNL     1      23.919   4.763  53.085  1.00  0.00     0.024 A 
HETATM   16  C17 UNL     1      23.457   3.567  52.439  1.00  0.00    -0.018 A 
HETATM   17  C18 UNL     1      23.020   4.344  51.497  1.00  0.00     0.024 A 
HETATM   18  C19 UNL     1      23.492   2.164  52.698  1.00  0.00     0.059 A 
HETATM   19  C20 UNL     1      22.556   1.270  52.506  1.00  0.00     0.056 A 
HETATM   20  C21 UNL     1      23.121  -0.028  52.931  1.00  0.00     0.260 A 
HETATM   21  O2  UNL     1      22.709  -1.239  52.980  1.00  0.00    -0.267 OA
HETATM   22  N2  UNL     1      24.475   0.160  53.395  1.00  0.00    -0.289 N 
HETATM   23  C22 UNL     1      24.700   1.564  53.242  1.00  0.00     0.260 A 
HETATM   24  O3  UNL     1      25.825   2.046  53.573  1.00  0.00    -0.267 OA
HETATM   25  H7  UNL     1      22.874   1.580  50.074  1.00  0.00     0.158 HD
HETATM   26  H26 UNL     1      25.171  -0.553  53.768  1.00  0.00     0.172 HD
ENDROOT
BRANCH   1  27
HETATM   27  C3  UNL     1      20.033   1.138  52.914  1.00  0.00     0.067 C 
BRANCH  27  28
HETATM   28  C2  UNL     1      19.332  -0.155  52.888  1.00  0.00    -0.032 C 
HETATM   29  C1  UNL     1      18.189  -0.575  52.355  1.00  0.00     0.007 C 
ENDBRANCH  27  28
ENDBRANCH   1  27
TORSDOF 2
ENDMDL
