MODEL 1
REMARK VINA RESULT:      -8.2      0.000      0.000
REMARK  1 active torsions:
REMARK  status: ('A' for Active; 'I' for Inactive)
REMARK    1  A    between atoms: C1_2  and  C2_3 
ROOT
HETATM    1  C2  UNL     1      25.002   2.237  51.449  1.00  0.00     0.089 C 
HETATM    2  C3  UNL     1      23.776   1.824  51.206  1.00  0.00     0.008 A 
HETATM    3  C4  UNL     1      23.161   2.364  49.984  1.00  0.00     0.015 A 
HETATM    4  C5  UNL     1      21.937   1.878  49.852  1.00  0.00     0.002 A 
HETATM    5  C6  UNL     1      21.725   1.003  50.992  1.00  0.00     0.015 A 
HETATM    6  C7  UNL     1      22.796   0.954  51.807  1.00  0.00     0.006 A 
HETATM    7  C8  UNL     1      22.845   0.164  53.024  1.00  0.00     0.088 A 
HETATM    8  C9  UNL     1      21.697  -0.216  53.672  1.00  0.00     0.053 A 
HETATM    9  C10 UNL     1      21.616  -0.959  54.827  1.00  0.00     0.139 A 
HETATM   10  N1  UNL     1      22.821  -1.345  55.362  1.00  0.00    -0.075 NA
HETATM   11  C11 UNL     1      23.936  -0.973  54.729  1.00  0.00     0.723 A 
HETATM   12  N2  UNL     1      23.984  -0.236  53.584  1.00  0.00    -0.062 NA
HETATM   13  N3  UNL     1      25.364  -1.067  54.842  1.00  0.00    -0.215 N 
HETATM   14  C12 UNL     1      26.332  -0.011  55.056  1.00  0.00     0.133 C 
HETATM   15  C13 UNL     1      26.819   1.086  54.450  1.00  0.00     0.083 C 
HETATM   16  C14 UNL     1      26.720   1.959  53.199  1.00  0.00     0.320 C 
HETATM   17  F2  UNL     1      27.807   1.666  52.422  1.00  0.00    -0.219 F 
HETATM   18  O1  UNL     1      25.494   1.687  52.590  1.00  0.00    -0.316 OA
HETATM   19  H8  UNL     1      25.403  -2.080  54.721  1.00  0.00     0.178 HD
ENDROOT
BRANCH   1  20
HETATM   20  C1  UNL     1      25.943   3.137  50.781  1.00  0.00     0.287 C 
HETATM   21  F1  UNL     1      26.554   2.663  49.667  1.00  0.00    -0.248 F 
ENDBRANCH   1  20
TORSDOF 1
ENDMDL
MODEL 2
REMARK VINA RESULT:      -8.1      2.787      4.203
REMARK  1 active torsions:
REMARK  status: ('A' for Active; 'I' for Inactive)
REMARK    1  A    between atoms: C1_2  and  C2_3 
ROOT
HETATM    1  C2  UNL     1      22.021   1.505  52.522  1.00  0.00     0.089 C 
HETATM    2  C3  UNL     1      23.089   1.919  51.871  1.00  0.00     0.008 A 
HETATM    3  C4  UNL     1      22.855   3.002  50.904  1.00  0.00     0.015 A 
HETATM    4  C5  UNL     1      23.996   3.327  50.318  1.00  0.00     0.002 A 
HETATM    5  C6  UNL     1      25.007   2.458  50.895  1.00  0.00     0.015 A 
HETATM    6  C7  UNL     1      24.497   1.616  51.814  1.00  0.00     0.006 A 
HETATM    7  C8  UNL     1      25.289   0.636  52.535  1.00  0.00     0.088 A 
HETATM    8  C9  UNL     1      26.479   0.176  52.033  1.00  0.00     0.053 A 
HETATM    9  C10 UNL     1      27.313  -0.748  52.619  1.00  0.00     0.139 A 
HETATM   10  N1  UNL     1      26.885  -1.243  53.827  1.00  0.00    -0.075 NA
HETATM   11  C11 UNL     1      25.725  -0.793  54.312  1.00  0.00     0.723 A 
HETATM   12  N2  UNL     1      24.920   0.126  53.707  1.00  0.00    -0.062 NA
HETATM   13  N3  UNL     1      24.846  -0.967  55.433  1.00  0.00    -0.215 N 
HETATM   14  C12 UNL     1      23.498  -1.497  55.461  1.00  0.00     0.133 C 
HETATM   15  C13 UNL     1      22.265  -1.217  55.005  1.00  0.00     0.083 C 
HETATM   16  C14 UNL     1      21.441  -0.221  54.188  1.00  0.00     0.320 C 
HETATM   17  F2  UNL     1      20.733   0.536  55.079  1.00  0.00    -0.219 F 
HETATM   18  O1  UNL     1      22.328   0.511  53.396  1.00  0.00    -0.316 OA
HETATM   19  H8  UNL     1      25.499  -0.598  56.125  1.00  0.00     0.178 HD
ENDROOT
BRANCH   1  20
HETATM   20  C1  UNL     1      20.604   1.867  52.522  1.00  0.00     0.287 C 
HETATM   21  F1  UNL     1      20.292   3.114  52.955  1.00  0.00    -0.248 F 
ENDBRANCH   1  20
TORSDOF 1
ENDMDL
MODEL 3
REMARK VINA RESULT:      -7.9      1.255      2.039
REMARK  1 active torsions:
REMARK  status: ('A' for Active; 'I' for Inactive)
REMARK    1  A    between atoms: C1_2  and  C2_3 
ROOT
HETATM    1  C2  UNL     1      23.555   2.048  50.817  1.00  0.00     0.089 C 
HETATM    2  C3  UNL     1      22.610   1.265  51.293  1.00  0.00     0.008 A 
HETATM    3  C4  UNL     1      21.306   1.373  50.621  1.00  0.00     0.015 A 
HETATM    4  C5  UNL     1      20.445   0.542  51.187  1.00  0.00     0.002 A 
HETATM    5  C6  UNL     1      21.173  -0.132  52.248  1.00  0.00     0.015 A 
HETATM    6  C7  UNL     1      22.454   0.278  52.332  1.00  0.00     0.006 A 
HETATM    7  C8  UNL     1      23.398  -0.228  53.312  1.00  0.00     0.088 A 
HETATM    8  C9  UNL     1      22.969  -0.794  54.486  1.00  0.00     0.053 A 
HETATM    9  C10 UNL     1      23.763  -1.304  55.487  1.00  0.00     0.139 A 
HETATM   10  N1  UNL     1      25.116  -1.226  55.261  1.00  0.00    -0.075 NA
HETATM   11  C11 UNL     1      25.529  -0.673  54.118  1.00  0.00     0.723 A 
HETATM   12  N2  UNL     1      24.717  -0.177  53.143  1.00  0.00    -0.062 NA
HETATM   13  N3  UNL     1      26.736  -0.334  53.419  1.00  0.00    -0.215 N 
HETATM   14  C12 UNL     1      27.246   0.975  53.066  1.00  0.00     0.133 C 
HETATM   15  C13 UNL     1      26.937   2.035  52.298  1.00  0.00     0.083 C 
HETATM   16  C14 UNL     1      25.908   2.598  51.317  1.00  0.00     0.320 C 
HETATM   17  F2  UNL     1      26.450   2.490  50.067  1.00  0.00    -0.219 F 
HETATM   18  O1  UNL     1      24.723   1.881  51.490  1.00  0.00    -0.316 OA
HETATM   19  H8  UNL     1      27.047  -1.297  53.290  1.00  0.00     0.178 HD
ENDROOT
BRANCH   1  20
HETATM   20  C1  UNL     1      23.635   3.040  49.745  1.00  0.00     0.287 C 
HETATM   21  F1  UNL     1      23.581   2.570  48.474  1.00  0.00    -0.248 F 
ENDBRANCH   1  20
TORSDOF 1
ENDMDL
MODEL 4
REMARK VINA RESULT:      -7.9      2.311      4.495
REMARK  1 active torsions:
REMARK  status: ('A' for Active; 'I' for Inactive)
REMARK    1  A    between atoms: C1_2  and  C2_3 
ROOT
HETATM    1  C2  UNL     1      24.418  -0.557  54.268  1.00  0.00     0.089 C 
HETATM    2  C3  UNL     1      23.184  -0.428  53.828  1.00  0.00     0.008 A 
HETATM    3  C4  UNL     1      22.172  -1.207  54.558  1.00  0.00     0.015 A 
HETATM    4  C5  UNL     1      20.979  -0.994  54.024  1.00  0.00     0.002 A 
HETATM    5  C6  UNL     1      21.188  -0.066  52.926  1.00  0.00     0.015 A 
HETATM    6  C7  UNL     1      22.482   0.283  52.789  1.00  0.00     0.006 A 
HETATM    7  C8  UNL     1      22.966   1.190  51.764  1.00  0.00     0.088 A 
HETATM    8  C9  UNL     1      22.260   1.396  50.606  1.00  0.00     0.053 A 
HETATM    9  C10 UNL     1      22.615   2.224  49.566  1.00  0.00     0.139 A 
HETATM   10  N1  UNL     1      23.800   2.900  49.732  1.00  0.00    -0.075 NA
HETATM   11  C11 UNL     1      24.484   2.696  50.860  1.00  0.00     0.723 A 
HETATM   12  N2  UNL     1      24.105   1.869  51.874  1.00  0.00    -0.062 NA
HETATM   13  N3  UNL     1      25.704   3.089  51.508  1.00  0.00    -0.215 N 
HETATM   14  C12 UNL     1      26.856   2.279  51.849  1.00  0.00     0.133 C 
HETATM   15  C13 UNL     1      27.198   1.245  52.638  1.00  0.00     0.083 C 
HETATM   16  C14 UNL     1      26.674   0.244  53.668  1.00  0.00     0.320 C 
HETATM   17  F2  UNL     1      27.110   0.668  54.892  1.00  0.00    -0.219 F 
HETATM   18  O1  UNL     1      25.284   0.197  53.543  1.00  0.00    -0.316 OA
HETATM   19  H8  UNL     1      25.444   4.070  51.615  1.00  0.00     0.178 HD
ENDROOT
BRANCH   1  20
HETATM   20  C1  UNL     1      25.060  -1.313  55.344  1.00  0.00     0.287 C 
HETATM   21  F1  UNL     1      24.793  -0.914  56.612  1.00  0.00    -0.248 F 
ENDBRANCH   1  20
TORSDOF 1
ENDMDL
MODEL 5
REMARK VINA RESULT:      -7.7      2.197      4.470
REMARK  1 active torsions:
REMARK  status: ('A' for Active; 'I' for Inactive)
REMARK    1  A    between atoms: C1_2  and  C2_3 
ROOT
HETATM    1  C2  UNL     1      25.209   0.349  53.379  1.00  0.00     0.089 C 
HETATM    2  C3  UNL     1      23.940  -0.000  53.392  1.00  0.00     0.008 A 
HETATM    3  C4  UNL     1      23.540  -0.882  54.499  1.00  0.00     0.015 A 
HETATM    4  C5  UNL     1      22.249  -1.160  54.402  1.00  0.00     0.002 A 
HETATM    5  C6  UNL     1      21.775  -0.460  53.221  1.00  0.00     0.015 A 
HETATM    6  C7  UNL     1      22.754   0.232  52.606  1.00  0.00     0.006 A 
HETATM    7  C8  UNL     1      22.551   1.012  51.398  1.00  0.00     0.088 A 
HETATM    8  C9  UNL     1      21.507   0.748  50.549  1.00  0.00     0.053 A 
HETATM    9  C10 UNL     1      21.214   1.412  49.380  1.00  0.00     0.139 A 
HETATM   10  N1  UNL     1      22.070   2.436  49.056  1.00  0.00    -0.075 NA
HETATM   11  C11 UNL     1      23.086   2.689  49.885  1.00  0.00     0.723 A 
HETATM   12  N2  UNL     1      23.350   2.013  51.038  1.00  0.00    -0.062 NA
HETATM   13  N3  UNL     1      24.218   3.560  50.023  1.00  0.00    -0.215 N 
HETATM   14  C12 UNL     1      25.629   3.230  50.010  1.00  0.00     0.133 C 
HETATM   15  C13 UNL     1      26.537   2.537  50.719  1.00  0.00     0.083 C 
HETATM   16  C14 UNL     1      26.739   1.659  51.954  1.00  0.00     0.320 C 
HETATM   17  F2  UNL     1      27.340   2.439  52.903  1.00  0.00    -0.219 F 
HETATM   18  O1  UNL     1      25.489   1.165  52.330  1.00  0.00    -0.316 OA
HETATM   19  H8  UNL     1      23.670   4.415  50.125  1.00  0.00     0.178 HD
ENDROOT
BRANCH   1  20
HETATM   20  C1  UNL     1      26.369   0.064  54.225  1.00  0.00     0.287 C 
HETATM   21  F1  UNL     1      26.359   0.594  55.473  1.00  0.00    -0.248 F 
ENDBRANCH   1  20
TORSDOF 1
ENDMDL
MODEL 6
REMARK VINA RESULT:      -7.6      2.832      4.547
REMARK  1 active torsions:
REMARK  status: ('A' for Active; 'I' for Inactive)
REMARK    1  A    between atoms: C1_2  and  C2_3 
ROOT
HETATM    1  C2  UNL     1      23.166   0.169  53.488  1.00  0.00     0.089 C 
HETATM    2  C3  UNL     1      22.626   1.132  52.771  1.00  0.00     0.008 A 
HETATM    3  C4  UNL     1      21.165   1.262  52.889  1.00  0.00     0.015 A 
HETATM    4  C5  UNL     1      20.745   2.259  52.126  1.00  0.00     0.002 A 
HETATM    5  C6  UNL     1      21.931   2.805  51.488  1.00  0.00     0.015 A 
HETATM    6  C7  UNL     1      23.054   2.157  51.852  1.00  0.00     0.006 A 
HETATM    7  C8  UNL     1      24.375   2.494  51.353  1.00  0.00     0.088 A 
HETATM    8  C9  UNL     1      24.537   3.162  50.166  1.00  0.00     0.053 A 
HETATM    9  C10 UNL     1      25.731   3.534  49.591  1.00  0.00     0.139 A 
HETATM   10  N1  UNL     1      26.856   3.188  50.300  1.00  0.00    -0.075 NA
HETATM   11  C11 UNL     1      26.694   2.538  51.455  1.00  0.00     0.723 A 
HETATM   12  N2  UNL     1      25.496   2.184  51.999  1.00  0.00    -0.062 NA
HETATM   13  N3  UNL     1      27.459   1.953  52.519  1.00  0.00    -0.215 N 
HETATM   14  C12 UNL     1      27.563   0.562  52.909  1.00  0.00     0.133 C 
HETATM   15  C13 UNL     1      26.806  -0.437  53.396  1.00  0.00     0.083 C 
HETATM   16  C14 UNL     1      25.398  -0.814  53.858  1.00  0.00     0.320 C 
HETATM   17  F2  UNL     1      25.423  -0.845  55.224  1.00  0.00    -0.219 F 
HETATM   18  O1  UNL     1      24.513   0.124  53.324  1.00  0.00    -0.316 OA
HETATM   19  H8  UNL     1      27.854   2.835  52.849  1.00  0.00     0.178 HD
ENDROOT
BRANCH   1  20
HETATM   20  C1  UNL     1      22.654  -0.846  54.409  1.00  0.00     0.287 C 
HETATM   21  F1  UNL     1      22.000  -1.898  53.855  1.00  0.00    -0.248 F 
ENDBRANCH   1  20
TORSDOF 1
ENDMDL
MODEL 7
REMARK VINA RESULT:      -7.5      2.452      4.174
REMARK  1 active torsions:
REMARK  status: ('A' for Active; 'I' for Inactive)
REMARK    1  A    between atoms: C1_2  and  C2_3 
ROOT
HETATM    1  C2  UNL     1      23.000   2.258  50.797  1.00  0.00     0.089 C 
HETATM    2  C3  UNL     1      24.291   2.504  50.719  1.00  0.00     0.008 A 
HETATM    3  C4  UNL     1      24.666   3.631  49.853  1.00  0.00     0.015 A 
HETATM    4  C5  UNL     1      25.982   3.776  49.859  1.00  0.00     0.002 A 
HETATM    5  C6  UNL     1      26.498   2.739  50.735  1.00  0.00     0.015 A 
HETATM    6  C7  UNL     1      25.519   1.974  51.256  1.00  0.00     0.006 A 
HETATM    7  C8  UNL     1      25.762   0.860  52.155  1.00  0.00     0.088 A 
HETATM    8  C9  UNL     1      26.975   0.221  52.183  1.00  0.00     0.053 A 
HETATM    9  C10 UNL     1      27.322  -0.842  52.986  1.00  0.00     0.139 A 
HETATM   10  N1  UNL     1      26.336  -1.285  53.833  1.00  0.00    -0.075 NA
HETATM   11  C11 UNL     1      25.156  -0.660  53.802  1.00  0.00     0.723 A 
HETATM   12  N2  UNL     1      24.842   0.392  52.995  1.00  0.00    -0.062 NA
HETATM   13  N3  UNL     1      23.854  -0.711  54.404  1.00  0.00    -0.215 N 
HETATM   14  C12 UNL     1      22.577  -1.011  53.791  1.00  0.00     0.133 C 
HETATM   15  C13 UNL     1      21.729  -0.521  52.869  1.00  0.00     0.083 C 
HETATM   16  C14 UNL     1      21.504   0.616  51.871  1.00  0.00     0.320 C 
HETATM   17  F2  UNL     1      20.585   1.459  52.430  1.00  0.00    -0.219 F 
HETATM   18  O1  UNL     1      22.743   1.208  51.619  1.00  0.00    -0.316 OA
HETATM   19  H8  UNL     1      24.174  -0.470  55.344  1.00  0.00     0.178 HD
ENDROOT
BRANCH   1  20
HETATM   20  C1  UNL     1      21.797   2.850  50.210  1.00  0.00     0.287 C 
HETATM   21  F1  UNL     1      21.322   3.976  50.798  1.00  0.00    -0.248 F 
ENDBRANCH   1  20
TORSDOF 1
ENDMDL
MODEL 8
REMARK VINA RESULT:      -7.3      2.872      5.091
REMARK  1 active torsions:
REMARK  status: ('A' for Active; 'I' for Inactive)
REMARK    1  A    between atoms: C1_2  and  C2_3 
ROOT
HETATM    1  C2  UNL     1      22.181   1.771  52.184  1.00  0.00     0.089 C 
HETATM    2  C3  UNL     1      22.794   0.860  52.911  1.00  0.00     0.008 A 
HETATM    3  C4  UNL     1      21.913  -0.123  53.560  1.00  0.00     0.015 A 
HETATM    4  C5  UNL     1      22.643  -0.980  54.257  1.00  0.00     0.002 A 
HETATM    5  C6  UNL     1      24.025  -0.573  54.076  1.00  0.00     0.015 A 
HETATM    6  C7  UNL     1      24.141   0.512  53.286  1.00  0.00     0.006 A 
HETATM    7  C8  UNL     1      25.411   1.131  52.952  1.00  0.00     0.088 A 
HETATM    8  C9  UNL     1      26.515   0.964  53.749  1.00  0.00     0.053 A 
HETATM    9  C10 UNL     1      27.765   1.499  53.539  1.00  0.00     0.139 A 
HETATM   10  N1  UNL     1      27.891   2.273  52.411  1.00  0.00    -0.075 NA
HETATM   11  C11 UNL     1      26.814   2.434  51.639  1.00  0.00     0.723 A 
HETATM   12  N2  UNL     1      25.587   1.889  51.872  1.00  0.00    -0.062 NA
HETATM   13  N3  UNL     1      26.394   3.107  50.442  1.00  0.00    -0.215 N 
HETATM   14  C12 UNL     1      25.420   4.169  50.288  1.00  0.00     0.133 C 
HETATM   15  C13 UNL     1      24.104   4.398  50.442  1.00  0.00     0.083 C 
HETATM   16  C14 UNL     1      22.776   3.767  50.859  1.00  0.00     0.320 C 
HETATM   17  F2  UNL     1      22.081   3.507  49.711  1.00  0.00    -0.219 F 
HETATM   18  O1  UNL     1      23.067   2.632  51.619  1.00  0.00    -0.316 OA
HETATM   19  H8  UNL     1      27.002   2.578  49.816  1.00  0.00     0.178 HD
ENDROOT
BRANCH   1  20
HETATM   20  C1  UNL     1      20.787   2.063  51.850  1.00  0.00     0.287 C 
HETATM   21  F1  UNL     1      20.039   2.651  52.816  1.00  0.00    -0.248 F 
ENDBRANCH   1  20
TORSDOF 1
ENDMDL
MODEL 9
REMARK VINA RESULT:      -7.3      2.032      3.959
REMARK  1 active torsions:
REMARK  status: ('A' for Active; 'I' for Inactive)
REMARK    1  A    between atoms: C1_2  and  C2_3 
ROOT
HETATM    1  C2  UNL     1      25.435   2.104  51.473  1.00  0.00     0.089 C 
HETATM    2  C3  UNL     1      25.514   1.046  52.254  1.00  0.00     0.008 A 
HETATM    3  C4  UNL     1      26.873   0.532  52.481  1.00  0.00     0.015 A 
HETATM    4  C5  UNL     1      26.819  -0.525  53.277  1.00  0.00     0.002 A 
HETATM    5  C6  UNL     1      25.415  -0.724  53.589  1.00  0.00     0.015 A 
HETATM    6  C7  UNL     1      24.623   0.190  52.996  1.00  0.00     0.006 A 
HETATM    7  C8  UNL     1      23.178   0.213  53.134  1.00  0.00     0.088 A 
HETATM    8  C9  UNL     1      22.479  -0.917  53.477  1.00  0.00     0.053 A 
HETATM    9  C10 UNL     1      21.116  -1.020  53.635  1.00  0.00     0.139 A 
HETATM   10  N1  UNL     1      20.410   0.139  53.421  1.00  0.00    -0.075 NA
HETATM   11  C11 UNL     1      21.094   1.236  53.086  1.00  0.00     0.723 A 
HETATM   12  N2  UNL     1      22.447   1.307  52.938  1.00  0.00    -0.062 NA
HETATM   13  N3  UNL     1      20.888   2.615  52.746  1.00  0.00    -0.215 N 
HETATM   14  C12 UNL     1      21.143   3.292  51.491  1.00  0.00     0.133 C 
HETATM   15  C13 UNL     1      22.166   3.626  50.683  1.00  0.00     0.083 C 
HETATM   16  C14 UNL     1      23.681   3.543  50.503  1.00  0.00     0.320 C 
HETATM   17  F2  UNL     1      24.186   4.776  50.811  1.00  0.00    -0.219 F 
HETATM   18  O1  UNL     1      24.149   2.514  51.322  1.00  0.00    -0.316 OA
HETATM   19  H8  UNL     1      20.526   2.887  53.661  1.00  0.00     0.178 HD
ENDROOT
BRANCH   1  20
HETATM   20  C1  UNL     1      26.401   2.926  50.744  1.00  0.00     0.287 C 
HETATM   21  F1  UNL     1      26.651   2.577  49.457  1.00  0.00    -0.248 F 
ENDBRANCH   1  20
TORSDOF 1
ENDMDL
