MODEL 1
REMARK VINA RESULT:      -8.1      0.000      0.000
REMARK  1 active torsions:
REMARK  status: ('A' for Active; 'I' for Inactive)
REMARK    1  A    between atoms: C10_13  and  C11_14 
ROOT
HETATM    1  O1  UNL     1      21.905   1.163  47.803  1.00  0.00    -0.296 OA
HETATM    2  C1  UNL     1      22.048   1.703  48.884  1.00  0.00     0.150 C 
HETATM    3  C2  UNL     1      21.490   1.729  50.270  1.00  0.00     0.081 C 
HETATM    4  C3  UNL     1      22.349   1.037  51.255  1.00  0.00     0.010 C 
HETATM    5  C4  UNL     1      22.230   1.645  52.678  1.00  0.00     0.040 C 
HETATM    6  C5  UNL     1      22.926   2.930  52.617  1.00  0.00     0.194 C 
HETATM    7  O2  UNL     1      22.317   3.733  51.587  1.00  0.00    -0.374 OA
HETATM    8  C6  UNL     1      22.551   5.075  52.068  1.00  0.00     0.198 C 
HETATM    9  C7  UNL     1      23.916   5.400  51.447  1.00  0.00     0.033 C 
HETATM   10  C8  UNL     1      24.188   4.366  50.593  1.00  0.00     0.068 C 
HETATM   11  C9  UNL     1      25.378   3.974  49.679  1.00  0.00     0.233 C 
HETATM   12  O3  UNL     1      25.673   2.679  50.216  1.00  0.00    -0.367 OA
HETATM   13  C10 UNL     1      25.831   2.748  51.573  1.00  0.00     0.227 C 
HETATM   14  C17 UNL     1      24.413   2.771  52.265  1.00  0.00     0.188 C 
HETATM   15  O4  UNL     1      24.705   2.323  53.382  1.00  0.00    -0.292 OA
HETATM   16  O5  UNL     1      23.435   3.249  50.182  1.00  0.00    -0.346 OA
HETATM   17  C18 UNL     1      23.158   2.729  48.963  1.00  0.00     0.253 C 
ENDROOT
BRANCH  13  18
HETATM   18  C11 UNL     1      26.664   1.785  52.157  1.00  0.00    -0.022 A 
HETATM   19  C12 UNL     1      26.400   0.458  51.994  1.00  0.00     0.010 A 
HETATM   20  C13 UNL     1      27.209  -0.524  52.561  1.00  0.00     0.001 A 
HETATM   21  C14 UNL     1      28.310  -0.116  53.308  1.00  0.00     0.000 A 
HETATM   22  C15 UNL     1      28.607   1.225  53.493  1.00  0.00     0.001 A 
HETATM   23  C16 UNL     1      27.772   2.171  52.911  1.00  0.00     0.010 A 
ENDBRANCH  13  18
TORSDOF 1
ENDMDL
MODEL 2
REMARK VINA RESULT:      -7.8      1.759      3.129
REMARK  1 active torsions:
REMARK  status: ('A' for Active; 'I' for Inactive)
REMARK    1  A    between atoms: C10_13  and  C11_14 
ROOT
HETATM    1  O1  UNL     1      24.300   6.181  48.195  1.00  0.00    -0.296 OA
HETATM    2  C1  UNL     1      23.532   5.342  48.629  1.00  0.00     0.150 C 
HETATM    3  C2  UNL     1      22.663   4.207  48.197  1.00  0.00     0.081 C 
HETATM    4  C3  UNL     1      23.233   2.882  48.525  1.00  0.00     0.010 C 
HETATM    5  C4  UNL     1      22.139   1.812  48.784  1.00  0.00     0.040 C 
HETATM    6  C5  UNL     1      21.557   2.149  50.083  1.00  0.00     0.194 C 
HETATM    7  O2  UNL     1      21.052   3.497  50.023  1.00  0.00    -0.374 OA
HETATM    8  C6  UNL     1      19.969   3.460  50.978  1.00  0.00     0.198 C 
HETATM    9  C7  UNL     1      20.684   3.837  52.283  1.00  0.00     0.033 C 
HETATM   10  C8  UNL     1      21.948   4.209  51.915  1.00  0.00     0.068 C 
HETATM   11  C9  UNL     1      23.231   4.650  52.668  1.00  0.00     0.233 C 
HETATM   12  O3  UNL     1      24.142   3.655  52.185  1.00  0.00    -0.367 OA
HETATM   13  C10 UNL     1      23.625   2.403  52.368  1.00  0.00     0.227 C 
HETATM   14  C17 UNL     1      22.592   2.089  51.217  1.00  0.00     0.188 C 
HETATM   15  O4  UNL     1      22.630   0.852  51.217  1.00  0.00    -0.292 OA
HETATM   16  O5  UNL     1      22.564   4.372  50.659  1.00  0.00    -0.346 OA
HETATM   17  C18 UNL     1      23.304   5.373  50.125  1.00  0.00     0.253 C 
ENDROOT
BRANCH  13  18
HETATM   18  C11 UNL     1      24.547   1.359  52.518  1.00  0.00    -0.022 A 
HETATM   19  C12 UNL     1      25.679   1.328  51.758  1.00  0.00     0.010 A 
HETATM   20  C13 UNL     1      26.616   0.304  51.884  1.00  0.00     0.001 A 
HETATM   21  C14 UNL     1      26.369  -0.700  52.816  1.00  0.00     0.000 A 
HETATM   22  C15 UNL     1      25.229  -0.698  53.603  1.00  0.00     0.001 A 
HETATM   23  C16 UNL     1      24.321   0.341  53.444  1.00  0.00     0.010 A 
ENDBRANCH  13  18
TORSDOF 1
ENDMDL
MODEL 3
REMARK VINA RESULT:      -7.4      2.557      4.120
REMARK  1 active torsions:
REMARK  status: ('A' for Active; 'I' for Inactive)
REMARK    1  A    between atoms: C10_13  and  C11_14 
ROOT
HETATM    1  O1  UNL     1      19.597   5.818  49.774  1.00  0.00    -0.296 OA
HETATM    2  C1  UNL     1      20.711   5.519  50.161  1.00  0.00     0.150 C 
HETATM    3  C2  UNL     1      21.788   5.959  51.098  1.00  0.00     0.081 C 
HETATM    4  C3  UNL     1      21.873   5.126  52.318  1.00  0.00     0.010 C 
HETATM    5  C4  UNL     1      23.314   5.051  52.888  1.00  0.00     0.040 C 
HETATM    6  C5  UNL     1      24.059   4.195  51.965  1.00  0.00     0.194 C 
HETATM    7  O2  UNL     1      23.982   4.769  50.645  1.00  0.00    -0.374 OA
HETATM    8  C6  UNL     1      25.218   4.320  50.045  1.00  0.00     0.198 C 
HETATM    9  C7  UNL     1      24.801   2.976  49.432  1.00  0.00     0.033 C 
HETATM   10  C8  UNL     1      23.441   2.913  49.571  1.00  0.00     0.068 C 
HETATM   11  C9  UNL     1      22.347   1.861  49.251  1.00  0.00     0.233 C 
HETATM   12  O3  UNL     1      21.782   1.703  50.558  1.00  0.00    -0.367 OA
HETATM   13  C10 UNL     1      22.761   1.432  51.474  1.00  0.00     0.227 C 
HETATM   14  C17 UNL     1      23.477   2.775  51.889  1.00  0.00     0.188 C 
HETATM   15  O4  UNL     1      23.909   2.459  53.006  1.00  0.00    -0.292 OA
HETATM   16  O5  UNL     1      22.490   3.840  50.041  1.00  0.00    -0.346 OA
HETATM   17  C18 UNL     1      21.312   4.279  49.536  1.00  0.00     0.253 C 
ENDROOT
BRANCH  13  18
HETATM   18  C11 UNL     1      22.379   0.693  52.601  1.00  0.00    -0.022 A 
HETATM   19  C12 UNL     1      21.192   0.951  53.221  1.00  0.00     0.010 A 
HETATM   20  C13 UNL     1      20.783   0.233  54.344  1.00  0.00     0.001 A 
HETATM   21  C14 UNL     1      21.623  -0.767  54.825  1.00  0.00     0.000 A 
HETATM   22  C15 UNL     1      22.835  -1.054  54.217  1.00  0.00     0.001 A 
HETATM   23  C16 UNL     1      23.204  -0.314  53.102  1.00  0.00     0.010 A 
ENDBRANCH  13  18
TORSDOF 1
ENDMDL
MODEL 4
REMARK VINA RESULT:      -7.0      1.672      1.935
REMARK  1 active torsions:
REMARK  status: ('A' for Active; 'I' for Inactive)
REMARK    1  A    between atoms: C10_13  and  C11_14 
ROOT
HETATM    1  O1  UNL     1      21.269   2.895  47.409  1.00  0.00    -0.296 OA
HETATM    2  C1  UNL     1      21.601   3.530  48.393  1.00  0.00     0.150 C 
HETATM    3  C2  UNL     1      21.044   4.167  49.624  1.00  0.00     0.081 C 
HETATM    4  C3  UNL     1      21.326   3.397  50.855  1.00  0.00     0.010 C 
HETATM    5  C4  UNL     1      21.447   4.303  52.109  1.00  0.00     0.040 C 
HETATM    6  C5  UNL     1      22.725   5.001  51.968  1.00  0.00     0.194 C 
HETATM    7  O2  UNL     1      22.716   5.726  50.723  1.00  0.00    -0.374 OA
HETATM    8  C6  UNL     1      23.597   6.836  51.010  1.00  0.00     0.198 C 
HETATM    9  C7  UNL     1      24.965   6.265  50.613  1.00  0.00     0.033 C 
HETATM   10  C8  UNL     1      24.702   5.065  50.009  1.00  0.00     0.068 C 
HETATM   11  C9  UNL     1      25.561   3.918  49.414  1.00  0.00     0.233 C 
HETATM   12  O3  UNL     1      25.077   2.826  50.205  1.00  0.00    -0.367 OA
HETATM   13  C10 UNL     1      25.149   3.130  51.536  1.00  0.00     0.227 C 
HETATM   14  C17 UNL     1      23.917   4.033  51.935  1.00  0.00     0.188 C 
HETATM   15  O4  UNL     1      23.843   3.783  53.146  1.00  0.00    -0.292 OA
HETATM   16  O5  UNL     1      23.500   4.422  49.655  1.00  0.00    -0.346 OA
HETATM   17  C18 UNL     1      23.078   3.838  48.509  1.00  0.00     0.253 C 
ENDROOT
BRANCH  13  18
HETATM   18  C11 UNL     1      25.293   2.052  52.419  1.00  0.00    -0.022 A 
HETATM   19  C12 UNL     1      24.434   0.994  52.357  1.00  0.00     0.010 A 
HETATM   20  C13 UNL     1      24.551  -0.094  53.220  1.00  0.00     0.001 A 
HETATM   21  C14 UNL     1      25.577  -0.078  54.160  1.00  0.00     0.000 A 
HETATM   22  C15 UNL     1      26.466   0.981  54.249  1.00  0.00     0.001 A 
HETATM   23  C16 UNL     1      26.313   2.045  53.370  1.00  0.00     0.010 A 
ENDBRANCH  13  18
TORSDOF 1
ENDMDL
MODEL 5
REMARK VINA RESULT:      -6.9      2.500      4.607
REMARK  1 active torsions:
REMARK  status: ('A' for Active; 'I' for Inactive)
REMARK    1  A    between atoms: C10_13  and  C11_14 
ROOT
HETATM    1  O1  UNL     1      22.590   7.300  50.654  1.00  0.00    -0.296 OA
HETATM    2  C1  UNL     1      22.301   6.242  50.126  1.00  0.00     0.150 C 
HETATM    3  C2  UNL     1      22.695   5.342  49.001  1.00  0.00     0.081 C 
HETATM    4  C3  UNL     1      23.437   4.143  49.450  1.00  0.00     0.010 C 
HETATM    5  C4  UNL     1      23.207   2.920  48.522  1.00  0.00     0.040 C 
HETATM    6  C5  UNL     1      21.843   2.470  48.795  1.00  0.00     0.194 C 
HETATM    7  O2  UNL     1      20.941   3.566  48.549  1.00  0.00    -0.374 OA
HETATM    8  C6  UNL     1      19.727   2.882  48.164  1.00  0.00     0.198 C 
HETATM    9  C7  UNL     1      19.035   2.679  49.518  1.00  0.00     0.033 C 
HETATM   10  C8  UNL     1      19.778   3.389  50.422  1.00  0.00     0.068 C 
HETATM   11  C9  UNL     1      19.734   3.608  51.958  1.00  0.00     0.233 C 
HETATM   12  O3  UNL     1      21.047   3.148  52.300  1.00  0.00    -0.367 OA
HETATM   13  C10 UNL     1      21.270   1.903  51.780  1.00  0.00     0.227 C 
HETATM   14  C17 UNL     1      21.655   2.031  50.256  1.00  0.00     0.188 C 
HETATM   15  O4  UNL     1      22.293   0.981  50.100  1.00  0.00    -0.292 OA
HETATM   16  O5  UNL     1      20.883   4.251  50.277  1.00  0.00    -0.346 OA
HETATM   17  C18 UNL     1      21.145   5.492  50.751  1.00  0.00     0.253 C 
ENDROOT
BRANCH  13  18
HETATM   18  C11 UNL     1      22.183   1.091  52.467  1.00  0.00    -0.022 A 
HETATM   19  C12 UNL     1      21.768  -0.070  53.048  1.00  0.00     0.010 A 
HETATM   20  C13 UNL     1      22.651  -0.900  53.737  1.00  0.00     0.001 A 
HETATM   21  C14 UNL     1      23.984  -0.512  53.820  1.00  0.00     0.000 A 
HETATM   22  C15 UNL     1      24.439   0.662  53.241  1.00  0.00     0.001 A 
HETATM   23  C16 UNL     1      23.524   1.460  52.564  1.00  0.00     0.010 A 
ENDBRANCH  13  18
TORSDOF 1
ENDMDL
MODEL 6
REMARK VINA RESULT:      -6.8      8.494     11.061
REMARK  1 active torsions:
REMARK  status: ('A' for Active; 'I' for Inactive)
REMARK    1  A    between atoms: C10_13  and  C11_14 
ROOT
HETATM    1  O1  UNL     1      35.061   2.950  46.079  1.00  0.00    -0.296 OA
HETATM    2  C1  UNL     1      34.676   4.079  45.835  1.00  0.00     0.150 C 
HETATM    3  C2  UNL     1      34.181   4.938  44.717  1.00  0.00     0.081 C 
HETATM    4  C3  UNL     1      32.722   5.173  44.768  1.00  0.00     0.010 C 
HETATM    5  C4  UNL     1      32.319   6.544  44.162  1.00  0.00     0.040 C 
HETATM    6  C5  UNL     1      32.754   7.547  45.133  1.00  0.00     0.194 C 
HETATM    7  O2  UNL     1      34.172   7.396  45.344  1.00  0.00    -0.374 OA
HETATM    8  C6  UNL     1      34.574   8.740  45.688  1.00  0.00     0.198 C 
HETATM    9  C7  UNL     1      34.397   8.743  47.212  1.00  0.00     0.033 C 
HETATM   10  C8  UNL     1      34.126   7.446  47.554  1.00  0.00     0.068 C 
HETATM   11  C9  UNL     1      33.782   6.700  48.870  1.00  0.00     0.233 C 
HETATM   12  O3  UNL     1      32.526   6.123  48.493  1.00  0.00    -0.367 OA
HETATM   13  C10 UNL     1      31.687   7.083  47.998  1.00  0.00     0.227 C 
HETATM   14  C17 UNL     1      32.061   7.380  46.494  1.00  0.00     0.188 C 
HETATM   15  O4  UNL     1      30.978   7.814  46.078  1.00  0.00    -0.292 OA
HETATM   16  O5  UNL     1      34.099   6.252  46.807  1.00  0.00    -0.346 OA
HETATM   17  C18 UNL     1      34.650   5.031  47.011  1.00  0.00     0.253 C 
ENDROOT
BRANCH  13  18
HETATM   18  C11 UNL     1      30.313   6.849  48.141  1.00  0.00    -0.022 A 
HETATM   19  C12 UNL     1      29.825   5.577  48.106  1.00  0.00     0.010 A 
HETATM   20  C13 UNL     1      28.464   5.311  48.246  1.00  0.00     0.001 A 
HETATM   21  C14 UNL     1      27.601   6.388  48.426  1.00  0.00     0.000 A 
HETATM   22  C15 UNL     1      28.065   7.694  48.466  1.00  0.00     0.001 A 
HETATM   23  C16 UNL     1      29.429   7.913  48.321  1.00  0.00     0.010 A 
ENDBRANCH  13  18
TORSDOF 1
ENDMDL
MODEL 7
REMARK VINA RESULT:      -6.8      2.351      5.032
REMARK  1 active torsions:
REMARK  status: ('A' for Active; 'I' for Inactive)
REMARK    1  A    between atoms: C10_13  and  C11_14 
ROOT
HETATM    1  O1  UNL     1      18.665   3.767  51.961  1.00  0.00    -0.296 OA
HETATM    2  C1  UNL     1      19.715   3.232  51.658  1.00  0.00     0.150 C 
HETATM    3  C2  UNL     1      20.286   2.185  50.758  1.00  0.00     0.081 C 
HETATM    4  C3  UNL     1      21.017   2.748  49.603  1.00  0.00     0.010 C 
HETATM    5  C4  UNL     1      22.170   1.827  49.123  1.00  0.00     0.040 C 
HETATM    6  C5  UNL     1      23.214   1.940  50.141  1.00  0.00     0.194 C 
HETATM    7  O2  UNL     1      22.655   1.560  51.414  1.00  0.00    -0.374 OA
HETATM    8  C6  UNL     1      23.810   1.044  52.112  1.00  0.00     0.198 C 
HETATM    9  C7  UNL     1      24.363   2.307  52.786  1.00  0.00     0.033 C 
HETATM   10  C8  UNL     1      23.423   3.280  52.574  1.00  0.00     0.068 C 
HETATM   11  C9  UNL     1      23.308   4.792  52.897  1.00  0.00     0.233 C 
HETATM   12  O3  UNL     1      23.116   5.304  51.573  1.00  0.00    -0.367 OA
HETATM   13  C10 UNL     1      24.094   4.844  50.735  1.00  0.00     0.227 C 
HETATM   14  C17 UNL     1      23.744   3.376  50.275  1.00  0.00     0.188 C 
HETATM   15  O4  UNL     1      24.370   3.323  49.208  1.00  0.00    -0.292 OA
HETATM   16  O5  UNL     1      22.141   3.251  51.990  1.00  0.00    -0.346 OA
HETATM   17  C18 UNL     1      20.940   3.727  52.396  1.00  0.00     0.253 C 
ENDROOT
BRANCH  13  18
HETATM   18  C11 UNL     1      24.413   5.656  49.639  1.00  0.00    -0.022 A 
HETATM   19  C12 UNL     1      25.701   6.049  49.426  1.00  0.00     0.010 A 
HETATM   20  C13 UNL     1      26.050   6.855  48.344  1.00  0.00     0.001 A 
HETATM   21  C14 UNL     1      25.042   7.256  47.473  1.00  0.00     0.000 A 
HETATM   22  C15 UNL     1      23.723   6.875  47.661  1.00  0.00     0.001 A 
HETATM   23  C16 UNL     1      23.419   6.072  48.752  1.00  0.00     0.010 A 
ENDBRANCH  13  18
TORSDOF 1
ENDMDL
MODEL 8
REMARK VINA RESULT:      -6.8      7.614     10.088
REMARK  1 active torsions:
REMARK  status: ('A' for Active; 'I' for Inactive)
REMARK    1  A    between atoms: C10_13  and  C11_14 
ROOT
HETATM    1  O1  UNL     1      29.594  12.835  46.357  1.00  0.00    -0.296 OA
HETATM    2  C1  UNL     1      30.210  11.930  46.889  1.00  0.00     0.150 C 
HETATM    3  C2  UNL     1      30.894  11.563  48.165  1.00  0.00     0.081 C 
HETATM    4  C3  UNL     1      30.114  10.615  48.990  1.00  0.00     0.010 C 
HETATM    5  C4  UNL     1      31.018   9.691  49.849  1.00  0.00     0.040 C 
HETATM    6  C5  UNL     1      31.621   8.746  48.910  1.00  0.00     0.194 C 
HETATM    7  O2  UNL     1      32.336   9.492  47.905  1.00  0.00    -0.374 OA
HETATM    8  C6  UNL     1      33.381   8.569  47.526  1.00  0.00     0.198 C 
HETATM    9  C7  UNL     1      32.711   7.779  46.394  1.00  0.00     0.033 C 
HETATM   10  C8  UNL     1      31.529   8.423  46.145  1.00  0.00     0.068 C 
HETATM   11  C9  UNL     1      30.319   8.184  45.204  1.00  0.00     0.233 C 
HETATM   12  O3  UNL     1      29.270   8.125  46.178  1.00  0.00    -0.367 OA
HETATM   13  C10 UNL     1      29.577   7.223  47.159  1.00  0.00     0.227 C 
HETATM   14  C17 UNL     1      30.569   7.887  48.191  1.00  0.00     0.188 C 
HETATM   15  O4  UNL     1      30.334   7.203  49.196  1.00  0.00    -0.292 OA
HETATM   16  O5  UNL     1      30.972   9.615  46.648  1.00  0.00    -0.346 OA
HETATM   17  C18 UNL     1      30.411  10.690  46.045  1.00  0.00     0.253 C 
ENDROOT
BRANCH  13  18
HETATM   18  C11 UNL     1      28.497   6.616  47.813  1.00  0.00    -0.022 A 
HETATM   19  C12 UNL     1      28.557   5.299  48.162  1.00  0.00     0.010 A 
HETATM   20  C13 UNL     1      27.500   4.667  48.814  1.00  0.00     0.001 A 
HETATM   21  C14 UNL     1      26.366   5.418  49.106  1.00  0.00     0.000 A 
HETATM   22  C15 UNL     1      26.273   6.758  48.765  1.00  0.00     0.001 A 
HETATM   23  C16 UNL     1      27.350   7.349  48.116  1.00  0.00     0.010 A 
ENDBRANCH  13  18
TORSDOF 1
ENDMDL
MODEL 9
REMARK VINA RESULT:      -6.7      3.712      5.640
REMARK  1 active torsions:
REMARK  status: ('A' for Active; 'I' for Inactive)
REMARK    1  A    between atoms: C10_13  and  C11_14 
ROOT
HETATM    1  O1  UNL     1      22.435   6.513  51.297  1.00  0.00    -0.296 OA
HETATM    2  C1  UNL     1      22.063   5.529  50.684  1.00  0.00     0.150 C 
HETATM    3  C2  UNL     1      22.523   4.529  49.674  1.00  0.00     0.081 C 
HETATM    4  C3  UNL     1      22.841   3.211  50.266  1.00  0.00     0.010 C 
HETATM    5  C4  UNL     1      22.592   2.040  49.278  1.00  0.00     0.040 C 
HETATM    6  C5  UNL     1      21.138   1.911  49.179  1.00  0.00     0.194 C 
HETATM    7  O2  UNL     1      20.595   3.172  48.739  1.00  0.00    -0.374 OA
HETATM    8  C6  UNL     1      19.401   2.761  48.037  1.00  0.00     0.198 C 
HETATM    9  C7  UNL     1      18.358   2.758  49.162  1.00  0.00     0.033 C 
HETATM   10  C8  UNL     1      18.983   3.314  50.246  1.00  0.00     0.068 C 
HETATM   11  C9  UNL     1      18.596   3.586  51.724  1.00  0.00     0.233 C 
HETATM   12  O3  UNL     1      19.642   2.859  52.379  1.00  0.00    -0.367 OA
HETATM   13  C10 UNL     1      19.709   1.579  51.901  1.00  0.00     0.227 C 
HETATM   14  C17 UNL     1      20.490   1.571  50.531  1.00  0.00     0.188 C 
HETATM   15  O4  UNL     1      20.898   0.402  50.515  1.00  0.00    -0.292 OA
HETATM   16  O5  UNL     1      20.250   3.906  50.412  1.00  0.00    -0.346 OA
HETATM   17  C18 UNL     1      20.649   5.073  50.971  1.00  0.00     0.253 C 
ENDROOT
BRANCH  13  18
HETATM   18  C11 UNL     1      20.212   0.609  52.777  1.00  0.00    -0.022 A 
HETATM   19  C12 UNL     1      21.458   0.747  53.313  1.00  0.00     0.010 A 
HETATM   20  C13 UNL     1      21.987  -0.201  54.188  1.00  0.00     0.001 A 
HETATM   21  C14 UNL     1      21.205  -1.307  54.506  1.00  0.00     0.000 A 
HETATM   22  C15 UNL     1      19.936  -1.478  53.978  1.00  0.00     0.001 A 
HETATM   23  C16 UNL     1      19.448  -0.510  53.110  1.00  0.00     0.010 A 
ENDBRANCH  13  18
TORSDOF 1
ENDMDL
