MODEL 1
REMARK VINA RESULT:      -8.9      0.000      0.000
REMARK  3 active torsions:
REMARK  status: ('A' for Active; 'I' for Inactive)
REMARK    1  A    between atoms: C10_13  and  N3_14 
REMARK    2  A    between atoms: N3_14  and  C11_15 
REMARK    3  A    between atoms: C11_15  and  C12_16 
ROOT
HETATM    1  C1  UNL     1      17.824  -1.495  53.279  1.00  0.00     0.070 C 
HETATM    2  C2  UNL     1      19.033  -0.707  53.014  1.00  0.00     0.036 C 
HETATM    3  C3  UNL     1      19.429   0.063  52.013  1.00  0.00     0.015 C 
HETATM    4 BR1  UNL     1      17.780  -0.250  51.025  1.00  0.00    -0.053 Br
HETATM    5  C4  UNL     1      20.172   0.934  51.123  1.00  0.00     0.075 C 
HETATM    6  C5  UNL     1      21.550   1.274  51.432  1.00  0.00    -0.019 C 
HETATM    7  C6  UNL     1      22.615   1.103  52.168  1.00  0.00     0.031 C 
HETATM    8  C7  UNL     1      22.669   0.160  53.268  1.00  0.00     0.103 A 
HETATM    9  N1  UNL     1      21.448  -0.206  53.577  1.00  0.00    -0.061 NA
HETATM   10  C8  UNL     1      21.182  -1.079  54.527  1.00  0.00     0.727 A 
HETATM   11  N2  UNL     1      22.181  -1.616  55.206  1.00  0.00    -0.073 NA
HETATM   12  C9  UNL     1      23.479  -1.270  54.927  1.00  0.00     0.168 A 
HETATM   13  C10 UNL     1      23.734  -0.364  53.938  1.00  0.00     0.076 A 
HETATM   14  N4  UNL     1      19.849  -0.882  54.184  1.00  0.00    -0.191 N 
HETATM   15  H17 UNL     1      19.561  -0.903  55.192  1.00  0.00     0.184 HD
ENDROOT
BRANCH  13  16
HETATM   16  N3  UNL     1      24.988   0.106  53.507  1.00  0.00    -0.383 N 
HETATM   17  H9  UNL     1      25.425   1.035  53.585  1.00  0.00     0.160 HD
BRANCH  16  18
HETATM   18  C11 UNL     1      25.789  -0.900  52.844  1.00  0.00     0.158 C 
BRANCH  18  19
HETATM   19  C12 UNL     1      27.234  -0.791  53.126  1.00  0.00    -0.041 A 
HETATM   20  C13 UNL     1      28.059  -1.908  53.039  1.00  0.00     0.009 A 
HETATM   21  C14 UNL     1      29.400  -1.913  53.277  1.00  0.00     0.001 A 
HETATM   22  C15 UNL     1      30.015  -0.716  53.639  1.00  0.00     0.000 A 
HETATM   23  C16 UNL     1      29.217   0.409  53.731  1.00  0.00     0.001 A 
HETATM   24  C17 UNL     1      27.863   0.388  53.484  1.00  0.00     0.009 A 
ENDBRANCH  18  19
ENDBRANCH  16  18
ENDBRANCH  13  16
TORSDOF 3
ENDMDL
MODEL 2
REMARK VINA RESULT:      -8.4      4.152      5.427
REMARK  3 active torsions:
REMARK  status: ('A' for Active; 'I' for Inactive)
REMARK    1  A    between atoms: C10_13  and  N3_14 
REMARK    2  A    between atoms: N3_14  and  C11_15 
REMARK    3  A    between atoms: C11_15  and  C12_16 
ROOT
HETATM    1  C1  UNL     1      21.853  -1.651  53.978  1.00  0.00     0.070 C 
HETATM    2  C2  UNL     1      22.382  -0.336  53.602  1.00  0.00     0.036 C 
HETATM    3  C3  UNL     1      21.837   0.778  53.137  1.00  0.00     0.015 C 
HETATM    4 BR1  UNL     1      20.054  -0.004  53.150  1.00  0.00    -0.053 Br
HETATM    5  C4  UNL     1      21.595   2.112  52.624  1.00  0.00     0.075 C 
HETATM    6  C5  UNL     1      22.718   2.977  52.307  1.00  0.00    -0.019 C 
HETATM    7  C6  UNL     1      24.005   3.147  52.165  1.00  0.00     0.031 C 
HETATM    8  C7  UNL     1      24.968   2.082  52.373  1.00  0.00     0.103 A 
HETATM    9  N1  UNL     1      24.382   1.096  53.010  1.00  0.00    -0.061 NA
HETATM   10  C8  UNL     1      25.003  -0.024  53.319  1.00  0.00     0.727 A 
HETATM   11  N2  UNL     1      26.271  -0.172  52.976  1.00  0.00    -0.073 NA
HETATM   12  C9  UNL     1      26.936   0.826  52.309  1.00  0.00     0.168 A 
HETATM   13  C10 UNL     1      26.273   1.980  51.998  1.00  0.00     0.076 A 
HETATM   14  N4  UNL     1      23.791  -0.414  53.877  1.00  0.00    -0.191 N 
HETATM   15  H17 UNL     1      24.280  -0.858  54.691  1.00  0.00     0.184 HD
ENDROOT
BRANCH  13  16
HETATM   16  N3  UNL     1      26.780   3.101  51.316  1.00  0.00    -0.383 N 
HETATM   17  H9  UNL     1      27.288   3.928  51.661  1.00  0.00     0.160 HD
BRANCH  16  18
HETATM   18  C11 UNL     1      26.537   3.074  49.891  1.00  0.00     0.158 C 
BRANCH  18  19
HETATM   19  C12 UNL     1      26.564   4.408  49.257  1.00  0.00    -0.041 A 
HETATM   20  C13 UNL     1      27.748   4.919  48.734  1.00  0.00     0.009 A 
HETATM   21  C14 UNL     1      27.877   6.134  48.131  1.00  0.00     0.001 A 
HETATM   22  C15 UNL     1      26.749   6.944  48.018  1.00  0.00     0.000 A 
HETATM   23  C16 UNL     1      25.561   6.457  48.530  1.00  0.00     0.001 A 
HETATM   24  C17 UNL     1      25.455   5.225  49.135  1.00  0.00     0.009 A 
ENDBRANCH  18  19
ENDBRANCH  16  18
ENDBRANCH  13  16
TORSDOF 3
ENDMDL
MODEL 3
REMARK VINA RESULT:      -8.4      4.811      6.031
REMARK  3 active torsions:
REMARK  status: ('A' for Active; 'I' for Inactive)
REMARK    1  A    between atoms: C10_13  and  N3_14 
REMARK    2  A    between atoms: N3_14  and  C11_15 
REMARK    3  A    between atoms: C11_15  and  C12_16 
ROOT
HETATM    1  C1  UNL     1      20.568   0.128  54.031  1.00  0.00     0.070 C 
HETATM    2  C2  UNL     1      21.899   0.292  53.438  1.00  0.00     0.036 C 
HETATM    3  C3  UNL     1      23.075  -0.280  53.642  1.00  0.00     0.015 C 
HETATM    4 BR1  UNL     1      22.354  -1.434  55.034  1.00  0.00    -0.053 Br
HETATM    5  C4  UNL     1      24.474  -0.663  53.606  1.00  0.00     0.075 C 
HETATM    6  C5  UNL     1      25.407   0.094  52.790  1.00  0.00    -0.019 C 
HETATM    7  C6  UNL     1      25.662   1.128  52.033  1.00  0.00     0.031 C 
HETATM    8  C7  UNL     1      24.673   2.146  51.731  1.00  0.00     0.103 A 
HETATM    9  N1  UNL     1      23.484   1.692  52.048  1.00  0.00    -0.061 NA
HETATM   10  C8  UNL     1      22.386   2.406  51.908  1.00  0.00     0.727 A 
HETATM   11  N2  UNL     1      22.474   3.634  51.428  1.00  0.00    -0.073 NA
HETATM   12  C9  UNL     1      23.692   4.162  51.078  1.00  0.00     0.168 A 
HETATM   13  C10 UNL     1      24.819   3.405  51.232  1.00  0.00     0.076 A 
HETATM   14  N4  UNL     1      21.728   1.295  52.422  1.00  0.00    -0.191 N 
HETATM   15  H17 UNL     1      20.937   1.419  51.746  1.00  0.00     0.184 HD
ENDROOT
BRANCH  13  16
HETATM   16  N3  UNL     1      26.144   3.772  50.939  1.00  0.00    -0.383 N 
HETATM   17  H9  UNL     1      26.900   4.117  51.548  1.00  0.00     0.160 HD
BRANCH  16  18
HETATM   18  C11 UNL     1      26.490   3.637  49.542  1.00  0.00     0.158 C 
BRANCH  18  19
HETATM   19  C12 UNL     1      26.951   4.893  48.918  1.00  0.00    -0.041 A 
HETATM   20  C13 UNL     1      28.284   5.056  48.554  1.00  0.00     0.009 A 
HETATM   21  C14 UNL     1      28.808   6.172  47.973  1.00  0.00     0.001 A 
HETATM   22  C15 UNL     1      27.960   7.247  47.716  1.00  0.00     0.000 A 
HETATM   23  C16 UNL     1      26.630   7.109  48.069  1.00  0.00     0.001 A 
HETATM   24  C17 UNL     1      26.124   5.971  48.653  1.00  0.00     0.009 A 
ENDBRANCH  18  19
ENDBRANCH  16  18
ENDBRANCH  13  16
TORSDOF 3
ENDMDL
MODEL 4
REMARK VINA RESULT:      -8.4      4.889      6.490
REMARK  3 active torsions:
REMARK  status: ('A' for Active; 'I' for Inactive)
REMARK    1  A    between atoms: C10_13  and  N3_14 
REMARK    2  A    between atoms: N3_14  and  C11_15 
REMARK    3  A    between atoms: C11_15  and  C12_16 
ROOT
HETATM    1  C1  UNL     1      24.903   8.181  49.779  1.00  0.00     0.070 C 
HETATM    2  C2  UNL     1      25.271   6.778  50.000  1.00  0.00     0.036 C 
HETATM    3  C3  UNL     1      26.092   5.935  49.394  1.00  0.00     0.015 C 
HETATM    4 BR1  UNL     1      26.629   7.280  48.093  1.00  0.00    -0.053 Br
HETATM    5  C4  UNL     1      26.856   4.773  48.984  1.00  0.00     0.075 C 
HETATM    6  C5  UNL     1      26.613   3.489  49.618  1.00  0.00    -0.019 C 
HETATM    7  C6  UNL     1      25.903   2.747  50.426  1.00  0.00     0.031 C 
HETATM    8  C7  UNL     1      24.746   3.248  51.143  1.00  0.00     0.103 A 
HETATM    9  N1  UNL     1      24.753   4.559  51.100  1.00  0.00    -0.061 NA
HETATM   10  C8  UNL     1      23.807   5.297  51.646  1.00  0.00     0.727 A 
HETATM   11  N2  UNL     1      22.805   4.701  52.268  1.00  0.00    -0.073 NA
HETATM   12  C9  UNL     1      22.747   3.332  52.346  1.00  0.00     0.168 A 
HETATM   13  C10 UNL     1      23.736   2.585  51.772  1.00  0.00     0.076 A 
HETATM   14  N4  UNL     1      24.530   6.383  51.167  1.00  0.00    -0.191 N 
HETATM   15  H17 UNL     1      24.347   6.924  52.046  1.00  0.00     0.184 HD
ENDROOT
BRANCH  13  16
HETATM   16  N3  UNL     1      23.844   1.183  51.742  1.00  0.00    -0.383 N 
HETATM   17  H9  UNL     1      23.782   0.518  50.958  1.00  0.00     0.160 HD
BRANCH  16  18
HETATM   18  C11 UNL     1      24.080   0.590  53.039  1.00  0.00     0.158 C 
BRANCH  18  19
HETATM   19  C12 UNL     1      25.501   0.285  53.304  1.00  0.00    -0.041 A 
HETATM   20  C13 UNL     1      26.134  -0.764  52.646  1.00  0.00     0.009 A 
HETATM   21  C14 UNL     1      27.437  -1.125  52.819  1.00  0.00     0.001 A 
HETATM   22  C15 UNL     1      28.213  -0.401  53.720  1.00  0.00     0.000 A 
HETATM   23  C16 UNL     1      27.606   0.648  54.386  1.00  0.00     0.001 A 
HETATM   24  C17 UNL     1      26.288   0.994  54.194  1.00  0.00     0.009 A 
ENDBRANCH  18  19
ENDBRANCH  16  18
ENDBRANCH  13  16
TORSDOF 3
ENDMDL
MODEL 5
REMARK VINA RESULT:      -8.3      1.733      3.025
REMARK  3 active torsions:
REMARK  status: ('A' for Active; 'I' for Inactive)
REMARK    1  A    between atoms: C10_13  and  N3_14 
REMARK    2  A    between atoms: N3_14  and  C11_15 
REMARK    3  A    between atoms: C11_15  and  C12_16 
ROOT
HETATM    1  C1  UNL     1      18.602   0.633  51.798  1.00  0.00     0.070 C 
HETATM    2  C2  UNL     1      19.969   0.332  52.238  1.00  0.00     0.036 C 
HETATM    3  C3  UNL     1      20.493  -0.539  53.085  1.00  0.00     0.015 C 
HETATM    4 BR1  UNL     1      18.744  -1.275  53.523  1.00  0.00    -0.053 Br
HETATM    5  C4  UNL     1      21.384  -1.321  53.920  1.00  0.00     0.075 C 
HETATM    6  C5  UNL     1      22.789  -0.964  54.006  1.00  0.00    -0.019 C 
HETATM    7  C6  UNL     1      23.762  -0.136  53.728  1.00  0.00     0.031 C 
HETATM    8  C7  UNL     1      23.562   1.091  52.982  1.00  0.00     0.103 A 
HETATM    9  N1  UNL     1      22.391   1.046  52.392  1.00  0.00    -0.061 NA
HETATM   10  C8  UNL     1      21.921   2.036  51.660  1.00  0.00     0.727 A 
HETATM   11  N2  UNL     1      22.653   3.126  51.505  1.00  0.00    -0.073 NA
HETATM   12  C9  UNL     1      23.886   3.228  52.098  1.00  0.00     0.168 A 
HETATM   13  C10 UNL     1      24.355   2.191  52.854  1.00  0.00     0.076 A 
HETATM   14  N4  UNL     1      20.802   1.229  51.485  1.00  0.00    -0.191 N 
HETATM   15  H17 UNL     1      20.726   1.511  50.478  1.00  0.00     0.184 HD
ENDROOT
BRANCH  13  16
HETATM   16  N3  UNL     1      25.581   2.116  53.539  1.00  0.00    -0.383 N 
HETATM   17  H9  UNL     1      25.792   2.122  54.548  1.00  0.00     0.160 HD
BRANCH  16  18
HETATM   18  C11 UNL     1      26.729   2.015  52.667  1.00  0.00     0.158 C 
BRANCH  18  19
HETATM   19  C12 UNL     1      27.571   0.830  52.926  1.00  0.00    -0.041 A 
HETATM   20  C13 UNL     1      28.851   0.973  53.453  1.00  0.00     0.009 A 
HETATM   21  C14 UNL     1      29.704  -0.054  53.729  1.00  0.00     0.001 A 
HETATM   22  C15 UNL     1      29.282  -1.356  53.470  1.00  0.00     0.000 A 
HETATM   23  C16 UNL     1      28.013  -1.523  52.947  1.00  0.00     0.001 A 
HETATM   24  C17 UNL     1      27.169  -0.470  52.678  1.00  0.00     0.009 A 
ENDBRANCH  18  19
ENDBRANCH  16  18
ENDBRANCH  13  16
TORSDOF 3
ENDMDL
MODEL 6
REMARK VINA RESULT:      -8.3      2.839      7.666
REMARK  3 active torsions:
REMARK  status: ('A' for Active; 'I' for Inactive)
REMARK    1  A    between atoms: C10_13  and  N3_14 
REMARK    2  A    between atoms: N3_14  and  C11_15 
REMARK    3  A    between atoms: C11_15  and  C12_16 
ROOT
HETATM    1  C1  UNL     1      28.124   0.174  54.990  1.00  0.00     0.070 C 
HETATM    2  C2  UNL     1      26.959   0.388  54.124  1.00  0.00     0.036 C 
HETATM    3  C3  UNL     1      26.666   1.263  53.175  1.00  0.00     0.015 C 
HETATM    4 BR1  UNL     1      28.385   2.158  53.368  1.00  0.00    -0.053 Br
HETATM    5  C4  UNL     1      26.020   2.038  52.134  1.00  0.00     0.075 C 
HETATM    6  C5  UNL     1      24.629   1.783  51.804  1.00  0.00    -0.019 C 
HETATM    7  C6  UNL     1      23.501   1.176  52.063  1.00  0.00     0.031 C 
HETATM    8  C7  UNL     1      23.334   0.271  53.184  1.00  0.00     0.103 A 
HETATM    9  N1  UNL     1      24.517  -0.063  53.643  1.00  0.00    -0.061 NA
HETATM   10  C8  UNL     1      24.683  -0.858  54.680  1.00  0.00     0.727 A 
HETATM   11  N2  UNL     1      23.618  -1.349  55.292  1.00  0.00    -0.073 NA
HETATM   12  C9  UNL     1      22.356  -1.035  54.855  1.00  0.00     0.168 A 
HETATM   13  C10 UNL     1      22.206  -0.207  53.778  1.00  0.00     0.076 A 
HETATM   14  N4  UNL     1      26.043  -0.663  54.473  1.00  0.00    -0.191 N 
HETATM   15  H17 UNL     1      26.245  -1.670  54.683  1.00  0.00     0.184 HD
ENDROOT
BRANCH  13  16
HETATM   16  N3  UNL     1      21.003   0.230  53.195  1.00  0.00    -0.383 N 
HETATM   17  H9  UNL     1      20.815   0.981  52.516  1.00  0.00     0.160 HD
BRANCH  16  18
HETATM   18  C11 UNL     1      19.841  -0.512  53.633  1.00  0.00     0.158 C 
BRANCH  18  19
HETATM   19  C12 UNL     1      18.730  -0.507  52.660  1.00  0.00    -0.041 A 
HETATM   20  C13 UNL     1      18.867   0.135  51.433  1.00  0.00     0.009 A 
HETATM   21  C14 UNL     1      17.905   0.195  50.469  1.00  0.00     0.001 A 
HETATM   22  C15 UNL     1      16.682  -0.426  50.711  1.00  0.00     0.000 A 
HETATM   23  C16 UNL     1      16.522  -1.071  51.923  1.00  0.00     0.001 A 
HETATM   24  C17 UNL     1      17.510  -1.120  52.881  1.00  0.00     0.009 A 
ENDBRANCH  18  19
ENDBRANCH  16  18
ENDBRANCH  13  16
TORSDOF 3
ENDMDL
MODEL 7
REMARK VINA RESULT:      -8.2      5.300      7.729
REMARK  3 active torsions:
REMARK  status: ('A' for Active; 'I' for Inactive)
REMARK    1  A    between atoms: C10_13  and  N3_14 
REMARK    2  A    between atoms: N3_14  and  C11_15 
REMARK    3  A    between atoms: C11_15  and  C12_16 
ROOT
HETATM    1  C1  UNL     1      25.409   8.749  49.898  1.00  0.00     0.070 C 
HETATM    2  C2  UNL     1      25.644   7.303  49.982  1.00  0.00     0.036 C 
HETATM    3  C3  UNL     1      26.396   6.452  49.302  1.00  0.00     0.015 C 
HETATM    4 BR1  UNL     1      27.076   7.863  48.146  1.00  0.00    -0.053 Br
HETATM    5  C4  UNL     1      27.059   5.271  48.785  1.00  0.00     0.075 C 
HETATM    6  C5  UNL     1      26.689   3.959  49.286  1.00  0.00    -0.019 C 
HETATM    7  C6  UNL     1      25.901   3.209  50.010  1.00  0.00     0.031 C 
HETATM    8  C7  UNL     1      24.781   3.742  50.763  1.00  0.00     0.103 A 
HETATM    9  N1  UNL     1      24.907   5.045  50.851  1.00  0.00    -0.061 NA
HETATM   10  C8  UNL     1      24.023   5.809  51.460  1.00  0.00     0.727 A 
HETATM   11  N2  UNL     1      22.960   5.249  52.010  1.00  0.00    -0.073 NA
HETATM   12  C9  UNL     1      22.776   3.890  51.951  1.00  0.00     0.168 A 
HETATM   13  C10 UNL     1      23.704   3.116  51.314  1.00  0.00     0.076 A 
HETATM   14  N4  UNL     1      24.850   6.865  51.097  1.00  0.00    -0.191 N 
HETATM   15  H17 UNL     1      24.701   7.332  52.024  1.00  0.00     0.184 HD
ENDROOT
BRANCH  13  16
HETATM   16  N3  UNL     1      23.685   1.720  51.146  1.00  0.00    -0.383 N 
HETATM   17  H9  UNL     1      23.379   1.139  50.352  1.00  0.00     0.160 HD
BRANCH  16  18
HETATM   18  C11 UNL     1      24.181   0.989  52.290  1.00  0.00     0.158 C 
BRANCH  18  19
HETATM   19  C12 UNL     1      23.140   0.226  53.007  1.00  0.00    -0.041 A 
HETATM   20  C13 UNL     1      23.467  -0.552  54.114  1.00  0.00     0.009 A 
HETATM   21  C14 UNL     1      22.583  -1.290  54.842  1.00  0.00     0.001 A 
HETATM   22  C15 UNL     1      21.241  -1.280  54.467  1.00  0.00     0.000 A 
HETATM   23  C16 UNL     1      20.891  -0.514  53.370  1.00  0.00     0.001 A 
HETATM   24  C17 UNL     1      21.803   0.224  52.650  1.00  0.00     0.009 A 
ENDBRANCH  18  19
ENDBRANCH  16  18
ENDBRANCH  13  16
TORSDOF 3
ENDMDL
MODEL 8
REMARK VINA RESULT:      -8.1      6.449      8.479
REMARK  3 active torsions:
REMARK  status: ('A' for Active; 'I' for Inactive)
REMARK    1  A    between atoms: C10_13  and  N3_14 
REMARK    2  A    between atoms: N3_14  and  C11_15 
REMARK    3  A    between atoms: C11_15  and  C12_16 
ROOT
HETATM    1  C1  UNL     1      27.222   9.666  49.254  1.00  0.00     0.070 C 
HETATM    2  C2  UNL     1      27.178   8.201  49.329  1.00  0.00     0.036 C 
HETATM    3  C3  UNL     1      27.803   7.227  48.687  1.00  0.00     0.015 C 
HETATM    4 BR1  UNL     1      28.813   8.491  47.604  1.00  0.00    -0.053 Br
HETATM    5  C4  UNL     1      28.269   5.945  48.195  1.00  0.00     0.075 C 
HETATM    6  C5  UNL     1      27.626   4.723  48.647  1.00  0.00    -0.019 C 
HETATM    7  C6  UNL     1      26.663   4.131  49.303  1.00  0.00     0.031 C 
HETATM    8  C7  UNL     1      25.613   4.861  49.988  1.00  0.00     0.103 A 
HETATM    9  N1  UNL     1      25.973   6.117  50.106  1.00  0.00    -0.061 NA
HETATM   10  C8  UNL     1      25.207   7.030  50.667  1.00  0.00     0.727 A 
HETATM   11  N2  UNL     1      24.022   6.677  51.135  1.00  0.00    -0.073 NA
HETATM   12  C9  UNL     1      23.593   5.377  51.040  1.00  0.00     0.168 A 
HETATM   13  C10 UNL     1      24.402   4.446  50.454  1.00  0.00     0.076 A 
HETATM   14  N4  UNL     1      26.240   7.915  50.380  1.00  0.00    -0.191 N 
HETATM   15  H17 UNL     1      26.116   8.397  51.302  1.00  0.00     0.184 HD
ENDROOT
BRANCH  13  16
HETATM   16  N3  UNL     1      24.134   3.078  50.260  1.00  0.00    -0.383 N 
HETATM   17  H9  UNL     1      24.274   2.472  49.439  1.00  0.00     0.160 HD
BRANCH  16  18
HETATM   18  C11 UNL     1      23.567   2.427  51.419  1.00  0.00     0.158 C 
BRANCH  18  19
HETATM   19  C12 UNL     1      24.425   1.368  51.987  1.00  0.00    -0.041 A 
HETATM   20  C13 UNL     1      25.758   1.255  51.603  1.00  0.00     0.009 A 
HETATM   21  C14 UNL     1      26.630   0.317  52.068  1.00  0.00     0.001 A 
HETATM   22  C15 UNL     1      26.173  -0.612  53.000  1.00  0.00     0.000 A 
HETATM   23  C16 UNL     1      24.852  -0.520  53.398  1.00  0.00     0.001 A 
HETATM   24  C17 UNL     1      23.990   0.438  52.915  1.00  0.00     0.009 A 
ENDBRANCH  18  19
ENDBRANCH  16  18
ENDBRANCH  13  16
TORSDOF 3
ENDMDL
MODEL 9
REMARK VINA RESULT:      -7.8      5.687      6.961
REMARK  3 active torsions:
REMARK  status: ('A' for Active; 'I' for Inactive)
REMARK    1  A    between atoms: C10_13  and  N3_14 
REMARK    2  A    between atoms: N3_14  and  C11_15 
REMARK    3  A    between atoms: C11_15  and  C12_16 
ROOT
HETATM    1  C1  UNL     1      22.437   0.154  53.545  1.00  0.00     0.070 C 
HETATM    2  C2  UNL     1      23.455   0.849  52.749  1.00  0.00     0.036 C 
HETATM    3  C3  UNL     1      24.760   0.699  52.589  1.00  0.00     0.015 C 
HETATM    4 BR1  UNL     1      24.810  -0.809  53.820  1.00  0.00    -0.053 Br
HETATM    5  C4  UNL     1      26.149   0.834  52.196  1.00  0.00     0.075 C 
HETATM    6  C5  UNL     1      26.564   1.970  51.392  1.00  0.00    -0.019 C 
HETATM    7  C6  UNL     1      26.286   3.120  50.837  1.00  0.00     0.031 C 
HETATM    8  C7  UNL     1      24.991   3.761  50.959  1.00  0.00     0.103 A 
HETATM    9  N1  UNL     1      24.121   2.884  51.402  1.00  0.00    -0.061 NA
HETATM   10  C8  UNL     1      22.860   3.185  51.637  1.00  0.00     0.727 A 
HETATM   11  N2  UNL     1      22.442   4.420  51.420  1.00  0.00    -0.073 NA
HETATM   12  C9  UNL     1      23.307   5.379  50.957  1.00  0.00     0.168 A 
HETATM   13  C10 UNL     1      24.611   5.047  50.720  1.00  0.00     0.076 A 
HETATM   14  N4  UNL     1      22.729   1.856  52.023  1.00  0.00    -0.191 N 
HETATM   15  H17 UNL     1      21.792   1.787  51.559  1.00  0.00     0.184 HD
ENDROOT
BRANCH  13  16
HETATM   16  N3  UNL     1      25.638   5.888  50.255  1.00  0.00    -0.383 N 
HETATM   17  H9  UNL     1      26.321   6.466  50.766  1.00  0.00     0.160 HD
BRANCH  16  18
HETATM   18  C11 UNL     1      25.740   5.939  48.814  1.00  0.00     0.158 C 
BRANCH  18  19
HETATM   19  C12 UNL     1      27.101   6.235  48.324  1.00  0.00    -0.041 A 
HETATM   20  C13 UNL     1      28.140   5.332  48.528  1.00  0.00     0.009 A 
HETATM   21  C14 UNL     1      29.426   5.510  48.115  1.00  0.00     0.001 A 
HETATM   22  C15 UNL     1      29.750   6.682  47.435  1.00  0.00     0.000 A 
HETATM   23  C16 UNL     1      28.734   7.595  47.219  1.00  0.00     0.001 A 
HETATM   24  C17 UNL     1      27.441   7.391  47.644  1.00  0.00     0.009 A 
ENDBRANCH  18  19
ENDBRANCH  16  18
ENDBRANCH  13  16
TORSDOF 3
ENDMDL
