MODEL 1
REMARK VINA RESULT:      -9.0      0.000      0.000
REMARK  4 active torsions:
REMARK  status: ('A' for Active; 'I' for Inactive)
REMARK    1  A    between atoms: C9_10  and  O1_11 
REMARK    2  A    between atoms: C14_17  and  O3_18 
REMARK       I    between atoms: N2_21  and  C17_22 
REMARK       I    between atoms: C17_22  and  N3_24 
REMARK    3  A    between atoms: N3_24  and  C18_25 
REMARK    4  A    between atoms: C18_25  and  C20_27 
ROOT
HETATM    1  C1  UNL     1      21.256   5.037  51.122  1.00  0.00     0.078 A 
HETATM    2  C2  UNL     1      21.536   3.829  50.552  1.00  0.00    -0.013 A 
HETATM    3  C3  UNL     1      22.622   3.490  51.297  1.00  0.00     0.078 A 
HETATM    4  C4  UNL     1      21.963   2.264  51.407  1.00  0.00     0.056 A 
HETATM    5  C5  UNL     1      20.719   2.016  50.807  1.00  0.00     0.114 A 
HETATM    6  N1  UNL     1      20.032   2.930  50.064  1.00  0.00    -0.285 NA
HETATM    7  C6  UNL     1      20.473   4.174  49.819  1.00  0.00     0.087 A 
HETATM    8  C7  UNL     1      20.115   5.111  48.965  1.00  0.00     0.031 C 
HETATM    9  C8  UNL     1      21.037   6.241  48.520  1.00  0.00     0.054 C 
HETATM   10  C9  UNL     1      22.419   5.827  48.895  1.00  0.00     0.118 A 
HETATM   11  C10 UNL     1      23.594   6.091  49.518  1.00  0.00    -0.024 A 
HETATM   12  O2  UNL     1      22.736   7.164  49.646  1.00  0.00     0.000 OA
HETATM   13  C11 UNL     1      23.122   8.490  49.322  1.00  0.00     0.000 C 
HETATM   14  C12 UNL     1      24.688   5.110  49.538  1.00  0.00     0.092 C 
HETATM   15  C13 UNL     1      25.951   5.565  48.970  1.00  0.00     0.021 C 
HETATM   16  C14 UNL     1      26.772   4.523  49.067  1.00  0.00     0.060 C 
HETATM   17  C16 UNL     1      26.497   3.165  49.628  1.00  0.00     0.194 C 
HETATM   18  N2  UNL     1      25.696   3.340  50.827  1.00  0.00    -0.300 N 
HETATM   19  C17 UNL     1      25.623   2.452  51.960  1.00  0.00     0.321 C 
HETATM   20  O4  UNL     1      24.915   2.641  53.003  1.00  0.00    -0.247 OA
HETATM   21  N3  UNL     1      26.347   1.231  52.056  1.00  0.00    -0.333 N 
HETATM   22  C23 UNL     1      24.869   4.524  50.936  1.00  0.00     0.246 C 
HETATM   23  O5  UNL     1      23.699   4.208  51.615  1.00  0.00    -0.324 OA
HETATM   24  H19 UNL     1      26.977   0.958  51.245  1.00  0.00     0.165 HD
ENDROOT
BRANCH  16  25
HETATM   25  O3  UNL     1      28.060   4.722  48.582  1.00  0.00    -0.359 OA
HETATM   26  C15 UNL     1      28.586   5.974  48.223  1.00  0.00     0.209 C 
ENDBRANCH  16  25
BRANCH  21  27
HETATM   27  C18 UNL     1      26.281   0.345  53.176  1.00  0.00     0.141 C 
HETATM   28  C19 UNL     1      25.061  -0.552  53.018  1.00  0.00     0.039 C 
BRANCH  27  29
HETATM   29  C20 UNL     1      27.501  -0.486  53.287  1.00  0.00     0.097 A 
HETATM   30  N4  UNL     1      27.908  -1.571  53.181  1.00  0.00    -0.256 NA
HETATM   31  C21 UNL     1      29.150  -1.975  53.373  1.00  0.00     0.124 A 
HETATM   32  C22 UNL     1      30.134  -0.971  53.760  1.00  0.00     0.071 A 
HETATM   33  S1  UNL     1      29.008   0.557  53.791  1.00  0.00    -0.083 SA
ENDBRANCH  27  29
ENDBRANCH  21  27
BRANCH  10  34
HETATM   34  O1  UNL     1      22.514   4.558  48.276  1.00  0.00    -0.382 OA
HETATM   35  H8  UNL     1      22.274   3.742  48.815  1.00  0.00     0.211 HD
ENDBRANCH  10  34
TORSDOF 4
ENDMDL
MODEL 2
REMARK VINA RESULT:      -8.7      3.600      7.580
REMARK  4 active torsions:
REMARK  status: ('A' for Active; 'I' for Inactive)
REMARK    1  A    between atoms: C9_10  and  O1_11 
REMARK    2  A    between atoms: C14_17  and  O3_18 
REMARK       I    between atoms: N2_21  and  C17_22 
REMARK       I    between atoms: C17_22  and  N3_24 
REMARK    3  A    between atoms: N3_24  and  C18_25 
REMARK    4  A    between atoms: C18_25  and  C20_27 
ROOT
HETATM    1  C1  UNL     1      25.786   0.079  52.173  1.00  0.00     0.078 A 
HETATM    2  C2  UNL     1      24.980   0.277  53.256  1.00  0.00    -0.013 A 
HETATM    3  C3  UNL     1      23.771   0.161  52.645  1.00  0.00     0.078 A 
HETATM    4  C4  UNL     1      23.486  -0.677  53.726  1.00  0.00     0.056 A 
HETATM    5  C5  UNL     1      24.417  -0.950  54.739  1.00  0.00     0.114 A 
HETATM    6  N1  UNL     1      25.679  -0.434  54.777  1.00  0.00    -0.285 NA
HETATM    7  C6  UNL     1      26.173   0.399  53.848  1.00  0.00     0.087 A 
HETATM    8  C7  UNL     1      27.230   1.183  53.802  1.00  0.00     0.031 C 
HETATM    9  C8  UNL     1      27.344   2.390  52.878  1.00  0.00     0.054 C 
HETATM   10  C9  UNL     1      25.960   2.695  52.415  1.00  0.00     0.118 A 
HETATM   11  C10 UNL     1      25.084   2.919  51.404  1.00  0.00    -0.024 A 
HETATM   12  O2  UNL     1      26.352   2.714  50.899  1.00  0.00     0.000 OA
HETATM   13  C11 UNL     1      26.956   3.607  49.977  1.00  0.00     0.000 C 
HETATM   14  C12 UNL     1      23.658   3.163  51.666  1.00  0.00     0.092 C 
HETATM   15  C13 UNL     1      23.134   4.427  51.163  1.00  0.00     0.021 C 
HETATM   16  C14 UNL     1      21.857   4.446  51.532  1.00  0.00     0.060 C 
HETATM   17  C16 UNL     1      21.090   3.417  52.298  1.00  0.00     0.194 C 
HETATM   18  N2  UNL     1      21.494   2.112  51.804  1.00  0.00    -0.300 N 
HETATM   19  C17 UNL     1      20.719   0.897  51.826  1.00  0.00     0.321 C 
HETATM   20  O4  UNL     1      21.101  -0.232  51.375  1.00  0.00    -0.247 OA
HETATM   21  N3  UNL     1      19.405   0.807  52.364  1.00  0.00    -0.333 N 
HETATM   22  C23 UNL     1      22.811   1.975  51.218  1.00  0.00     0.246 C 
HETATM   23  O5  UNL     1      23.323   0.720  51.521  1.00  0.00    -0.324 OA
HETATM   24  H19 UNL     1      18.970   1.685  52.773  1.00  0.00     0.165 HD
ENDROOT
BRANCH  16  25
HETATM   25  O3  UNL     1      21.137   5.574  51.156  1.00  0.00    -0.359 OA
HETATM   26  C15 UNL     1      21.714   6.820  50.859  1.00  0.00     0.209 C 
ENDBRANCH  16  25
BRANCH  21  27
HETATM   27  C18 UNL     1      18.629  -0.394  52.388  1.00  0.00     0.141 C 
HETATM   28  C19 UNL     1      19.017  -1.202  53.620  1.00  0.00     0.039 C 
BRANCH  27  29
HETATM   29  C20 UNL     1      17.177  -0.105  52.418  1.00  0.00     0.097 A 
HETATM   30  N4  UNL     1      16.184  -0.351  52.972  1.00  0.00    -0.256 NA
HETATM   31  C21 UNL     1      14.985   0.129  52.703  1.00  0.00     0.124 A 
HETATM   32  C22 UNL     1      14.869   1.074  51.597  1.00  0.00     0.071 A 
HETATM   33  S1  UNL     1      16.688   1.131  51.059  1.00  0.00    -0.083 SA
ENDBRANCH  27  29
ENDBRANCH  21  27
BRANCH  10  34
HETATM   34  O1  UNL     1      25.269   2.814  53.643  1.00  0.00    -0.382 OA
HETATM   35  H8  UNL     1      24.471   2.220  53.804  1.00  0.00     0.211 HD
ENDBRANCH  10  34
TORSDOF 4
ENDMDL
MODEL 3
REMARK VINA RESULT:      -8.0      3.331      6.447
REMARK  4 active torsions:
REMARK  status: ('A' for Active; 'I' for Inactive)
REMARK    1  A    between atoms: C9_10  and  O1_11 
REMARK    2  A    between atoms: C14_17  and  O3_18 
REMARK       I    between atoms: N2_21  and  C17_22 
REMARK       I    between atoms: C17_22  and  N3_24 
REMARK    3  A    between atoms: N3_24  and  C18_25 
REMARK    4  A    between atoms: C18_25  and  C20_27 
ROOT
HETATM    1  C1  UNL     1      20.701   1.767  53.332  1.00  0.00     0.078 A 
HETATM    2  C2  UNL     1      21.704   1.165  52.631  1.00  0.00    -0.013 A 
HETATM    3  C3  UNL     1      22.289   2.273  52.103  1.00  0.00     0.078 A 
HETATM    4  C4  UNL     1      23.466   1.667  52.548  1.00  0.00     0.056 A 
HETATM    5  C5  UNL     1      23.478   0.430  53.210  1.00  0.00     0.114 A 
HETATM    6  N1  UNL     1      22.360  -0.301  53.484  1.00  0.00    -0.285 NA
HETATM    7  C6  UNL     1      21.118   0.080  53.146  1.00  0.00     0.087 A 
HETATM    8  C7  UNL     1      19.961  -0.547  53.091  1.00  0.00     0.031 C 
HETATM    9  C8  UNL     1      18.791  -0.079  52.231  1.00  0.00     0.054 C 
HETATM   10  C9  UNL     1      19.354   0.888  51.246  1.00  0.00     0.118 A 
HETATM   11  C10 UNL     1      19.331   2.108  50.656  1.00  0.00    -0.024 A 
HETATM   12  O2  UNL     1      18.305   2.003  51.573  1.00  0.00     0.000 OA
HETATM   13  C11 UNL     1      16.959   2.314  51.247  1.00  0.00     0.000 C 
HETATM   14  C12 UNL     1      20.322   2.487  49.639  1.00  0.00     0.092 C 
HETATM   15  C13 UNL     1      19.777   2.875  48.344  1.00  0.00     0.021 C 
HETATM   16  C14 UNL     1      20.837   3.143  47.587  1.00  0.00     0.060 C 
HETATM   17  C16 UNL     1      22.285   3.073  47.947  1.00  0.00     0.194 C 
HETATM   18  N2  UNL     1      22.429   3.605  49.292  1.00  0.00    -0.300 N 
HETATM   19  C17 UNL     1      23.602   4.219  49.862  1.00  0.00     0.321 C 
HETATM   20  O4  UNL     1      23.691   4.684  51.045  1.00  0.00    -0.247 OA
HETATM   21  N3  UNL     1      24.829   4.384  49.161  1.00  0.00    -0.333 N 
HETATM   22  C23 UNL     1      21.293   3.531  50.186  1.00  0.00     0.246 C 
HETATM   23  O5  UNL     1      21.740   3.319  51.484  1.00  0.00    -0.324 OA
HETATM   24  H19 UNL     1      24.883   4.035  48.159  1.00  0.00     0.165 HD
ENDROOT
BRANCH  16  25
HETATM   25  O3  UNL     1      20.562   3.544  46.284  1.00  0.00    -0.359 OA
HETATM   26  C15 UNL     1      21.542   3.892  45.340  1.00  0.00     0.209 C 
ENDBRANCH  16  25
BRANCH  21  27
HETATM   27  C18 UNL     1      25.996   4.993  49.719  1.00  0.00     0.141 C 
HETATM   28  C19 UNL     1      27.222   4.455  48.994  1.00  0.00     0.039 C 
BRANCH  27  29
HETATM   29  C20 UNL     1      25.951   6.468  49.599  1.00  0.00     0.097 A 
HETATM   30  N4  UNL     1      25.462   7.429  50.036  1.00  0.00    -0.256 NA
HETATM   31  C21 UNL     1      25.674   8.674  49.652  1.00  0.00     0.124 A 
HETATM   32  C22 UNL     1      26.622   8.891  48.564  1.00  0.00     0.071 A 
HETATM   33  S1  UNL     1      27.110   7.088  48.227  1.00  0.00    -0.083 SA
ENDBRANCH  27  29
ENDBRANCH  21  27
BRANCH  10  34
HETATM   34  O1  UNL     1      20.394   0.126  50.662  1.00  0.00    -0.382 OA
HETATM   35  H8  UNL     1      20.270  -0.870  50.582  1.00  0.00     0.211 HD
ENDBRANCH  10  34
TORSDOF 4
ENDMDL
MODEL 4
REMARK VINA RESULT:      -8.0      3.730      7.814
REMARK  4 active torsions:
REMARK  status: ('A' for Active; 'I' for Inactive)
REMARK    1  A    between atoms: C9_10  and  O1_11 
REMARK    2  A    between atoms: C14_17  and  O3_18 
REMARK       I    between atoms: N2_21  and  C17_22 
REMARK       I    between atoms: C17_22  and  N3_24 
REMARK    3  A    between atoms: N3_24  and  C18_25 
REMARK    4  A    between atoms: C18_25  and  C20_27 
ROOT
HETATM    1  C1  UNL     1      25.050  -0.013  52.068  1.00  0.00     0.078 A 
HETATM    2  C2  UNL     1      24.184   0.213  53.097  1.00  0.00    -0.013 A 
HETATM    3  C3  UNL     1      23.024   0.268  52.390  1.00  0.00     0.078 A 
HETATM    4  C4  UNL     1      22.563  -0.593  53.389  1.00  0.00     0.056 A 
HETATM    5  C5  UNL     1      23.372  -1.025  54.450  1.00  0.00     0.114 A 
HETATM    6  N1  UNL     1      24.675  -0.657  54.617  1.00  0.00    -0.285 NA
HETATM    7  C6  UNL     1      25.330   0.167  53.784  1.00  0.00     0.087 A 
HETATM    8  C7  UNL     1      26.466   0.829  53.870  1.00  0.00     0.031 C 
HETATM    9  C8  UNL     1      26.784   2.066  53.038  1.00  0.00     0.054 C 
HETATM   10  C9  UNL     1      25.483   2.550  52.491  1.00  0.00     0.118 A 
HETATM   11  C10 UNL     1      24.723   2.927  51.434  1.00  0.00    -0.024 A 
HETATM   12  O2  UNL     1      25.999   2.610  51.014  1.00  0.00     0.000 OA
HETATM   13  C11 UNL     1      26.770   3.480  50.201  1.00  0.00     0.000 C 
HETATM   14  C12 UNL     1      23.315   3.314  51.602  1.00  0.00     0.092 C 
HETATM   15  C13 UNL     1      22.973   4.655  51.144  1.00  0.00     0.021 C 
HETATM   16  C14 UNL     1      21.679   4.795  51.415  1.00  0.00     0.060 C 
HETATM   17  C16 UNL     1      20.745   3.818  52.052  1.00  0.00     0.194 C 
HETATM   18  N2  UNL     1      21.047   2.505  51.507  1.00  0.00    -0.300 N 
HETATM   19  C17 UNL     1      20.147   1.385  51.391  1.00  0.00     0.321 C 
HETATM   20  O4  UNL     1      20.442   0.247  50.898  1.00  0.00    -0.247 OA
HETATM   21  N3  UNL     1      18.790   1.413  51.820  1.00  0.00    -0.333 N 
HETATM   22  C23 UNL     1      22.385   2.255  51.015  1.00  0.00     0.246 C 
HETATM   23  O5  UNL     1      22.733   0.935  51.273  1.00  0.00    -0.324 OA
HETATM   24  H19 UNL     1      18.420   2.310  52.252  1.00  0.00     0.165 HD
ENDROOT
BRANCH  16  25
HETATM   25  O3  UNL     1      21.117   6.016  51.060  1.00  0.00    -0.359 OA
HETATM   26  C15 UNL     1      21.849   7.200  50.871  1.00  0.00     0.209 C 
ENDBRANCH  16  25
BRANCH  21  27
HETATM   27  C18 UNL     1      17.891   0.307  51.707  1.00  0.00     0.141 C 
HETATM   28  C19 UNL     1      18.016  -0.554  52.958  1.00  0.00     0.039 C 
BRANCH  27  29
HETATM   29  C20 UNL     1      16.490   0.758  51.549  1.00  0.00     0.097 A 
HETATM   30  N4  UNL     1      15.800   1.480  50.952  1.00  0.00    -0.256 NA
HETATM   31  C21 UNL     1      14.496   1.628  51.091  1.00  0.00     0.124 A 
HETATM   32  C22 UNL     1      13.826   0.807  52.093  1.00  0.00     0.071 A 
HETATM   33  S1  UNL     1      15.329  -0.149  52.750  1.00  0.00    -0.083 SA
ENDBRANCH  27  29
ENDBRANCH  21  27
BRANCH  10  34
HETATM   34  O1  UNL     1      24.710   2.676  53.669  1.00  0.00    -0.382 OA
HETATM   35  H8  UNL     1      23.762   3.007  53.587  1.00  0.00     0.211 HD
ENDBRANCH  10  34
TORSDOF 4
ENDMDL
MODEL 5
REMARK VINA RESULT:      -7.9      4.505      8.554
REMARK  4 active torsions:
REMARK  status: ('A' for Active; 'I' for Inactive)
REMARK    1  A    between atoms: C9_10  and  O1_11 
REMARK    2  A    between atoms: C14_17  and  O3_18 
REMARK       I    between atoms: N2_21  and  C17_22 
REMARK       I    between atoms: C17_22  and  N3_24 
REMARK    3  A    between atoms: N3_24  and  C18_25 
REMARK    4  A    between atoms: C18_25  and  C20_27 
ROOT
HETATM    1  C1  UNL     1      22.619   4.866  50.591  1.00  0.00     0.078 A 
HETATM    2  C2  UNL     1      21.911   4.074  49.735  1.00  0.00    -0.013 A 
HETATM    3  C3  UNL     1      20.761   3.963  50.451  1.00  0.00     0.078 A 
HETATM    4  C4  UNL     1      20.159   4.265  49.227  1.00  0.00     0.056 A 
HETATM    5  C5  UNL     1      20.898   4.499  48.058  1.00  0.00     0.114 A 
HETATM    6  N1  UNL     1      22.260   4.456  47.991  1.00  0.00    -0.285 NA
HETATM    7  C6  UNL     1      23.049   4.180  49.041  1.00  0.00     0.087 A 
HETATM    8  C7  UNL     1      24.320   3.857  49.160  1.00  0.00     0.031 C 
HETATM    9  C8  UNL     1      24.892   3.120  50.365  1.00  0.00     0.054 C 
HETATM   10  C9  UNL     1      23.728   2.530  51.088  1.00  0.00     0.118 A 
HETATM   11  C10 UNL     1      23.024   2.358  52.233  1.00  0.00    -0.024 A 
HETATM   12  O2  UNL     1      24.144   3.128  52.474  1.00  0.00     0.000 OA
HETATM   13  C11 UNL     1      25.057   2.834  53.518  1.00  0.00     0.000 C 
HETATM   14  C12 UNL     1      21.778   1.577  52.256  1.00  0.00     0.092 C 
HETATM   15  C13 UNL     1      21.766   0.441  53.169  1.00  0.00     0.021 C 
HETATM   16  C14 UNL     1      20.573  -0.124  53.005  1.00  0.00     0.060 C 
HETATM   17  C16 UNL     1      19.463   0.285  52.093  1.00  0.00     0.194 C 
HETATM   18  N2  UNL     1      19.377   1.735  52.129  1.00  0.00    -0.300 N 
HETATM   19  C17 UNL     1      18.212   2.543  51.869  1.00  0.00     0.321 C 
HETATM   20  O4  UNL     1      18.169   3.816  51.919  1.00  0.00    -0.247 OA
HETATM   21  N3  UNL     1      16.940   2.008  51.520  1.00  0.00    -0.333 N 
HETATM   22  C23 UNL     1      20.569   2.487  52.459  1.00  0.00     0.246 C 
HETATM   23  O5  UNL     1      20.580   3.675  51.740  1.00  0.00    -0.324 OA
HETATM   24  H19 UNL     1      16.845   0.953  51.445  1.00  0.00     0.165 HD
ENDROOT
BRANCH  16  25
HETATM   25  O3  UNL     1      20.324  -1.247  53.786  1.00  0.00    -0.359 OA
HETATM   26  C15 UNL     1      21.300  -1.917  54.544  1.00  0.00     0.209 C 
ENDBRANCH  16  25
BRANCH  21  27
HETATM   27  C18 UNL     1      15.780   2.803  51.262  1.00  0.00     0.141 C 
HETATM   28  C19 UNL     1      15.346   2.581  49.819  1.00  0.00     0.039 C 
BRANCH  27  29
HETATM   29  C20 UNL     1      14.668   2.456  52.176  1.00  0.00     0.097 A 
HETATM   30  N4  UNL     1      13.738   2.888  52.726  1.00  0.00    -0.256 NA
HETATM   31  C21 UNL     1      12.914   2.236  53.525  1.00  0.00     0.124 A 
HETATM   32  C22 UNL     1      13.178   0.821  53.757  1.00  0.00     0.071 A 
HETATM   33  S1  UNL     1      14.730   0.625  52.681  1.00  0.00    -0.083 SA
ENDBRANCH  27  29
ENDBRANCH  21  27
BRANCH  10  34
HETATM   34  O1  UNL     1      23.094   1.800  50.055  1.00  0.00    -0.382 OA
HETATM   35  H8  UNL     1      23.421   0.868  49.856  1.00  0.00     0.211 HD
ENDBRANCH  10  34
TORSDOF 4
ENDMDL
MODEL 6
REMARK VINA RESULT:      -7.5      4.931      9.670
REMARK  4 active torsions:
REMARK  status: ('A' for Active; 'I' for Inactive)
REMARK    1  A    between atoms: C9_10  and  O1_11 
REMARK    2  A    between atoms: C14_17  and  O3_18 
REMARK       I    between atoms: N2_21  and  C17_22 
REMARK       I    between atoms: C17_22  and  N3_24 
REMARK    3  A    between atoms: N3_24  and  C18_25 
REMARK    4  A    between atoms: C18_25  and  C20_27 
ROOT
HETATM    1  C1  UNL     1      32.580   6.972  46.035  1.00  0.00     0.078 A 
HETATM    2  C2  UNL     1      32.339   6.629  47.333  1.00  0.00    -0.013 A 
HETATM    3  C3  UNL     1      30.980   6.648  47.309  1.00  0.00     0.078 A 
HETATM    4  C4  UNL     1      31.112   5.418  47.960  1.00  0.00     0.056 A 
HETATM    5  C5  UNL     1      32.359   4.855  48.268  1.00  0.00     0.114 A 
HETATM    6  N1  UNL     1      33.556   5.437  47.971  1.00  0.00    -0.285 NA
HETATM    7  C6  UNL     1      33.676   6.622  47.352  1.00  0.00     0.087 A 
HETATM    8  C7  UNL     1      34.678   7.461  47.185  1.00  0.00     0.031 C 
HETATM    9  C8  UNL     1      34.492   8.944  46.885  1.00  0.00     0.054 C 
HETATM   10  C9  UNL     1      33.076   9.267  47.227  1.00  0.00     0.118 A 
HETATM   11  C10 UNL     1      31.876   9.791  46.877  1.00  0.00    -0.024 A 
HETATM   12  O2  UNL     1      32.780   9.941  45.844  1.00  0.00     0.000 OA
HETATM   13  C11 UNL     1      33.007  11.188  45.208  1.00  0.00     0.000 C 
HETATM   14  C12 UNL     1      30.729   9.760  47.796  1.00  0.00     0.092 C 
HETATM   15  C13 UNL     1      30.156  11.058  48.131  1.00  0.00     0.021 C 
HETATM   16  C14 UNL     1      29.169  10.794  48.981  1.00  0.00     0.060 C 
HETATM   17  C16 UNL     1      28.716   9.469  49.505  1.00  0.00     0.194 C 
HETATM   18  N2  UNL     1      28.749   8.526  48.400  1.00  0.00    -0.300 N 
HETATM   19  C17 UNL     1      27.952   7.334  48.251  1.00  0.00     0.321 C 
HETATM   20  O4  UNL     1      28.000   6.532  47.263  1.00  0.00    -0.247 OA
HETATM   21  N3  UNL     1      26.994   6.899  49.209  1.00  0.00    -0.333 N 
HETATM   22  C23 UNL     1      29.668   8.776  47.310  1.00  0.00     0.246 C 
HETATM   23  O5  UNL     1      30.145   7.566  46.822  1.00  0.00    -0.324 OA
HETATM   24  H19 UNL     1      26.859   7.486  50.084  1.00  0.00     0.165 HD
ENDROOT
BRANCH  16  25
HETATM   25  O3  UNL     1      28.462  11.896  49.447  1.00  0.00    -0.359 OA
HETATM   26  C15 UNL     1      28.007  12.947  48.632  1.00  0.00     0.209 C 
ENDBRANCH  16  25
BRANCH  21  27
HETATM   27  C18 UNL     1      26.199   5.719  49.068  1.00  0.00     0.141 C 
HETATM   28  C19 UNL     1      27.105   4.501  49.194  1.00  0.00     0.039 C 
BRANCH  27  29
HETATM   29  C20 UNL     1      25.132   5.655  50.092  1.00  0.00     0.097 A 
HETATM   30  N4  UNL     1      24.559   6.282  50.888  1.00  0.00    -0.256 NA
HETATM   31  C21 UNL     1      23.593   5.862  51.684  1.00  0.00     0.124 A 
HETATM   32  C22 UNL     1      23.182   4.467  51.569  1.00  0.00     0.071 A 
HETATM   33  S1  UNL     1      24.371   3.917  50.194  1.00  0.00    -0.083 SA
ENDBRANCH  27  29
ENDBRANCH  21  27
BRANCH  10  34
HETATM   34  O1  UNL     1      32.994   8.805  48.561  1.00  0.00    -0.382 OA
HETATM   35  H8  UNL     1      32.382   9.289  49.199  1.00  0.00     0.211 HD
ENDBRANCH  10  34
TORSDOF 4
ENDMDL
MODEL 7
REMARK VINA RESULT:      -7.5      5.983      9.386
REMARK  4 active torsions:
REMARK  status: ('A' for Active; 'I' for Inactive)
REMARK    1  A    between atoms: C9_10  and  O1_11 
REMARK    2  A    between atoms: C14_17  and  O3_18 
REMARK       I    between atoms: N2_21  and  C17_22 
REMARK       I    between atoms: C17_22  and  N3_24 
REMARK    3  A    between atoms: N3_24  and  C18_25 
REMARK    4  A    between atoms: C18_25  and  C20_27 
ROOT
HETATM    1  C1  UNL     1      28.628  11.833  46.734  1.00  0.00     0.078 A 
HETATM    2  C2  UNL     1      29.306  11.476  47.862  1.00  0.00    -0.013 A 
HETATM    3  C3  UNL     1      30.033  10.444  47.357  1.00  0.00     0.078 A 
HETATM    4  C4  UNL     1      31.090  11.077  48.014  1.00  0.00     0.056 A 
HETATM    5  C5  UNL     1      30.925  12.262  48.747  1.00  0.00     0.114 A 
HETATM    6  N1  UNL     1      29.735  12.912  48.893  1.00  0.00    -0.285 NA
HETATM    7  C6  UNL     1      28.582  12.487  48.354  1.00  0.00     0.087 A 
HETATM    8  C7  UNL     1      27.318  12.801  48.552  1.00  0.00     0.031 C 
HETATM    9  C8  UNL     1      26.157  11.877  48.203  1.00  0.00     0.054 C 
HETATM   10  C9  UNL     1      26.743  10.518  48.018  1.00  0.00     0.118 A 
HETATM   11  C10 UNL     1      26.905   9.404  47.263  1.00  0.00    -0.024 A 
HETATM   12  O2  UNL     1      26.074  10.298  46.619  1.00  0.00     0.000 OA
HETATM   13  C11 UNL     1      24.808   9.922  46.102  1.00  0.00     0.000 C 
HETATM   14  C12 UNL     1      27.750   8.288  47.715  1.00  0.00     0.092 C 
HETATM   15  C13 UNL     1      27.082   6.997  47.821  1.00  0.00     0.021 C 
HETATM   16  C14 UNL     1      28.014   6.159  48.266  1.00  0.00     0.060 C 
HETATM   17  C16 UNL     1      29.443   6.441  48.598  1.00  0.00     0.194 C 
HETATM   18  N2  UNL     1      29.961   7.339  47.579  1.00  0.00    -0.300 N 
HETATM   19  C17 UNL     1      31.333   7.478  47.160  1.00  0.00     0.321 C 
HETATM   20  O4  UNL     1      31.752   8.271  46.254  1.00  0.00    -0.247 OA
HETATM   21  N3  UNL     1      32.410   6.732  47.715  1.00  0.00    -0.333 N 
HETATM   22  C23 UNL     1      29.029   8.204  46.886  1.00  0.00     0.246 C 
HETATM   23  O5  UNL     1      29.647   9.415  46.602  1.00  0.00    -0.324 OA
HETATM   24  H19 UNL     1      32.189   6.032  48.484  1.00  0.00     0.165 HD
ENDROOT
BRANCH  16  25
HETATM   25  O3  UNL     1      27.605   4.843  48.447  1.00  0.00    -0.359 OA
HETATM   26  C15 UNL     1      26.562   4.448  49.301  1.00  0.00     0.209 C 
ENDBRANCH  16  25
BRANCH  21  27
HETATM   27  C18 UNL     1      33.772   6.863  47.304  1.00  0.00     0.141 C 
HETATM   28  C19 UNL     1      34.636   7.090  48.537  1.00  0.00     0.039 C 
BRANCH  27  29
HETATM   29  C20 UNL     1      34.242   5.660  46.580  1.00  0.00     0.097 A 
HETATM   30  N4  UNL     1      34.742   4.618  46.720  1.00  0.00    -0.256 NA
HETATM   31  C21 UNL     1      35.034   3.744  45.775  1.00  0.00     0.124 A 
HETATM   32  C22 UNL     1      34.699   4.100  44.400  1.00  0.00     0.071 A 
HETATM   33  S1  UNL     1      33.941   5.813  44.710  1.00  0.00    -0.083 SA
ENDBRANCH  27  29
ENDBRANCH  21  27
BRANCH  10  34
HETATM   34  O1  UNL     1      27.438  10.340  49.237  1.00  0.00    -0.382 OA
HETATM   35  H8  UNL     1      27.231  10.962  50.002  1.00  0.00     0.211 HD
ENDBRANCH  10  34
TORSDOF 4
ENDMDL
MODEL 8
REMARK VINA RESULT:      -7.5      3.761      8.846
REMARK  4 active torsions:
REMARK  status: ('A' for Active; 'I' for Inactive)
REMARK    1  A    between atoms: C9_10  and  O1_11 
REMARK    2  A    between atoms: C14_17  and  O3_18 
REMARK       I    between atoms: N2_21  and  C17_22 
REMARK       I    between atoms: C17_22  and  N3_24 
REMARK    3  A    between atoms: N3_24  and  C18_25 
REMARK    4  A    between atoms: C18_25  and  C20_27 
ROOT
HETATM    1  C1  UNL     1      24.185   2.789  53.137  1.00  0.00     0.078 A 
HETATM    2  C2  UNL     1      24.203   2.942  51.782  1.00  0.00    -0.013 A 
HETATM    3  C3  UNL     1      23.331   3.980  51.673  1.00  0.00     0.078 A 
HETATM    4  C4  UNL     1      24.316   4.509  50.836  1.00  0.00     0.056 A 
HETATM    5  C5  UNL     1      25.516   3.838  50.560  1.00  0.00     0.114 A 
HETATM    6  N1  UNL     1      25.845   2.617  51.071  1.00  0.00    -0.285 NA
HETATM    7  C6  UNL     1      25.052   1.916  51.896  1.00  0.00     0.087 A 
HETATM    8  C7  UNL     1      25.050   0.663  52.305  1.00  0.00     0.031 C 
HETATM    9  C8  UNL     1      23.810  -0.045  52.838  1.00  0.00     0.054 C 
HETATM   10  C9  UNL     1      22.641   0.781  52.419  1.00  0.00     0.118 A 
HETATM   11  C10 UNL     1      21.504   1.448  52.733  1.00  0.00    -0.024 A 
HETATM   12  O2  UNL     1      22.034   0.855  53.861  1.00  0.00     0.000 OA
HETATM   13  C11 UNL     1      21.262   0.035  54.724  1.00  0.00     0.000 C 
HETATM   14  C12 UNL     1      20.736   2.177  51.713  1.00  0.00     0.092 C 
HETATM   15  C13 UNL     1      19.348   1.761  51.554  1.00  0.00     0.021 C 
HETATM   16  C14 UNL     1      18.866   2.522  50.577  1.00  0.00     0.060 C 
HETATM   17  C16 UNL     1      19.563   3.583  49.788  1.00  0.00     0.194 C 
HETATM   18  N2  UNL     1      20.393   4.341  50.709  1.00  0.00    -0.300 N 
HETATM   19  C17 UNL     1      20.819   5.711  50.569  1.00  0.00     0.321 C 
HETATM   20  O4  UNL     1      21.541   6.349  51.402  1.00  0.00    -0.247 OA
HETATM   21  N3  UNL     1      20.480   6.535  49.459  1.00  0.00    -0.333 N 
HETATM   22  C23 UNL     1      20.860   3.685  51.912  1.00  0.00     0.246 C 
HETATM   23  O5  UNL     1      22.131   4.151  52.228  1.00  0.00    -0.324 OA
HETATM   24  H19 UNL     1      19.878   6.116  48.691  1.00  0.00     0.165 HD
ENDROOT
BRANCH  16  25
HETATM   25  O3  UNL     1      17.535   2.304  50.242  1.00  0.00    -0.359 OA
HETATM   26  C15 UNL     1      16.459   2.454  51.133  1.00  0.00     0.209 C 
ENDBRANCH  16  25
BRANCH  21  27
HETATM   27  C18 UNL     1      20.898   7.894  49.313  1.00  0.00     0.141 C 
HETATM   28  C19 UNL     1      21.780   8.004  48.076  1.00  0.00     0.039 C 
BRANCH  27  29
HETATM   29  C20 UNL     1      19.741   8.809  49.185  1.00  0.00     0.097 A 
HETATM   30  N4  UNL     1      19.185   9.694  49.697  1.00  0.00    -0.256 NA
HETATM   31  C21 UNL     1      18.099  10.307  49.264  1.00  0.00     0.124 A 
HETATM   32  C22 UNL     1      17.517   9.842  48.010  1.00  0.00     0.071 A 
HETATM   33  S1  UNL     1      18.747   8.453  47.605  1.00  0.00    -0.083 SA
ENDBRANCH  27  29
ENDBRANCH  21  27
BRANCH  10  34
HETATM   34  O1  UNL     1      22.848   0.878  51.023  1.00  0.00    -0.382 OA
HETATM   35  H8  UNL     1      22.148   1.340  50.465  1.00  0.00     0.211 HD
ENDBRANCH  10  34
TORSDOF 4
ENDMDL
MODEL 9
REMARK VINA RESULT:      -7.3      7.082     10.939
REMARK  4 active torsions:
REMARK  status: ('A' for Active; 'I' for Inactive)
REMARK    1  A    between atoms: C9_10  and  O1_11 
REMARK    2  A    between atoms: C14_17  and  O3_18 
REMARK       I    between atoms: N2_21  and  C17_22 
REMARK       I    between atoms: C17_22  and  N3_24 
REMARK    3  A    between atoms: N3_24  and  C18_25 
REMARK    4  A    between atoms: C18_25  and  C20_27 
ROOT
HETATM    1  C1  UNL     1      28.490  10.008  47.070  1.00  0.00     0.078 A 
HETATM    2  C2  UNL     1      29.743  10.263  47.546  1.00  0.00    -0.013 A 
HETATM    3  C3  UNL     1      30.469   9.663  46.565  1.00  0.00     0.078 A 
HETATM    4  C4  UNL     1      31.199  10.854  46.600  1.00  0.00     0.056 A 
HETATM    5  C5  UNL     1      30.887  11.908  47.471  1.00  0.00     0.114 A 
HETATM    6  N1  UNL     1      29.855  11.883  48.364  1.00  0.00    -0.285 NA
HETATM    7  C6  UNL     1      29.022  10.842  48.511  1.00  0.00     0.087 A 
HETATM    8  C7  UNL     1      28.144  10.507  49.434  1.00  0.00     0.031 C 
HETATM    9  C8  UNL     1      27.667   9.077  49.662  1.00  0.00     0.054 C 
HETATM   10  C9  UNL     1      28.648   8.192  48.970  1.00  0.00     0.118 A 
HETATM   11  C10 UNL     1      28.909   7.192  48.092  1.00  0.00    -0.024 A 
HETATM   12  O2  UNL     1      27.549   7.406  48.179  1.00  0.00     0.000 OA
HETATM   13  C11 UNL     1      26.628   6.353  48.416  1.00  0.00     0.000 C 
HETATM   14  C12 UNL     1      30.286   6.764  47.807  1.00  0.00     0.092 C 
HETATM   15  C13 UNL     1      30.575   5.359  48.069  1.00  0.00     0.021 C 
HETATM   16  C14 UNL     1      31.861   5.206  47.772  1.00  0.00     0.060 C 
HETATM   17  C16 UNL     1      32.834   6.227  47.278  1.00  0.00     0.194 C 
HETATM   18  N2  UNL     1      32.145   7.053  46.301  1.00  0.00    -0.300 N 
HETATM   19  C17 UNL     1      32.738   7.782  45.208  1.00  0.00     0.321 C 
HETATM   20  O4  UNL     1      32.101   8.491  44.361  1.00  0.00    -0.247 OA
HETATM   21  N3  UNL     1      34.134   7.801  44.934  1.00  0.00    -0.333 N 
HETATM   22  C23 UNL     1      30.707   7.181  46.400  1.00  0.00     0.246 C 
HETATM   23  O5  UNL     1      30.329   8.459  46.011  1.00  0.00    -0.324 OA
HETATM   24  H19 UNL     1      34.776   7.245  45.572  1.00  0.00     0.165 HD
ENDROOT
BRANCH  16  25
HETATM   25  O3  UNL     1      32.373   3.925  47.945  1.00  0.00    -0.359 OA
HETATM   26  C15 UNL     1      32.769   3.083  46.892  1.00  0.00     0.209 C 
ENDBRANCH  16  25
BRANCH  21  27
HETATM   27  C18 UNL     1      34.729   8.521  43.851  1.00  0.00     0.141 C 
HETATM   28  C19 UNL     1      35.779   9.470  44.414  1.00  0.00     0.039 C 
BRANCH  27  29
HETATM   29  C20 UNL     1      35.356   7.608  42.869  1.00  0.00     0.097 A 
HETATM   30  N4  UNL     1      36.378   7.228  42.463  1.00  0.00    -0.256 NA
HETATM   31  C21 UNL     1      36.572   6.341  41.505  1.00  0.00     0.124 A 
HETATM   32  C22 UNL     1      35.392   5.761  40.874  1.00  0.00     0.071 A 
HETATM   33  S1  UNL     1      34.048   6.674  41.856  1.00  0.00    -0.083 SA
ENDBRANCH  27  29
ENDBRANCH  21  27
BRANCH  10  34
HETATM   34  O1  UNL     1      29.870   8.623  49.538  1.00  0.00    -0.382 OA
HETATM   35  H8  UNL     1      29.847   9.076  50.437  1.00  0.00     0.211 HD
ENDBRANCH  10  34
TORSDOF 4
ENDMDL
