MODEL 1
REMARK VINA RESULT:      -7.4      0.000      0.000
REMARK  9 active torsions:
REMARK  status: ('A' for Active; 'I' for Inactive)
REMARK    1  A    between atoms: O1_2  and  C2_3 
REMARK    2  A    between atoms: C2_3  and  C3_4 
REMARK    3  A    between atoms: C3_4  and  O2_5 
REMARK    4  A    between atoms: O2_5  and  C4_6 
REMARK    5  A    between atoms: C9_11  and  O3_12 
REMARK    6  A    between atoms: O3_12  and  C10_13 
REMARK    7  A    between atoms: C10_13  and  C11_14 
REMARK    8  A    between atoms: C11_14  and  O4_15 
REMARK    9  A    between atoms: N2_19  and  C14_20 
ROOT
HETATM    1  C4  UNL     1      26.016   2.580  51.204  1.00  0.00     0.102 A 
HETATM    2  C5  UNL     1      24.673   2.305  51.113  1.00  0.00     0.050 A 
HETATM    3  C6  UNL     1      23.980   1.384  51.859  1.00  0.00    -0.008 A 
HETATM    4  C7  UNL     1      24.680   0.655  52.793  1.00  0.00     0.069 A 
HETATM    5  C8  UNL     1      26.053   0.886  52.935  1.00  0.00     0.072 A 
HETATM    6  C9  UNL     1      26.729   1.835  52.156  1.00  0.00     0.104 A 
HETATM    7  N1  UNL     1      24.005  -0.311  53.589  1.00  0.00    -0.243 NA
HETATM    8  C13 UNL     1      22.740  -0.490  53.425  1.00  0.00     0.210 A 
HETATM    9  N2  UNL     1      21.966   0.233  52.476  1.00  0.00    -0.341 N 
HETATM   10  C20 UNL     1      22.540   1.239  51.610  1.00  0.00     0.170 A 
ENDROOT
BRANCH   9  11
HETATM   11  C14 UNL     1      20.572  -0.027  52.357  1.00  0.00     0.017 A 
HETATM   12  C15 UNL     1      19.746   0.290  51.356  1.00  0.00     0.032 A 
HETATM   13  C16 UNL     1      18.403  -0.195  51.707  1.00  0.00    -0.064 A 
HETATM   14  C17 UNL     1      17.181  -0.042  50.850  1.00  0.00     0.048 C 
HETATM   15  C18 UNL     1      18.401  -0.788  52.881  1.00  0.00    -0.014 A 
HETATM   16  C19 UNL     1      19.793  -0.742  53.423  1.00  0.00     0.084 A 
ENDBRANCH   9  11
BRANCH   1  17
HETATM   17  O2  UNL     1      26.848   3.446  50.555  1.00  0.00    -0.346 OA
BRANCH  17  18
HETATM   18  C3  UNL     1      26.861   3.914  49.279  1.00  0.00     0.201 C 
BRANCH  18  19
HETATM   19  C2  UNL     1      26.480   5.347  49.138  1.00  0.00     0.193 C 
BRANCH  19  20
HETATM   20  O1  UNL     1      25.558   5.831  50.009  1.00  0.00    -0.394 OA
HETATM   21  C1  UNL     1      25.625   7.163  50.249  1.00  0.00     0.201 C 
ENDBRANCH  19  20
ENDBRANCH  18  19
ENDBRANCH  17  18
ENDBRANCH   1  17
BRANCH   6  22
HETATM   22  O3  UNL     1      28.091   1.980  52.384  1.00  0.00    -0.346 OA
BRANCH  22  23
HETATM   23  C10 UNL     1      28.483   2.359  53.693  1.00  0.00     0.201 C 
BRANCH  23  24
HETATM   24  C11 UNL     1      29.293   1.324  54.383  1.00  0.00     0.193 C 
BRANCH  24  25
HETATM   25  O4  UNL     1      29.766   0.407  53.466  1.00  0.00    -0.394 OA
HETATM   26  C12 UNL     1      29.626  -0.913  53.795  1.00  0.00     0.201 C 
ENDBRANCH  24  25
ENDBRANCH  23  24
ENDBRANCH  22  23
ENDBRANCH   6  22
TORSDOF 9
ENDMDL
MODEL 2
REMARK VINA RESULT:      -7.4      2.761      7.288
REMARK  9 active torsions:
REMARK  status: ('A' for Active; 'I' for Inactive)
REMARK    1  A    between atoms: O1_2  and  C2_3 
REMARK    2  A    between atoms: C2_3  and  C3_4 
REMARK    3  A    between atoms: C3_4  and  O2_5 
REMARK    4  A    between atoms: O2_5  and  C4_6 
REMARK    5  A    between atoms: C9_11  and  O3_12 
REMARK    6  A    between atoms: O3_12  and  C10_13 
REMARK    7  A    between atoms: C10_13  and  C11_14 
REMARK    8  A    between atoms: C11_14  and  O4_15 
REMARK    9  A    between atoms: N2_19  and  C14_20 
ROOT
HETATM    1  C4  UNL     1      26.446   0.437  52.253  1.00  0.00     0.102 A 
HETATM    2  C5  UNL     1      26.756   1.516  51.462  1.00  0.00     0.050 A 
HETATM    3  C6  UNL     1      25.884   2.486  51.034  1.00  0.00    -0.008 A 
HETATM    4  C7  UNL     1      24.568   2.386  51.424  1.00  0.00     0.069 A 
HETATM    5  C8  UNL     1      24.186   1.308  52.231  1.00  0.00     0.072 A 
HETATM    6  C9  UNL     1      25.104   0.335  52.649  1.00  0.00     0.104 A 
HETATM    7  N1  UNL     1      23.627   3.366  51.005  1.00  0.00    -0.243 NA
HETATM    8  C13 UNL     1      24.023   4.342  50.263  1.00  0.00     0.210 A 
HETATM    9  N2  UNL     1      25.368   4.498  49.829  1.00  0.00    -0.341 N 
HETATM   10  C20 UNL     1      26.414   3.565  50.189  1.00  0.00     0.170 A 
ENDROOT
BRANCH   9  11
HETATM   11  C14 UNL     1      25.723   5.605  49.009  1.00  0.00     0.017 A 
HETATM   12  C15 UNL     1      26.936   5.991  48.605  1.00  0.00     0.032 A 
HETATM   13  C16 UNL     1      26.776   7.193  47.775  1.00  0.00    -0.064 A 
HETATM   14  C17 UNL     1      27.898   7.945  47.122  1.00  0.00     0.048 C 
HETATM   15  C18 UNL     1      25.510   7.536  47.670  1.00  0.00    -0.014 A 
HETATM   16  C19 UNL     1      24.700   6.554  48.452  1.00  0.00     0.084 A 
ENDBRANCH   9  11
BRANCH   1  17
HETATM   17  O2  UNL     1      27.174  -0.600  52.763  1.00  0.00    -0.346 OA
BRANCH  17  18
HETATM   18  C3  UNL     1      28.263  -0.634  53.576  1.00  0.00     0.201 C 
BRANCH  18  19
HETATM   19  C2  UNL     1      28.141   0.186  54.814  1.00  0.00     0.193 C 
BRANCH  19  20
HETATM   20  O1  UNL     1      29.079   1.145  55.018  1.00  0.00    -0.394 OA
HETATM   21  C1  UNL     1      29.083   2.159  54.119  1.00  0.00     0.201 C 
ENDBRANCH  19  20
ENDBRANCH  18  19
ENDBRANCH  17  18
ENDBRANCH   1  17
BRANCH   6  22
HETATM   22  O3  UNL     1      24.613  -0.690  53.448  1.00  0.00    -0.346 OA
BRANCH  22  23
HETATM   23  C10 UNL     1      23.219  -0.682  53.710  1.00  0.00     0.201 C 
BRANCH  23  24
HETATM   24  C11 UNL     1      22.878  -1.173  55.069  1.00  0.00     0.193 C 
BRANCH  24  25
HETATM   25  O4  UNL     1      21.679  -1.856  55.036  1.00  0.00    -0.394 OA
HETATM   26  C12 UNL     1      20.742  -1.402  54.150  1.00  0.00     0.201 C 
ENDBRANCH  24  25
ENDBRANCH  23  24
ENDBRANCH  22  23
ENDBRANCH   6  22
TORSDOF 9
ENDMDL
MODEL 3
REMARK VINA RESULT:      -7.1      3.091      7.900
REMARK  9 active torsions:
REMARK  status: ('A' for Active; 'I' for Inactive)
REMARK    1  A    between atoms: O1_2  and  C2_3 
REMARK    2  A    between atoms: C2_3  and  C3_4 
REMARK    3  A    between atoms: C3_4  and  O2_5 
REMARK    4  A    between atoms: O2_5  and  C4_6 
REMARK    5  A    between atoms: C9_11  and  O3_12 
REMARK    6  A    between atoms: O3_12  and  C10_13 
REMARK    7  A    between atoms: C10_13  and  C11_14 
REMARK    8  A    between atoms: C11_14  and  O4_15 
REMARK    9  A    between atoms: N2_19  and  C14_20 
ROOT
HETATM    1  C4  UNL     1      24.682   0.906  52.330  1.00  0.00     0.102 A 
HETATM    2  C5  UNL     1      25.567   1.779  51.746  1.00  0.00     0.050 A 
HETATM    3  C6  UNL     1      25.265   2.741  50.815  1.00  0.00    -0.008 A 
HETATM    4  C7  UNL     1      23.954   2.860  50.414  1.00  0.00     0.069 A 
HETATM    5  C8  UNL     1      23.001   1.999  50.971  1.00  0.00     0.072 A 
HETATM    6  C9  UNL     1      23.345   1.027  51.920  1.00  0.00     0.104 A 
HETATM    7  N1  UNL     1      23.593   3.842  49.452  1.00  0.00    -0.243 NA
HETATM    8  C13 UNL     1      24.503   4.613  48.966  1.00  0.00     0.210 A 
HETATM    9  N2  UNL     1      25.872   4.537  49.342  1.00  0.00    -0.341 N 
HETATM   10  C20 UNL     1      26.361   3.579  50.310  1.00  0.00     0.170 A 
ENDROOT
BRANCH   9  11
HETATM   11  C14 UNL     1      26.816   5.427  48.757  1.00  0.00     0.017 A 
HETATM   12  C15 UNL     1      28.118   5.232  48.530  1.00  0.00     0.032 A 
HETATM   13  C16 UNL     1      28.655   6.451  47.907  1.00  0.00    -0.064 A 
HETATM   14  C17 UNL     1      30.084   6.647  47.490  1.00  0.00     0.048 C 
HETATM   15  C18 UNL     1      27.719   7.363  47.755  1.00  0.00    -0.014 A 
HETATM   16  C19 UNL     1      26.440   6.803  48.285  1.00  0.00     0.084 A 
ENDBRANCH   9  11
BRANCH   1  17
HETATM   17  O2  UNL     1      24.809  -0.090  53.255  1.00  0.00    -0.346 OA
BRANCH  17  18
HETATM   18  C3  UNL     1      25.895  -0.746  53.743  1.00  0.00     0.201 C 
BRANCH  18  19
HETATM   19  C2  UNL     1      26.593  -0.047  54.857  1.00  0.00     0.193 C 
BRANCH  19  20
HETATM   20  O1  UNL     1      27.906  -0.337  55.046  1.00  0.00    -0.394 OA
HETATM   21  C1  UNL     1      28.777   0.627  54.663  1.00  0.00     0.201 C 
ENDBRANCH  19  20
ENDBRANCH  18  19
ENDBRANCH  17  18
ENDBRANCH   1  17
BRANCH   6  22
HETATM   22  O3  UNL     1      22.316   0.229  52.404  1.00  0.00    -0.346 OA
BRANCH  22  23
HETATM   23  C10 UNL     1      21.509   0.781  53.430  1.00  0.00     0.201 C 
BRANCH  23  24
HETATM   24  C11 UNL     1      20.989  -0.238  54.375  1.00  0.00     0.193 C 
BRANCH  24  25
HETATM   25  O4  UNL     1      21.810  -1.347  54.371  1.00  0.00    -0.394 OA
HETATM   26  C12 UNL     1      22.679  -1.467  55.420  1.00  0.00     0.201 C 
ENDBRANCH  24  25
ENDBRANCH  23  24
ENDBRANCH  22  23
ENDBRANCH   6  22
TORSDOF 9
ENDMDL
MODEL 4
REMARK VINA RESULT:      -6.9      3.133      6.266
REMARK  9 active torsions:
REMARK  status: ('A' for Active; 'I' for Inactive)
REMARK    1  A    between atoms: O1_2  and  C2_3 
REMARK    2  A    between atoms: C2_3  and  C3_4 
REMARK    3  A    between atoms: C3_4  and  O2_5 
REMARK    4  A    between atoms: O2_5  and  C4_6 
REMARK    5  A    between atoms: C9_11  and  O3_12 
REMARK    6  A    between atoms: O3_12  and  C10_13 
REMARK    7  A    between atoms: C10_13  and  C11_14 
REMARK    8  A    between atoms: C11_14  and  O4_15 
REMARK    9  A    between atoms: N2_19  and  C14_20 
ROOT
HETATM    1  C4  UNL     1      24.345   0.744  52.816  1.00  0.00     0.102 A 
HETATM    2  C5  UNL     1      23.870   1.716  51.970  1.00  0.00     0.050 A 
HETATM    3  C6  UNL     1      24.626   2.548  51.182  1.00  0.00    -0.008 A 
HETATM    4  C7  UNL     1      25.995   2.411  51.230  1.00  0.00     0.069 A 
HETATM    5  C8  UNL     1      26.543   1.439  52.075  1.00  0.00     0.072 A 
HETATM    6  C9  UNL     1      25.740   0.606  52.866  1.00  0.00     0.104 A 
HETATM    7  N1  UNL     1      26.820   3.250  50.433  1.00  0.00    -0.243 NA
HETATM    8  C13 UNL     1      26.272   4.131  49.670  1.00  0.00     0.210 A 
HETATM    9  N2  UNL     1      24.866   4.318  49.578  1.00  0.00    -0.341 N 
HETATM   10  C20 UNL     1      23.925   3.526  50.341  1.00  0.00     0.170 A 
ENDROOT
BRANCH   9  11
HETATM   11  C14 UNL     1      24.340   5.316  48.710  1.00  0.00     0.017 A 
HETATM   12  C15 UNL     1      23.179   5.321  48.050  1.00  0.00     0.032 A 
HETATM   13  C16 UNL     1      23.099   6.575  47.286  1.00  0.00    -0.064 A 
HETATM   14  C17 UNL     1      21.950   6.976  46.407  1.00  0.00     0.048 C 
HETATM   15  C18 UNL     1      24.171   7.315  47.468  1.00  0.00    -0.014 A 
HETATM   16  C19 UNL     1      25.082   6.585  48.401  1.00  0.00     0.084 A 
ENDBRANCH   9  11
BRANCH   1  17
HETATM   17  O2  UNL     1      23.746  -0.154  53.652  1.00  0.00    -0.346 OA
BRANCH  17  18
HETATM   18  C3  UNL     1      22.559  -0.812  53.583  1.00  0.00     0.201 C 
BRANCH  18  19
HETATM   19  C2  UNL     1      21.646  -0.570  54.735  1.00  0.00     0.193 C 
BRANCH  19  20
HETATM   20  O1  UNL     1      20.695   0.386  54.583  1.00  0.00    -0.394 OA
HETATM   21  C1  UNL     1      20.436   0.754  53.306  1.00  0.00     0.201 C 
ENDBRANCH  19  20
ENDBRANCH  18  19
ENDBRANCH  17  18
ENDBRANCH   1  17
BRANCH   6  22
HETATM   22  O3  UNL     1      26.394  -0.323  53.666  1.00  0.00    -0.346 OA
BRANCH  22  23
HETATM   23  C10 UNL     1      26.930   0.153  54.889  1.00  0.00     0.201 C 
BRANCH  23  24
HETATM   24  C11 UNL     1      28.413   0.100  54.936  1.00  0.00     0.193 C 
BRANCH  24  25
HETATM   25  O4  UNL     1      28.871  -0.963  54.184  1.00  0.00    -0.394 OA
HETATM   26  C12 UNL     1      30.010  -0.750  53.457  1.00  0.00     0.201 C 
ENDBRANCH  24  25
ENDBRANCH  23  24
ENDBRANCH  22  23
ENDBRANCH   6  22
TORSDOF 9
ENDMDL
MODEL 5
REMARK VINA RESULT:      -6.9      1.568      4.529
REMARK  9 active torsions:
REMARK  status: ('A' for Active; 'I' for Inactive)
REMARK    1  A    between atoms: O1_2  and  C2_3 
REMARK    2  A    between atoms: C2_3  and  C3_4 
REMARK    3  A    between atoms: C3_4  and  O2_5 
REMARK    4  A    between atoms: O2_5  and  C4_6 
REMARK    5  A    between atoms: C9_11  and  O3_12 
REMARK    6  A    between atoms: O3_12  and  C10_13 
REMARK    7  A    between atoms: C10_13  and  C11_14 
REMARK    8  A    between atoms: C11_14  and  O4_15 
REMARK    9  A    between atoms: N2_19  and  C14_20 
ROOT
HETATM    1  C4  UNL     1      25.304   1.957  52.625  1.00  0.00     0.102 A 
HETATM    2  C5  UNL     1      24.121   1.335  52.944  1.00  0.00     0.050 A 
HETATM    3  C6  UNL     1      22.992   1.287  52.164  1.00  0.00    -0.008 A 
HETATM    4  C7  UNL     1      23.029   1.916  50.940  1.00  0.00     0.069 A 
HETATM    5  C8  UNL     1      24.205   2.569  50.556  1.00  0.00     0.072 A 
HETATM    6  C9  UNL     1      25.339   2.599  51.378  1.00  0.00     0.104 A 
HETATM    7  N1  UNL     1      21.884   1.894  50.097  1.00  0.00    -0.243 NA
HETATM    8  C13 UNL     1      20.823   1.280  50.492  1.00  0.00     0.210 A 
HETATM    9  N2  UNL     1      20.727   0.613  51.744  1.00  0.00    -0.341 N 
HETATM   10  C20 UNL     1      21.823   0.567  52.687  1.00  0.00     0.170 A 
ENDROOT
BRANCH   9  11
HETATM   11  C14 UNL     1      19.516  -0.042  52.105  1.00  0.00     0.017 A 
HETATM   12  C15 UNL     1      18.367  -0.107  51.427  1.00  0.00     0.032 A 
HETATM   13  C16 UNL     1      17.417  -0.899  52.221  1.00  0.00    -0.064 A 
HETATM   14  C17 UNL     1      16.006  -1.212  51.816  1.00  0.00     0.048 C 
HETATM   15  C18 UNL     1      17.960  -1.307  53.348  1.00  0.00    -0.014 A 
HETATM   16  C19 UNL     1      19.364  -0.800  53.393  1.00  0.00     0.084 A 
ENDBRANCH   9  11
BRANCH   1  17
HETATM   17  O2  UNL     1      26.500   2.097  53.268  1.00  0.00    -0.346 OA
BRANCH  17  18
HETATM   18  C3  UNL     1      27.580   1.278  53.371  1.00  0.00     0.201 C 
BRANCH  18  19
HETATM   19  C2  UNL     1      27.436   0.182  54.369  1.00  0.00     0.193 C 
BRANCH  19  20
HETATM   20  O1  UNL     1      28.577  -0.373  54.849  1.00  0.00    -0.394 OA
HETATM   21  C1  UNL     1      29.421  -0.874  53.915  1.00  0.00     0.201 C 
ENDBRANCH  19  20
ENDBRANCH  18  19
ENDBRANCH  17  18
ENDBRANCH   1  17
BRANCH   6  22
HETATM   22  O3  UNL     1      26.450   3.277  50.892  1.00  0.00    -0.346 OA
BRANCH  22  23
HETATM   23  C10 UNL     1      26.579   3.363  49.483  1.00  0.00     0.201 C 
BRANCH  23  24
HETATM   24  C11 UNL     1      26.942   4.723  49.012  1.00  0.00     0.193 C 
BRANCH  24  25
HETATM   25  O4  UNL     1      28.252   4.737  48.578  1.00  0.00    -0.394 OA
HETATM   26  C12 UNL     1      28.753   5.949  48.190  1.00  0.00     0.201 C 
ENDBRANCH  24  25
ENDBRANCH  23  24
ENDBRANCH  22  23
ENDBRANCH   6  22
TORSDOF 9
ENDMDL
MODEL 6
REMARK VINA RESULT:      -6.6      3.937      8.656
REMARK  9 active torsions:
REMARK  status: ('A' for Active; 'I' for Inactive)
REMARK    1  A    between atoms: O1_2  and  C2_3 
REMARK    2  A    between atoms: C2_3  and  C3_4 
REMARK    3  A    between atoms: C3_4  and  O2_5 
REMARK    4  A    between atoms: O2_5  and  C4_6 
REMARK    5  A    between atoms: C9_11  and  O3_12 
REMARK    6  A    between atoms: O3_12  and  C10_13 
REMARK    7  A    between atoms: C10_13  and  C11_14 
REMARK    8  A    between atoms: C11_14  and  O4_15 
REMARK    9  A    between atoms: N2_19  and  C14_20 
ROOT
HETATM    1  C4  UNL     1      20.703   0.947  52.676  1.00  0.00     0.102 A 
HETATM    2  C5  UNL     1      21.940   0.375  52.849  1.00  0.00     0.050 A 
HETATM    3  C6  UNL     1      23.148   1.027  52.821  1.00  0.00    -0.008 A 
HETATM    4  C7  UNL     1      23.141   2.386  52.601  1.00  0.00     0.069 A 
HETATM    5  C8  UNL     1      21.912   3.030  52.417  1.00  0.00     0.072 A 
HETATM    6  C9  UNL     1      20.697   2.332  52.451  1.00  0.00     0.104 A 
HETATM    7  N1  UNL     1      24.367   3.104  52.563  1.00  0.00    -0.243 NA
HETATM    8  C13 UNL     1      25.475   2.471  52.739  1.00  0.00     0.210 A 
HETATM    9  N2  UNL     1      25.544   1.069  52.970  1.00  0.00    -0.341 N 
HETATM   10  C20 UNL     1      24.365   0.232  53.029  1.00  0.00     0.170 A 
ENDROOT
BRANCH   9  11
HETATM   11  C14 UNL     1      26.809   0.445  53.153  1.00  0.00     0.017 A 
HETATM   12  C15 UNL     1      27.132  -0.844  53.016  1.00  0.00     0.032 A 
HETATM   13  C16 UNL     1      28.565  -0.986  53.316  1.00  0.00    -0.064 A 
HETATM   14  C17 UNL     1      29.329  -2.276  53.277  1.00  0.00     0.048 C 
HETATM   15  C18 UNL     1      29.104   0.173  53.628  1.00  0.00    -0.014 A 
HETATM   16  C19 UNL     1      28.035   1.214  53.557  1.00  0.00     0.084 A 
ENDBRANCH   9  11
BRANCH   1  17
HETATM   17  O2  UNL     1      19.429   0.458  52.676  1.00  0.00    -0.346 OA
BRANCH  17  18
HETATM   18  C3  UNL     1      18.900  -0.706  53.136  1.00  0.00     0.201 C 
BRANCH  18  19
HETATM   19  C2  UNL     1      17.474  -0.929  52.769  1.00  0.00     0.193 C 
BRANCH  19  20
HETATM   20  O1  UNL     1      16.958  -2.163  53.002  1.00  0.00    -0.394 OA
HETATM   21  C1  UNL     1      17.749  -3.001  53.714  1.00  0.00     0.201 C 
ENDBRANCH  19  20
ENDBRANCH  18  19
ENDBRANCH  17  18
ENDBRANCH   1  17
BRANCH   6  22
HETATM   22  O3  UNL     1      19.540   3.076  52.255  1.00  0.00    -0.346 OA
BRANCH  22  23
HETATM   23  C10 UNL     1      19.519   3.940  51.131  1.00  0.00     0.201 C 
BRANCH  23  24
HETATM   24  C11 UNL     1      18.497   3.561  50.124  1.00  0.00     0.193 C 
BRANCH  24  25
HETATM   25  O4  UNL     1      18.708   2.264  49.703  1.00  0.00    -0.394 OA
HETATM   26  C12 UNL     1      17.641   1.413  49.791  1.00  0.00     0.201 C 
ENDBRANCH  24  25
ENDBRANCH  23  24
ENDBRANCH  22  23
ENDBRANCH   6  22
TORSDOF 9
ENDMDL
MODEL 7
REMARK VINA RESULT:      -6.5      3.037      7.107
REMARK  9 active torsions:
REMARK  status: ('A' for Active; 'I' for Inactive)
REMARK    1  A    between atoms: O1_2  and  C2_3 
REMARK    2  A    between atoms: C2_3  and  C3_4 
REMARK    3  A    between atoms: C3_4  and  O2_5 
REMARK    4  A    between atoms: O2_5  and  C4_6 
REMARK    5  A    between atoms: C9_11  and  O3_12 
REMARK    6  A    between atoms: O3_12  and  C10_13 
REMARK    7  A    between atoms: C10_13  and  C11_14 
REMARK    8  A    between atoms: C11_14  and  O4_15 
REMARK    9  A    between atoms: N2_19  and  C14_20 
ROOT
HETATM    1  C4  UNL     1      21.939   3.609  51.918  1.00  0.00     0.102 A 
HETATM    2  C5  UNL     1      23.200   3.069  51.996  1.00  0.00     0.050 A 
HETATM    3  C6  UNL     1      23.519   1.816  52.457  1.00  0.00    -0.008 A 
HETATM    4  C7  UNL     1      22.492   1.007  52.886  1.00  0.00     0.069 A 
HETATM    5  C8  UNL     1      21.183   1.499  52.834  1.00  0.00     0.072 A 
HETATM    6  C9  UNL     1      20.893   2.785  52.357  1.00  0.00     0.104 A 
HETATM    7  N1  UNL     1      22.773  -0.299  53.372  1.00  0.00    -0.243 NA
HETATM    8  C13 UNL     1      23.993  -0.711  53.403  1.00  0.00     0.210 A 
HETATM    9  N2  UNL     1      25.095   0.079  52.973  1.00  0.00    -0.341 N 
HETATM   10  C20 UNL     1      24.935   1.423  52.460  1.00  0.00     0.170 A 
ENDROOT
BRANCH   9  11
HETATM   11  C14 UNL     1      26.414  -0.451  53.040  1.00  0.00     0.017 A 
HETATM   12  C15 UNL     1      27.532   0.144  53.463  1.00  0.00     0.032 A 
HETATM   13  C16 UNL     1      28.634  -0.821  53.335  1.00  0.00    -0.064 A 
HETATM   14  C17 UNL     1      30.063  -0.551  53.705  1.00  0.00     0.048 C 
HETATM   15  C18 UNL     1      28.210  -1.968  52.851  1.00  0.00    -0.014 A 
HETATM   16  C19 UNL     1      26.741  -1.852  52.609  1.00  0.00     0.084 A 
ENDBRANCH   9  11
BRANCH   1  17
HETATM   17  O2  UNL     1      21.453   4.812  51.493  1.00  0.00    -0.346 OA
BRANCH  17  18
HETATM   18  C3  UNL     1      22.031   6.036  51.368  1.00  0.00     0.201 C 
BRANCH  18  19
HETATM   19  C2  UNL     1      22.639   6.302  50.035  1.00  0.00     0.193 C 
BRANCH  19  20
HETATM   20  O1  UNL     1      23.809   5.676  49.750  1.00  0.00    -0.394 OA
HETATM   21  C1  UNL     1      24.912   6.208  50.328  1.00  0.00     0.201 C 
ENDBRANCH  19  20
ENDBRANCH  18  19
ENDBRANCH  17  18
ENDBRANCH   1  17
BRANCH   6  22
HETATM   22  O3  UNL     1      19.557   3.166  52.351  1.00  0.00    -0.346 OA
BRANCH  22  23
HETATM   23  C10 UNL     1      18.780   2.751  51.239  1.00  0.00     0.201 C 
BRANCH  23  24
HETATM   24  C11 UNL     1      17.736   1.759  51.594  1.00  0.00     0.193 C 
BRANCH  24  25
HETATM   25  O4  UNL     1      18.122   0.500  51.182  1.00  0.00    -0.394 OA
HETATM   26  C12 UNL     1      18.127  -0.480  52.136  1.00  0.00     0.201 C 
ENDBRANCH  24  25
ENDBRANCH  23  24
ENDBRANCH  22  23
ENDBRANCH   6  22
TORSDOF 9
ENDMDL
MODEL 8
REMARK VINA RESULT:      -6.5      3.241      5.141
REMARK  9 active torsions:
REMARK  status: ('A' for Active; 'I' for Inactive)
REMARK    1  A    between atoms: O1_2  and  C2_3 
REMARK    2  A    between atoms: C2_3  and  C3_4 
REMARK    3  A    between atoms: C3_4  and  O2_5 
REMARK    4  A    between atoms: O2_5  and  C4_6 
REMARK    5  A    between atoms: C9_11  and  O3_12 
REMARK    6  A    between atoms: O3_12  and  C10_13 
REMARK    7  A    between atoms: C10_13  and  C11_14 
REMARK    8  A    between atoms: C11_14  and  O4_15 
REMARK    9  A    between atoms: N2_19  and  C14_20 
ROOT
HETATM    1  C4  UNL     1      25.398   5.918  48.922  1.00  0.00     0.102 A 
HETATM    2  C5  UNL     1      24.626   5.097  49.708  1.00  0.00     0.050 A 
HETATM    3  C6  UNL     1      25.040   3.948  50.335  1.00  0.00    -0.008 A 
HETATM    4  C7  UNL     1      26.352   3.564  50.173  1.00  0.00     0.069 A 
HETATM    5  C8  UNL     1      27.192   4.357  49.382  1.00  0.00     0.072 A 
HETATM    6  C9  UNL     1      26.735   5.525  48.756  1.00  0.00     0.104 A 
HETATM    7  N1  UNL     1      26.827   2.381  50.802  1.00  0.00    -0.243 NA
HETATM    8  C13 UNL     1      26.018   1.681  51.521  1.00  0.00     0.210 A 
HETATM    9  N2  UNL     1      24.654   2.029  51.724  1.00  0.00    -0.341 N 
HETATM   10  C20 UNL     1      24.056   3.208  51.135  1.00  0.00     0.170 A 
ENDROOT
BRANCH   9  11
HETATM   11  C14 UNL     1      23.827   1.201  52.533  1.00  0.00     0.017 A 
HETATM   12  C15 UNL     1      22.538   1.360  52.847  1.00  0.00     0.032 A 
HETATM   13  C16 UNL     1      22.141   0.238  53.710  1.00  0.00    -0.064 A 
HETATM   14  C17 UNL     1      20.770   0.037  54.285  1.00  0.00     0.048 C 
HETATM   15  C18 UNL     1      23.148  -0.582  53.921  1.00  0.00    -0.014 A 
HETATM   16  C19 UNL     1      24.337  -0.051  53.188  1.00  0.00     0.084 A 
ENDBRANCH   9  11
BRANCH   1  17
HETATM   17  O2  UNL     1      25.154   7.075  48.239  1.00  0.00    -0.346 OA
BRANCH  17  18
HETATM   18  C3  UNL     1      24.698   8.291  48.642  1.00  0.00     0.201 C 
BRANCH  18  19
HETATM   19  C2  UNL     1      25.186   8.725  49.981  1.00  0.00     0.193 C 
BRANCH  19  20
HETATM   20  O1  UNL     1      26.155   9.674  50.010  1.00  0.00    -0.394 OA
HETATM   21  C1  UNL     1      27.422   9.211  50.129  1.00  0.00     0.201 C 
ENDBRANCH  19  20
ENDBRANCH  18  19
ENDBRANCH  17  18
ENDBRANCH   1  17
BRANCH   6  22
HETATM   22  O3  UNL     1      27.658   6.232  47.997  1.00  0.00    -0.346 OA
BRANCH  22  23
HETATM   23  C10 UNL     1      29.021   5.877  48.155  1.00  0.00     0.201 C 
BRANCH  23  24
HETATM   24  C11 UNL     1      29.914   7.050  48.327  1.00  0.00     0.193 C 
BRANCH  24  25
HETATM   25  O4  UNL     1      31.231   6.638  48.367  1.00  0.00    -0.394 OA
HETATM   26  C12 UNL     1      32.043   7.091  47.365  1.00  0.00     0.201 C 
ENDBRANCH  24  25
ENDBRANCH  23  24
ENDBRANCH  22  23
ENDBRANCH   6  22
TORSDOF 9
ENDMDL
MODEL 9
REMARK VINA RESULT:      -6.5      3.533      6.341
REMARK  9 active torsions:
REMARK  status: ('A' for Active; 'I' for Inactive)
REMARK    1  A    between atoms: O1_2  and  C2_3 
REMARK    2  A    between atoms: C2_3  and  C3_4 
REMARK    3  A    between atoms: C3_4  and  O2_5 
REMARK    4  A    between atoms: O2_5  and  C4_6 
REMARK    5  A    between atoms: C9_11  and  O3_12 
REMARK    6  A    between atoms: O3_12  and  C10_13 
REMARK    7  A    between atoms: C10_13  and  C11_14 
REMARK    8  A    between atoms: C11_14  and  O4_15 
REMARK    9  A    between atoms: N2_19  and  C14_20 
ROOT
HETATM    1  C4  UNL     1      27.407   5.490  48.621  1.00  0.00     0.102 A 
HETATM    2  C5  UNL     1      27.117   4.336  49.307  1.00  0.00     0.050 A 
HETATM    3  C6  UNL     1      26.009   4.111  50.085  1.00  0.00    -0.008 A 
HETATM    4  C7  UNL     1      25.087   5.126  50.202  1.00  0.00     0.069 A 
HETATM    5  C8  UNL     1      25.325   6.329  49.527  1.00  0.00     0.072 A 
HETATM    6  C9  UNL     1      26.468   6.525  48.741  1.00  0.00     0.104 A 
HETATM    7  N1  UNL     1      23.924   4.940  50.997  1.00  0.00    -0.243 NA
HETATM    8  C13 UNL     1      23.746   3.816  51.600  1.00  0.00     0.210 A 
HETATM    9  N2  UNL     1      24.662   2.732  51.517  1.00  0.00    -0.341 N 
HETATM   10  C20 UNL     1      25.881   2.802  50.740  1.00  0.00     0.170 A 
ENDROOT
BRANCH   9  11
HETATM   11  C14 UNL     1      24.391   1.522  52.215  1.00  0.00     0.017 A 
HETATM   12  C15 UNL     1      23.223   1.069  52.678  1.00  0.00     0.032 A 
HETATM   13  C16 UNL     1      23.466  -0.229  53.326  1.00  0.00    -0.064 A 
HETATM   14  C17 UNL     1      22.414  -1.077  53.978  1.00  0.00     0.048 C 
HETATM   15  C18 UNL     1      24.737  -0.562  53.266  1.00  0.00    -0.014 A 
HETATM   16  C19 UNL     1      25.466   0.526  52.547  1.00  0.00     0.084 A 
ENDBRANCH   9  11
BRANCH   1  17
HETATM   17  O2  UNL     1      28.441   5.875  47.815  1.00  0.00    -0.346 OA
BRANCH  17  18
HETATM   18  C3  UNL     1      29.783   5.932  48.021  1.00  0.00     0.201 C 
BRANCH  18  19
HETATM   19  C2  UNL     1      30.276   7.237  48.543  1.00  0.00     0.193 C 
BRANCH  19  20
HETATM   20  O1  UNL     1      31.417   7.221  49.277  1.00  0.00    -0.394 OA
HETATM   21  C1  UNL     1      31.810   6.002  49.718  1.00  0.00     0.201 C 
ENDBRANCH  19  20
ENDBRANCH  18  19
ENDBRANCH  17  18
ENDBRANCH   1  17
BRANCH   6  22
HETATM   22  O3  UNL     1      26.598   7.760  48.118  1.00  0.00    -0.346 OA
BRANCH  22  23
HETATM   23  C10 UNL     1      26.283   8.903  48.895  1.00  0.00     0.201 C 
BRANCH  23  24
HETATM   24  C11 UNL     1      27.437   9.416  49.674  1.00  0.00     0.193 C 
BRANCH  24  25
HETATM   25  O4  UNL     1      27.613  10.762  49.425  1.00  0.00    -0.394 OA
HETATM   26  C12 UNL     1      28.798  11.126  48.848  1.00  0.00     0.201 C 
ENDBRANCH  24  25
ENDBRANCH  23  24
ENDBRANCH  22  23
ENDBRANCH   6  22
TORSDOF 9
ENDMDL
