MODEL 1
REMARK VINA RESULT:      -7.9      0.000      0.000
REMARK  4 active torsions:
REMARK  status: ('A' for Active; 'I' for Inactive)
REMARK    1  A    between atoms: N2_5  and  C4_6 
REMARK    2  A    between atoms: C4_6  and  C5_7 
REMARK    3  A    between atoms: C5_7  and  C6_8 
REMARK    4  A    between atoms: C10_13  and  C11_14 
ROOT
HETATM    1  C6  UNL     1      24.350   2.271  51.689  1.00  0.00     0.166 C 
HETATM    2  O1  UNL     1      23.437   2.265  50.598  1.00  0.00    -0.344 OA
HETATM    3  C7  UNL     1      22.500   1.582  51.363  1.00  0.00     0.080 C 
HETATM    4  C8  UNL     1      21.394   0.950  51.007  1.00  0.00     0.051 C 
HETATM    5  C9  UNL     1      20.428   0.242  51.833  1.00  0.00     0.024 A 
HETATM    6  C10 UNL     1      19.202   0.318  51.230  1.00  0.00     0.071 A 
HETATM    7  N3  UNL     1      18.107  -0.249  51.755  1.00  0.00    -0.241 NA
HETATM    8  C13 UNL     1      18.175  -0.922  52.909  1.00  0.00     0.234 A 
HETATM    9  N4  UNL     1      19.347  -1.020  53.528  1.00  0.00    -0.241 NA
HETATM   10  C14 UNL     1      20.448  -0.474  53.038  1.00  0.00     0.072 A 
HETATM   11  C15 UNL     1      21.559  -0.769  53.969  1.00  0.00     0.056 C 
HETATM   12  C16 UNL     1      22.798  -0.279  54.079  1.00  0.00     0.138 C 
HETATM   13  O2  UNL     1      23.468   0.675  53.362  1.00  0.00    -0.348 OA
HETATM   14  C17 UNL     1      23.240   1.862  52.633  1.00  0.00     0.213 C 
ENDROOT
BRANCH   1  15
HETATM   15  C5  UNL     1      25.422   1.208  51.635  1.00  0.00     0.066 C 
BRANCH  15  16
HETATM   16  C4  UNL     1      26.764   1.814  51.946  1.00  0.00     0.275 C 
BRANCH  16  17
HETATM   17  N2  UNL     1      27.096   1.718  53.347  1.00  0.00     0.091 N 
HETATM   18  C3  UNL     1      28.388   2.246  53.664  1.00  0.00     0.302 C 
HETATM   19  C2  UNL     1      29.490   1.230  53.716  1.00  0.00     0.302 C 
HETATM   20  N1  UNL     1      29.118   0.017  54.405  1.00  0.00     0.087 N 
HETATM   21  C1  UNL     1      29.256  -1.149  53.546  1.00  0.00     0.310 C 
HETATM   22  C19 UNL     1      27.803   0.115  55.005  1.00  0.00     0.302 C 
HETATM   23  C18 UNL     1      26.835   0.415  53.896  1.00  0.00     0.302 C 
ENDBRANCH  16  17
ENDBRANCH  15  16
ENDBRANCH   1  15
BRANCH   6  24
HETATM   24  C11 UNL     1      19.171   1.059  49.999  1.00  0.00     0.039 C 
HETATM   25  C12 UNL     1      18.033   1.656  49.711  1.00  0.00     0.052 C 
HETATM   26  I1  UNL     1      16.874   2.845  48.439  1.00  0.00    -0.057 I 
ENDBRANCH   6  24
TORSDOF 4
ENDMDL
MODEL 2
REMARK VINA RESULT:      -7.8      4.030      6.626
REMARK  4 active torsions:
REMARK  status: ('A' for Active; 'I' for Inactive)
REMARK    1  A    between atoms: N2_5  and  C4_6 
REMARK    2  A    between atoms: C4_6  and  C5_7 
REMARK    3  A    between atoms: C5_7  and  C6_8 
REMARK    4  A    between atoms: C10_13  and  C11_14 
ROOT
HETATM    1  C6  UNL     1      21.673   1.678  49.841  1.00  0.00     0.166 C 
HETATM    2  O1  UNL     1      23.044   1.821  50.194  1.00  0.00    -0.344 OA
HETATM    3  C7  UNL     1      22.854   1.031  51.321  1.00  0.00     0.080 C 
HETATM    4  C8  UNL     1      23.624   0.845  52.380  1.00  0.00     0.051 C 
HETATM    5  C9  UNL     1      23.400   0.008  53.550  1.00  0.00     0.024 A 
HETATM    6  C10 UNL     1      24.614  -0.397  54.034  1.00  0.00     0.071 A 
HETATM    7  N3  UNL     1      24.731  -1.180  55.116  1.00  0.00    -0.241 NA
HETATM    8  C13 UNL     1      23.644  -1.599  55.773  1.00  0.00     0.234 A 
HETATM    9  N4  UNL     1      22.445  -1.228  55.337  1.00  0.00    -0.241 NA
HETATM   10  C14 UNL     1      22.293  -0.457  54.273  1.00  0.00     0.072 A 
HETATM   11  C15 UNL     1      20.843  -0.242  54.067  1.00  0.00     0.056 C 
HETATM   12  C16 UNL     1      20.141   0.248  53.040  1.00  0.00     0.138 C 
HETATM   13  O2  UNL     1      20.528   0.724  51.816  1.00  0.00    -0.348 OA
HETATM   14  C17 UNL     1      21.526   0.546  50.834  1.00  0.00     0.213 C 
ENDROOT
BRANCH   1  15
HETATM   15  C5  UNL     1      20.787   2.840  50.222  1.00  0.00     0.066 C 
BRANCH  15  16
HETATM   16  C4  UNL     1      20.605   3.758  49.044  1.00  0.00     0.275 C 
BRANCH  16  17
HETATM   17  N2  UNL     1      21.013   5.111  49.338  1.00  0.00     0.091 N 
HETATM   18  C3  UNL     1      22.278   5.461  48.769  1.00  0.00     0.302 C 
HETATM   19  C2  UNL     1      23.451   5.303  49.691  1.00  0.00     0.302 C 
HETATM   20  N1  UNL     1      23.201   5.798  51.024  1.00  0.00     0.087 N 
HETATM   21  C1  UNL     1      23.377   4.755  52.022  1.00  0.00     0.310 C 
HETATM   22  C19 UNL     1      21.914   6.455  51.127  1.00  0.00     0.302 C 
HETATM   23  C18 UNL     1      20.872   5.448  50.728  1.00  0.00     0.302 C 
ENDBRANCH  16  17
ENDBRANCH  15  16
ENDBRANCH   1  15
BRANCH   6  24
HETATM   24  C11 UNL     1      25.753   0.066  53.291  1.00  0.00     0.039 C 
HETATM   25  C12 UNL     1      26.927  -0.106  53.864  1.00  0.00     0.052 C 
HETATM   26  I1  UNL     1      29.009   0.092  53.841  1.00  0.00    -0.057 I 
ENDBRANCH   6  24
TORSDOF 4
ENDMDL
MODEL 3
REMARK VINA RESULT:      -7.7      4.356      6.748
REMARK  4 active torsions:
REMARK  status: ('A' for Active; 'I' for Inactive)
REMARK    1  A    between atoms: N2_5  and  C4_6 
REMARK    2  A    between atoms: C4_6  and  C5_7 
REMARK    3  A    between atoms: C5_7  and  C6_8 
REMARK    4  A    between atoms: C10_13  and  C11_14 
ROOT
HETATM    1  C6  UNL     1      21.905   1.972  49.861  1.00  0.00     0.166 C 
HETATM    2  O1  UNL     1      23.283   2.000  50.215  1.00  0.00    -0.344 OA
HETATM    3  C7  UNL     1      23.031   1.203  51.325  1.00  0.00     0.080 C 
HETATM    4  C8  UNL     1      23.784   0.934  52.379  1.00  0.00     0.051 C 
HETATM    5  C9  UNL     1      23.495   0.093  53.530  1.00  0.00     0.024 A 
HETATM    6  C10 UNL     1      24.673  -0.418  54.003  1.00  0.00     0.071 A 
HETATM    7  N3  UNL     1      24.728  -1.230  55.068  1.00  0.00    -0.241 NA
HETATM    8  C13 UNL     1      23.612  -1.577  55.717  1.00  0.00     0.234 A 
HETATM    9  N4  UNL     1      22.446  -1.104  55.292  1.00  0.00    -0.241 NA
HETATM   10  C14 UNL     1      22.355  -0.300  54.245  1.00  0.00     0.072 A 
HETATM   11  C15 UNL     1      20.927   0.032  54.046  1.00  0.00     0.056 C 
HETATM   12  C16 UNL     1      20.265   0.598  53.031  1.00  0.00     0.138 C 
HETATM   13  O2  UNL     1      20.688   1.069  51.817  1.00  0.00    -0.348 OA
HETATM   14  C17 UNL     1      21.669   0.834  50.830  1.00  0.00     0.213 C 
ENDROOT
BRANCH   1  15
HETATM   15  C5  UNL     1      21.112   3.192  50.269  1.00  0.00     0.066 C 
BRANCH  15  16
HETATM   16  C4  UNL     1      21.782   4.437  49.755  1.00  0.00     0.275 C 
BRANCH  16  17
HETATM   17  N2  UNL     1      22.363   5.224  50.818  1.00  0.00     0.091 N 
HETATM   18  C3  UNL     1      21.607   6.396  51.137  1.00  0.00     0.302 C 
HETATM   19  C2  UNL     1      22.071   7.652  50.458  1.00  0.00     0.302 C 
HETATM   20  N1  UNL     1      23.506   7.806  50.461  1.00  0.00     0.087 N 
HETATM   21  C1  UNL     1      24.034   7.909  49.110  1.00  0.00     0.310 C 
HETATM   22  C19 UNL     1      24.162   6.774  51.238  1.00  0.00     0.302 C 
HETATM   23  C18 UNL     1      23.770   5.454  50.637  1.00  0.00     0.302 C 
ENDBRANCH  16  17
ENDBRANCH  15  16
ENDBRANCH   1  15
BRANCH   6  24
HETATM   24  C11 UNL     1      25.846  -0.029  53.269  1.00  0.00     0.039 C 
HETATM   25  C12 UNL     1      27.002  -0.301  53.838  1.00  0.00     0.052 C 
HETATM   26  I1  UNL     1      29.093  -0.261  53.818  1.00  0.00    -0.057 I 
ENDBRANCH   6  24
TORSDOF 4
ENDMDL
MODEL 4
REMARK VINA RESULT:      -7.4      5.299      7.253
REMARK  4 active torsions:
REMARK  status: ('A' for Active; 'I' for Inactive)
REMARK    1  A    between atoms: N2_5  and  C4_6 
REMARK    2  A    between atoms: C4_6  and  C5_7 
REMARK    3  A    between atoms: C5_7  and  C6_8 
REMARK    4  A    between atoms: C10_13  and  C11_14 
ROOT
HETATM    1  C6  UNL     1      25.368   4.850  49.355  1.00  0.00     0.166 C 
HETATM    2  O1  UNL     1      26.442   4.049  49.834  1.00  0.00    -0.344 OA
HETATM    3  C7  UNL     1      25.551   3.244  50.533  1.00  0.00     0.080 C 
HETATM    4  C8  UNL     1      25.766   2.347  51.482  1.00  0.00     0.051 C 
HETATM    5  C9  UNL     1      24.811   1.515  52.199  1.00  0.00     0.024 A 
HETATM    6  C10 UNL     1      25.436   0.354  52.566  1.00  0.00     0.071 A 
HETATM    7  N3  UNL     1      24.810  -0.614  53.249  1.00  0.00    -0.241 NA
HETATM    8  C13 UNL     1      23.527  -0.476  53.603  1.00  0.00     0.234 A 
HETATM    9  N4  UNL     1      22.882   0.636  53.267  1.00  0.00    -0.241 NA
HETATM   10  C14 UNL     1      23.470   1.611  52.593  1.00  0.00     0.072 A 
HETATM   11  C15 UNL     1      22.476   2.687  52.386  1.00  0.00     0.056 C 
HETATM   12  C16 UNL     1      22.465   3.765  51.595  1.00  0.00     0.138 C 
HETATM   13  O2  UNL     1      23.378   4.244  50.695  1.00  0.00    -0.348 OA
HETATM   14  C17 UNL     1      24.373   3.800  49.798  1.00  0.00     0.213 C 
ENDROOT
BRANCH   1  15
HETATM   15  C5  UNL     1      25.147   6.143  50.105  1.00  0.00     0.066 C 
BRANCH  15  16
HETATM   16  C4  UNL     1      24.608   7.194  49.174  1.00  0.00     0.275 C 
BRANCH  16  17
HETATM   17  N2  UNL     1      25.516   8.306  49.019  1.00  0.00     0.091 N 
HETATM   18  C3  UNL     1      25.786   8.634  47.653  1.00  0.00     0.302 C 
HETATM   19  C2  UNL     1      27.034   8.019  47.090  1.00  0.00     0.302 C 
HETATM   20  N1  UNL     1      28.161   8.086  47.990  1.00  0.00     0.087 N 
HETATM   21  C1  UNL     1      28.681   6.763  48.294  1.00  0.00     0.310 C 
HETATM   22  C19 UNL     1      27.859   8.853  49.182  1.00  0.00     0.302 C 
HETATM   23  C18 UNL     1      26.686   8.191  49.846  1.00  0.00     0.302 C 
ENDBRANCH  16  17
ENDBRANCH  15  16
ENDBRANCH   1  15
BRANCH   6  24
HETATM   24  C11 UNL     1      26.809   0.243  52.155  1.00  0.00     0.039 C 
HETATM   25  C12 UNL     1      27.643  -0.249  53.049  1.00  0.00     0.052 C 
HETATM   26  I1  UNL     1      29.572  -0.828  53.611  1.00  0.00    -0.057 I 
ENDBRANCH   6  24
TORSDOF 4
ENDMDL
MODEL 5
REMARK VINA RESULT:      -7.4      4.063      6.427
REMARK  4 active torsions:
REMARK  status: ('A' for Active; 'I' for Inactive)
REMARK    1  A    between atoms: N2_5  and  C4_6 
REMARK    2  A    between atoms: C4_6  and  C5_7 
REMARK    3  A    between atoms: C5_7  and  C6_8 
REMARK    4  A    between atoms: C10_13  and  C11_14 
ROOT
HETATM    1  C6  UNL     1      23.319   2.374  51.777  1.00  0.00     0.166 C 
HETATM    2  O1  UNL     1      22.805   3.667  52.076  1.00  0.00    -0.344 OA
HETATM    3  C7  UNL     1      23.648   4.239  51.133  1.00  0.00     0.080 C 
HETATM    4  C8  UNL     1      23.982   5.503  50.932  1.00  0.00     0.051 C 
HETATM    5  C9  UNL     1      24.870   6.077  49.932  1.00  0.00     0.024 A 
HETATM    6  C10 UNL     1      24.448   7.348  49.653  1.00  0.00     0.071 A 
HETATM    7  N3  UNL     1      25.076   8.135  48.768  1.00  0.00    -0.241 NA
HETATM    8  C13 UNL     1      26.157   7.697  48.114  1.00  0.00     0.234 A 
HETATM    9  N4  UNL     1      26.601   6.468  48.356  1.00  0.00    -0.241 NA
HETATM   10  C14 UNL     1      26.007   5.665  49.223  1.00  0.00     0.072 A 
HETATM   11  C15 UNL     1      26.750   4.386  49.245  1.00  0.00     0.056 C 
HETATM   12  C16 UNL     1      26.459   3.182  49.751  1.00  0.00     0.138 C 
HETATM   13  O2  UNL     1      25.363   2.718  50.427  1.00  0.00    -0.348 OA
HETATM   14  C17 UNL     1      23.968   2.912  50.521  1.00  0.00     0.213 C 
ENDROOT
BRANCH   1  15
HETATM   15  C5  UNL     1      24.364   1.860  52.740  1.00  0.00     0.066 C 
BRANCH  15  16
HETATM   16  C4  UNL     1      23.996   0.480  53.211  1.00  0.00     0.275 C 
BRANCH  16  17
HETATM   17  N2  UNL     1      25.140  -0.398  53.276  1.00  0.00     0.091 N 
HETATM   18  C3  UNL     1      25.623  -0.606  54.607  1.00  0.00     0.302 C 
HETATM   19  C2  UNL     1      26.756   0.289  55.015  1.00  0.00     0.302 C 
HETATM   20  N1  UNL     1      27.765   0.436  53.993  1.00  0.00     0.087 N 
HETATM   21  C1  UNL     1      27.941   1.829  53.614  1.00  0.00     0.310 C 
HETATM   22  C19 UNL     1      27.515  -0.423  52.854  1.00  0.00     0.302 C 
HETATM   23  C18 UNL     1      26.159  -0.061  52.319  1.00  0.00     0.302 C 
ENDBRANCH  16  17
ENDBRANCH  15  16
ENDBRANCH   1  15
BRANCH   6  24
HETATM   24  C11 UNL     1      23.277   7.774  50.368  1.00  0.00     0.039 C 
HETATM   25  C12 UNL     1      22.295   8.260  49.636  1.00  0.00     0.052 C 
HETATM   26  I1  UNL     1      20.380   9.084  49.479  1.00  0.00    -0.057 I 
ENDBRANCH   6  24
TORSDOF 4
ENDMDL
MODEL 6
REMARK VINA RESULT:      -7.2      4.839      7.227
REMARK  4 active torsions:
REMARK  status: ('A' for Active; 'I' for Inactive)
REMARK    1  A    between atoms: N2_5  and  C4_6 
REMARK    2  A    between atoms: C4_6  and  C5_7 
REMARK    3  A    between atoms: C5_7  and  C6_8 
REMARK    4  A    between atoms: C10_13  and  C11_14 
ROOT
HETATM    1  C6  UNL     1      25.260   2.943  50.496  1.00  0.00     0.166 C 
HETATM    2  O1  UNL     1      24.410   3.972  50.991  1.00  0.00    -0.344 OA
HETATM    3  C7  UNL     1      25.000   4.894  50.135  1.00  0.00     0.080 C 
HETATM    4  C8  UNL     1      24.941   6.215  50.122  1.00  0.00     0.051 C 
HETATM    5  C9  UNL     1      25.570   7.159  49.211  1.00  0.00     0.024 A 
HETATM    6  C10 UNL     1      24.783   8.276  49.130  1.00  0.00     0.071 A 
HETATM    7  N3  UNL     1      25.108   9.329  48.366  1.00  0.00    -0.241 NA
HETATM    8  C13 UNL     1      26.233   9.324  47.644  1.00  0.00     0.234 A 
HETATM    9  N4  UNL     1      27.027   8.260  47.694  1.00  0.00    -0.241 NA
HETATM   10  C14 UNL     1      26.738   7.204  48.437  1.00  0.00     0.072 A 
HETATM   11  C15 UNL     1      27.820   6.210  48.260  1.00  0.00     0.056 C 
HETATM   12  C16 UNL     1      27.918   4.916  48.582  1.00  0.00     0.138 C 
HETATM   13  O2  UNL     1      27.041   4.060  49.192  1.00  0.00    -0.348 OA
HETATM   14  C17 UNL     1      25.657   3.819  49.329  1.00  0.00     0.213 C 
ENDROOT
BRANCH   1  15
HETATM   15  C5  UNL     1      26.459   2.630  51.360  1.00  0.00     0.066 C 
BRANCH  15  16
HETATM   16  C4  UNL     1      26.333   1.246  51.935  1.00  0.00     0.275 C 
BRANCH  16  17
HETATM   17  N2  UNL     1      26.632   1.210  53.347  1.00  0.00     0.091 N 
HETATM   18  C3  UNL     1      27.676   2.111  53.730  1.00  0.00     0.302 C 
HETATM   19  C2  UNL     1      29.043   1.498  53.805  1.00  0.00     0.302 C 
HETATM   20  N1  UNL     1      29.057   0.206  54.449  1.00  0.00     0.087 N 
HETATM   21  C1  UNL     1      29.588  -0.823  53.570  1.00  0.00     0.310 C 
HETATM   22  C19 UNL     1      27.761  -0.142  54.994  1.00  0.00     0.302 C 
HETATM   23  C18 UNL     1      26.784  -0.127  53.853  1.00  0.00     0.302 C 
ENDBRANCH  16  17
ENDBRANCH  15  16
ENDBRANCH   1  15
BRANCH   6  24
HETATM   24  C11 UNL     1      23.579   8.233  49.913  1.00  0.00     0.039 C 
HETATM   25  C12 UNL     1      22.481   8.637  49.309  1.00  0.00     0.052 C 
HETATM   26  I1  UNL     1      20.423   9.006  49.333  1.00  0.00    -0.057 I 
ENDBRANCH   6  24
TORSDOF 4
ENDMDL
MODEL 7
REMARK VINA RESULT:      -7.1      3.372      8.809
REMARK  4 active torsions:
REMARK  status: ('A' for Active; 'I' for Inactive)
REMARK    1  A    between atoms: N2_5  and  C4_6 
REMARK    2  A    between atoms: C4_6  and  C5_7 
REMARK    3  A    between atoms: C5_7  and  C6_8 
REMARK    4  A    between atoms: C10_13  and  C11_14 
ROOT
HETATM    1  C6  UNL     1      20.758   1.121  53.108  1.00  0.00     0.166 C 
HETATM    2  O1  UNL     1      21.992   0.594  53.583  1.00  0.00    -0.344 OA
HETATM    3  C7  UNL     1      22.695   1.377  52.676  1.00  0.00     0.080 C 
HETATM    4  C8  UNL     1      23.957   1.316  52.285  1.00  0.00     0.051 C 
HETATM    5  C9  UNL     1      24.670   2.152  51.331  1.00  0.00     0.024 A 
HETATM    6  C10 UNL     1      25.990   2.193  51.690  1.00  0.00     0.071 A 
HETATM    7  N3  UNL     1      26.903   2.885  50.994  1.00  0.00    -0.241 NA
HETATM    8  C13 UNL     1      26.549   3.573  49.903  1.00  0.00     0.234 A 
HETATM    9  N4  UNL     1      25.277   3.560  49.518  1.00  0.00    -0.241 NA
HETATM   10  C14 UNL     1      24.350   2.888  50.182  1.00  0.00     0.072 A 
HETATM   11  C15 UNL     1      23.057   3.090  49.492  1.00  0.00     0.056 C 
HETATM   12  C16 UNL     1      21.794   2.839  49.852  1.00  0.00     0.138 C 
HETATM   13  O2  UNL     1      21.260   2.306  50.994  1.00  0.00    -0.348 OA
HETATM   14  C17 UNL     1      21.498   2.224  52.383  1.00  0.00     0.213 C 
ENDROOT
BRANCH   1  15
HETATM   15  C5  UNL     1      20.019   0.241  52.127  1.00  0.00     0.066 C 
BRANCH  15  16
HETATM   16  C4  UNL     1      18.858  -0.429  52.809  1.00  0.00     0.275 C 
BRANCH  16  17
HETATM   17  N2  UNL     1      17.857  -0.876  51.871  1.00  0.00     0.091 N 
HETATM   18  C3  UNL     1      17.631   0.043  50.797  1.00  0.00     0.302 C 
HETATM   19  C2  UNL     1      16.482   0.986  51.003  1.00  0.00     0.302 C 
HETATM   20  N1  UNL     1      15.306   0.345  51.542  1.00  0.00     0.087 N 
HETATM   21  C1  UNL     1      14.902   0.946  52.803  1.00  0.00     0.310 C 
HETATM   22  C19 UNL     1      15.465  -1.092  51.636  1.00  0.00     0.302 C 
HETATM   23  C18 UNL     1      16.659  -1.346  52.513  1.00  0.00     0.302 C 
ENDBRANCH  16  17
ENDBRANCH  15  16
ENDBRANCH   1  15
BRANCH   6  24
HETATM   24  C11 UNL     1      26.325   1.450  52.873  1.00  0.00     0.039 C 
HETATM   25  C12 UNL     1      27.545   0.956  52.922  1.00  0.00     0.052 C 
HETATM   26  I1  UNL     1      29.029  -0.130  53.917  1.00  0.00    -0.057 I 
ENDBRANCH   6  24
TORSDOF 4
ENDMDL
MODEL 8
REMARK VINA RESULT:      -7.1      3.950      5.432
REMARK  4 active torsions:
REMARK  status: ('A' for Active; 'I' for Inactive)
REMARK    1  A    between atoms: N2_5  and  C4_6 
REMARK    2  A    between atoms: C4_6  and  C5_7 
REMARK    3  A    between atoms: C5_7  and  C6_8 
REMARK    4  A    between atoms: C10_13  and  C11_14 
ROOT
HETATM    1  C6  UNL     1      23.572   4.141  50.576  1.00  0.00     0.166 C 
HETATM    2  O1  UNL     1      22.348   3.480  50.277  1.00  0.00    -0.344 OA
HETATM    3  C7  UNL     1      22.572   2.566  51.299  1.00  0.00     0.080 C 
HETATM    4  C8  UNL     1      21.985   1.410  51.562  1.00  0.00     0.051 C 
HETATM    5  C9  UNL     1      22.240   0.470  52.643  1.00  0.00     0.024 A 
HETATM    6  C10 UNL     1      21.077  -0.193  52.926  1.00  0.00     0.071 A 
HETATM    7  N3  UNL     1      20.999  -1.132  53.880  1.00  0.00    -0.241 NA
HETATM    8  C13 UNL     1      22.076  -1.460  54.601  1.00  0.00     0.234 A 
HETATM    9  N4  UNL     1      23.227  -0.841  54.359  1.00  0.00    -0.241 NA
HETATM   10  C14 UNL     1      23.339   0.090  53.426  1.00  0.00     0.072 A 
HETATM   11  C15 UNL     1      24.740   0.568  53.423  1.00  0.00     0.056 C 
HETATM   12  C16 UNL     1      25.330   1.628  52.861  1.00  0.00     0.138 C 
HETATM   13  O2  UNL     1      24.835   2.645  52.090  1.00  0.00    -0.348 OA
HETATM   14  C17 UNL     1      23.660   3.402  51.894  1.00  0.00     0.213 C 
ENDROOT
BRANCH   1  15
HETATM   15  C5  UNL     1      24.734   3.776  49.683  1.00  0.00     0.066 C 
BRANCH  15  16
HETATM   16  C4  UNL     1      25.698   4.928  49.594  1.00  0.00     0.275 C 
BRANCH  16  17
HETATM   17  N2  UNL     1      25.022   6.201  49.510  1.00  0.00     0.091 N 
HETATM   18  C3  UNL     1      24.886   6.686  48.171  1.00  0.00     0.302 C 
HETATM   19  C2  UNL     1      25.954   7.645  47.734  1.00  0.00     0.302 C 
HETATM   20  N1  UNL     1      26.276   8.635  48.733  1.00  0.00     0.087 N 
HETATM   21  C1  UNL     1      27.682   8.584  49.102  1.00  0.00     0.310 C 
HETATM   22  C19 UNL     1      25.397   8.555  49.882  1.00  0.00     0.302 C 
HETATM   23  C18 UNL     1      25.532   7.168  50.444  1.00  0.00     0.302 C 
ENDBRANCH  16  17
ENDBRANCH  15  16
ENDBRANCH   1  15
BRANCH   6  24
HETATM   24  C11 UNL     1      19.943   0.198  52.136  1.00  0.00     0.039 C 
HETATM   25  C12 UNL     1      18.793  -0.361  52.455  1.00  0.00     0.052 C 
HETATM   26  I1  UNL     1      16.740  -0.605  52.141  1.00  0.00    -0.057 I 
ENDBRANCH   6  24
TORSDOF 4
ENDMDL
MODEL 9
REMARK VINA RESULT:      -6.9      4.102      7.741
REMARK  4 active torsions:
REMARK  status: ('A' for Active; 'I' for Inactive)
REMARK    1  A    between atoms: N2_5  and  C4_6 
REMARK    2  A    between atoms: C4_6  and  C5_7 
REMARK    3  A    between atoms: C5_7  and  C6_8 
REMARK    4  A    between atoms: C10_13  and  C11_14 
ROOT
HETATM    1  C6  UNL     1      22.354   6.485  50.946  1.00  0.00     0.166 C 
HETATM    2  O1  UNL     1      21.772   5.329  51.539  1.00  0.00    -0.344 OA
HETATM    3  C7  UNL     1      22.989   4.662  51.473  1.00  0.00     0.080 C 
HETATM    4  C8  UNL     1      23.276   3.379  51.620  1.00  0.00     0.051 C 
HETATM    5  C9  UNL     1      24.563   2.706  51.547  1.00  0.00     0.024 A 
HETATM    6  C10 UNL     1      24.524   1.603  52.356  1.00  0.00     0.071 A 
HETATM    7  N3  UNL     1      25.569   0.775  52.492  1.00  0.00    -0.241 NA
HETATM    8  C13 UNL     1      26.708   1.002  51.829  1.00  0.00     0.234 A 
HETATM    9  N4  UNL     1      26.790   2.062  51.033  1.00  0.00    -0.241 NA
HETATM   10  C14 UNL     1      25.778   2.900  50.875  1.00  0.00     0.072 A 
HETATM   11  C15 UNL     1      26.204   3.958  49.932  1.00  0.00     0.056 C 
HETATM   12  C16 UNL     1      25.677   5.144  49.610  1.00  0.00     0.138 C 
HETATM   13  O2  UNL     1      24.552   5.791  50.046  1.00  0.00    -0.348 OA
HETATM   14  C17 UNL     1      23.738   5.926  51.192  1.00  0.00     0.213 C 
ENDROOT
BRANCH   1  15
HETATM   15  C5  UNL     1      22.099   6.644  49.465  1.00  0.00     0.066 C 
BRANCH  15  16
HETATM   16  C4  UNL     1      20.622   6.758  49.206  1.00  0.00     0.275 C 
BRANCH  16  17
HETATM   17  N2  UNL     1      20.185   5.890  48.139  1.00  0.00     0.091 N 
HETATM   18  C3  UNL     1      19.504   4.719  48.600  1.00  0.00     0.302 C 
HETATM   19  C2  UNL     1      20.366   3.499  48.738  1.00  0.00     0.302 C 
HETATM   20  N1  UNL     1      21.268   3.307  47.627  1.00  0.00     0.087 N 
HETATM   21  C1  UNL     1      22.655   3.279  48.064  1.00  0.00     0.310 C 
HETATM   22  C19 UNL     1      21.038   4.269  46.568  1.00  0.00     0.302 C 
HETATM   23  C18 UNL     1      21.215   5.635  47.169  1.00  0.00     0.302 C 
ENDBRANCH  16  17
ENDBRANCH  15  16
ENDBRANCH   1  15
BRANCH   6  24
HETATM   24  C11 UNL     1      23.286   1.403  53.057  1.00  0.00     0.039 C 
HETATM   25  C12 UNL     1      23.011   0.163  53.406  1.00  0.00     0.052 C 
HETATM   26  I1  UNL     1      21.747  -1.233  54.314  1.00  0.00    -0.057 I 
ENDBRANCH   6  24
TORSDOF 4
ENDMDL
