MODEL 1
REMARK VINA RESULT:      -9.2      0.000      0.000
REMARK  4 active torsions:
REMARK  status: ('A' for Active; 'I' for Inactive)
REMARK    1  A    between atoms: C2_2  and  C3_3 
REMARK    2  A    between atoms: C4_5  and  C5_6 
REMARK    3  A    between atoms: N1_14  and  C12_15 
REMARK    4  A    between atoms: C21_29  and  N5_30 
ROOT
HETATM    1  C12 UNL     1      23.483   3.749  51.447  1.00  0.00     0.160 A 
HETATM    2  N2  UNL     1      23.189   4.345  52.651  1.00  0.00    -0.222 NA
HETATM    3  C13 UNL     1      23.534   5.659  52.803  1.00  0.00     0.235 A 
HETATM    4  N3  UNL     1      24.130   6.253  51.766  1.00  0.00    -0.242 NA
HETATM    5  C14 UNL     1      24.435   5.717  50.583  1.00  0.00     0.101 A 
HETATM    6  C15 UNL     1      24.109   4.395  50.370  1.00  0.00     0.127 A 
HETATM    7  N4  UNL     1      24.200   3.407  49.318  1.00  0.00    -0.261 N 
HETATM    8  O1  UNL     1      23.204   4.019  48.702  1.00  0.00    -0.280 OA
HETATM    9  C16 UNL     1      22.666   3.386  47.601  1.00  0.00     0.203 C 
HETATM   10  C17 UNL     1      21.566   4.327  47.031  1.00  0.00     0.055 C 
HETATM   11  C18 UNL     1      22.294   5.671  46.765  1.00  0.00     0.169 C 
HETATM   12  O2  UNL     1      22.840   6.077  48.001  1.00  0.00    -0.391 OA
HETATM   13  C19 UNL     1      23.592   7.192  47.838  1.00  0.00     0.170 C 
HETATM   14  C20 UNL     1      24.248   7.720  49.061  1.00  0.00     0.068 C 
HETATM   15  C21 UNL     1      25.109   6.786  49.826  1.00  0.00     0.274 C 
HETATM   16  H13 UNL     1      24.969   2.767  49.596  1.00  0.00     0.194 HD
ENDROOT
BRANCH   1  17
HETATM   17  N1  UNL     1      23.098   2.385  51.425  1.00  0.00    -0.333 N 
HETATM   18  C11 UNL     1      21.786   1.745  51.241  1.00  0.00     0.156 C 
HETATM   19  C10 UNL     1      21.703   0.455  51.962  1.00  0.00     0.013 C 
HETATM   20  C9  UNL     1      22.649  -0.082  52.763  1.00  0.00     0.022 C 
HETATM   21  C8  UNL     1      23.878   0.718  52.921  1.00  0.00     0.108 C 
HETATM   22 CL1  UNL     1      22.268  -1.646  53.493  1.00  0.00    -0.088 Cl
HETATM   23  C6  UNL     1      25.070  -0.024  53.343  1.00  0.00    -0.062 C 
HETATM   24  C22 UNL     1      24.129   1.428  51.612  1.00  0.00     0.238 C 
HETATM   25  C5  UNL     1      26.239  -0.072  52.674  1.00  0.00    -0.029 C 
HETATM   26  C7  UNL     1      25.026  -0.796  54.611  1.00  0.00     0.045 C 
HETATM   27  C23 UNL     1      26.197   0.727  51.398  1.00  0.00     0.209 C 
HETATM   28  O3  UNL     1      25.436   1.885  51.526  1.00  0.00    -0.361 OA
BRANCH  25  29
HETATM   29  C4  UNL     1      27.461  -0.760  52.997  1.00  0.00     0.051 C 
HETATM   30  C3  UNL     1      28.121  -1.896  52.979  1.00  0.00     0.116 C 
HETATM   31  F1  UNL     1      27.782  -3.151  52.520  1.00  0.00    -0.206 F 
BRANCH  30  32
HETATM   32  C2  UNL     1      29.494  -2.055  53.502  1.00  0.00     0.032 C 
HETATM   33  C1  UNL     1      30.337  -1.123  53.865  1.00  0.00     0.014 C 
ENDBRANCH  30  32
ENDBRANCH  25  29
ENDBRANCH   1  17
BRANCH  15  34
HETATM   34  N5  UNL     1      26.043   7.582  50.624  1.00  0.00     0.088 N 
HETATM   35  H25 UNL     1      26.508   8.301  50.002  1.00  0.00     0.313 HD
HETATM   36  H26 UNL     1      26.832   6.896  50.824  1.00  0.00     0.313 HD
ENDBRANCH  15  34
TORSDOF 4
ENDMDL
MODEL 2
REMARK VINA RESULT:      -8.2      4.189      6.202
REMARK  4 active torsions:
REMARK  status: ('A' for Active; 'I' for Inactive)
REMARK    1  A    between atoms: C2_2  and  C3_3 
REMARK    2  A    between atoms: C4_5  and  C5_6 
REMARK    3  A    between atoms: N1_14  and  C12_15 
REMARK    4  A    between atoms: C21_29  and  N5_30 
ROOT
HETATM    1  C12 UNL     1      26.552   8.164  48.788  1.00  0.00     0.160 A 
HETATM    2  N2  UNL     1      26.033   8.755  49.916  1.00  0.00    -0.222 NA
HETATM    3  C13 UNL     1      26.835   9.629  50.594  1.00  0.00     0.235 A 
HETATM    4  N3  UNL     1      28.059   9.836  50.101  1.00  0.00    -0.242 NA
HETATM    5  C14 UNL     1      28.604   9.288  49.014  1.00  0.00     0.101 A 
HETATM    6  C15 UNL     1      27.842   8.397  48.288  1.00  0.00     0.127 A 
HETATM    7  N4  UNL     1      27.953   7.592  47.092  1.00  0.00    -0.261 N 
HETATM    8  O1  UNL     1      27.813   8.693  46.376  1.00  0.00    -0.280 OA
HETATM    9  C16 UNL     1      27.654   8.539  45.015  1.00  0.00     0.203 C 
HETATM   10  C17 UNL     1      27.570   9.967  44.404  1.00  0.00     0.055 C 
HETATM   11  C18 UNL     1      28.871  10.673  44.870  1.00  0.00     0.169 C 
HETATM   12  O2  UNL     1      28.863  10.629  46.280  1.00  0.00    -0.391 OA
HETATM   13  C19 UNL     1      30.023  11.128  46.772  1.00  0.00     0.170 C 
HETATM   14  C20 UNL     1      30.158  11.122  48.250  1.00  0.00     0.068 C 
HETATM   15  C21 UNL     1      29.974   9.825  48.945  1.00  0.00     0.274 C 
HETATM   16  H13 UNL     1      28.078   6.614  47.419  1.00  0.00     0.194 HD
ENDROOT
BRANCH   1  17
HETATM   17  N1  UNL     1      25.634   7.262  48.193  1.00  0.00    -0.333 N 
HETATM   18  C11 UNL     1      24.560   7.472  47.209  1.00  0.00     0.156 C 
HETATM   19  C10 UNL     1      23.454   6.506  47.394  1.00  0.00     0.013 C 
HETATM   20  C9  UNL     1      23.351   5.578  48.371  1.00  0.00     0.022 C 
HETATM   21  C8  UNL     1      24.465   5.544  49.337  1.00  0.00     0.108 C 
HETATM   22 CL1  UNL     1      21.909   4.557  48.338  1.00  0.00    -0.088 Cl
HETATM   23  C6  UNL     1      24.637   4.284  50.066  1.00  0.00    -0.062 C 
HETATM   24  C22 UNL     1      25.727   5.903  48.589  1.00  0.00     0.238 C 
HETATM   25  C5  UNL     1      25.760   3.538  50.085  1.00  0.00    -0.029 C 
HETATM   26  C7  UNL     1      23.504   3.754  50.866  1.00  0.00     0.045 C 
HETATM   27  C23 UNL     1      26.855   4.138  49.243  1.00  0.00     0.209 C 
HETATM   28  O3  UNL     1      26.860   5.529  49.297  1.00  0.00    -0.361 OA
BRANCH  25  29
HETATM   29  C4  UNL     1      26.034   2.299  50.763  1.00  0.00     0.051 C 
HETATM   30  C3  UNL     1      26.762   1.674  51.660  1.00  0.00     0.116 C 
HETATM   31  F1  UNL     1      27.783   2.106  52.481  1.00  0.00    -0.206 F 
BRANCH  30  32
HETATM   32  C2  UNL     1      26.605   0.243  51.993  1.00  0.00     0.032 C 
HETATM   33  C1  UNL     1      27.312  -0.481  52.820  1.00  0.00     0.014 C 
ENDBRANCH  30  32
ENDBRANCH  25  29
ENDBRANCH   1  17
BRANCH  15  34
HETATM   34  N5  UNL     1      30.649   9.905  50.241  1.00  0.00     0.088 N 
HETATM   35  H25 UNL     1      31.261  10.767  50.264  1.00  0.00     0.313 HD
HETATM   36  H26 UNL     1      31.358   9.112  50.192  1.00  0.00     0.313 HD
ENDBRANCH  15  34
TORSDOF 4
ENDMDL
MODEL 3
REMARK VINA RESULT:      -8.2      4.529      8.147
REMARK  4 active torsions:
REMARK  status: ('A' for Active; 'I' for Inactive)
REMARK    1  A    between atoms: C2_2  and  C3_3 
REMARK    2  A    between atoms: C4_5  and  C5_6 
REMARK    3  A    between atoms: N1_14  and  C12_15 
REMARK    4  A    between atoms: C21_29  and  N5_30 
ROOT
HETATM    1  C12 UNL     1      24.859   5.000  49.814  1.00  0.00     0.160 A 
HETATM    2  N2  UNL     1      25.906   4.308  49.251  1.00  0.00    -0.222 NA
HETATM    3  C13 UNL     1      26.376   3.219  49.930  1.00  0.00     0.235 A 
HETATM    4  N3  UNL     1      25.777   2.919  51.085  1.00  0.00    -0.242 NA
HETATM    5  C14 UNL     1      24.763   3.558  51.668  1.00  0.00     0.101 A 
HETATM    6  C15 UNL     1      24.244   4.665  51.030  1.00  0.00     0.127 A 
HETATM    7  N4  UNL     1      23.193   5.639  51.222  1.00  0.00    -0.261 N 
HETATM    8  O1  UNL     1      22.315   4.712  50.880  1.00  0.00    -0.280 OA
HETATM    9  C16 UNL     1      21.012   5.121  50.695  1.00  0.00     0.203 C 
HETATM   10  C17 UNL     1      20.181   3.849  50.363  1.00  0.00     0.055 C 
HETATM   11  C18 UNL     1      20.438   2.886  51.551  1.00  0.00     0.169 C 
HETATM   12  O2  UNL     1      21.834   2.687  51.604  1.00  0.00    -0.391 OA
HETATM   13  C19 UNL     1      22.161   1.941  52.688  1.00  0.00     0.170 C 
HETATM   14  C20 UNL     1      23.608   1.671  52.880  1.00  0.00     0.068 C 
HETATM   15  C21 UNL     1      24.517   2.842  52.932  1.00  0.00     0.274 C 
HETATM   16  H13 UNL     1      23.668   6.515  51.513  1.00  0.00     0.194 HD
ENDROOT
BRANCH   1  17
HETATM   17  N1  UNL     1      24.482   6.119  49.029  1.00  0.00    -0.333 N 
HETATM   18  C11 UNL     1      23.323   6.346  48.151  1.00  0.00     0.156 C 
HETATM   19  C10 UNL     1      23.653   7.266  47.040  1.00  0.00     0.013 C 
HETATM   20  C9  UNL     1      24.865   7.799  46.769  1.00  0.00     0.022 C 
HETATM   21  C8  UNL     1      25.951   7.409  47.687  1.00  0.00     0.108 C 
HETATM   22 CL1  UNL     1      24.959   8.871  45.367  1.00  0.00    -0.088 Cl
HETATM   23  C6  UNL     1      27.101   8.317  47.735  1.00  0.00    -0.062 C 
HETATM   24  C22 UNL     1      25.347   7.242  49.061  1.00  0.00     0.238 C 
HETATM   25  C5  UNL     1      27.573   8.924  48.843  1.00  0.00    -0.029 C 
HETATM   26  C7  UNL     1      27.836   8.616  46.480  1.00  0.00     0.045 C 
HETATM   27  C23 UNL     1      26.768   8.577  50.067  1.00  0.00     0.209 C 
HETATM   28  O3  UNL     1      26.321   7.259  50.049  1.00  0.00    -0.361 OA
BRANCH  25  29
HETATM   29  C4  UNL     1      28.685   9.823  49.000  1.00  0.00     0.051 C 
HETATM   30  C3  UNL     1      29.961   9.954  49.285  1.00  0.00     0.116 C 
HETATM   31  F1  UNL     1      30.931   9.031  49.615  1.00  0.00    -0.206 F 
BRANCH  30  32
HETATM   32  C2  UNL     1      30.668  11.252  49.304  1.00  0.00     0.032 C 
HETATM   33  C1  UNL     1      30.215  12.428  48.954  1.00  0.00     0.014 C 
ENDBRANCH  30  32
ENDBRANCH  25  29
ENDBRANCH   1  17
BRANCH  15  34
HETATM   34  N5  UNL     1      25.735   2.439  53.634  1.00  0.00     0.088 N 
HETATM   35  H25 UNL     1      26.576   2.854  53.143  1.00  0.00     0.313 HD
HETATM   36  H26 UNL     1      25.814   1.403  53.403  1.00  0.00     0.313 HD
ENDBRANCH  15  34
TORSDOF 4
ENDMDL
MODEL 4
REMARK VINA RESULT:      -8.1      3.688      8.461
REMARK  4 active torsions:
REMARK  status: ('A' for Active; 'I' for Inactive)
REMARK    1  A    between atoms: C2_2  and  C3_3 
REMARK    2  A    between atoms: C4_5  and  C5_6 
REMARK    3  A    between atoms: N1_14  and  C12_15 
REMARK    4  A    between atoms: C21_29  and  N5_30 
ROOT
HETATM    1  C12 UNL     1      22.387   2.897  51.412  1.00  0.00     0.160 A 
HETATM    2  N2  UNL     1      21.458   3.814  51.843  1.00  0.00    -0.222 NA
HETATM    3  C13 UNL     1      20.425   3.350  52.608  1.00  0.00     0.235 A 
HETATM    4  N3  UNL     1      20.407   2.041  52.872  1.00  0.00    -0.242 NA
HETATM    5  C14 UNL     1      21.283   1.116  52.477  1.00  0.00     0.101 A 
HETATM    6  C15 UNL     1      22.348   1.525  51.703  1.00  0.00     0.127 A 
HETATM    7  N4  UNL     1      23.517   0.954  51.071  1.00  0.00    -0.261 N 
HETATM    8  O1  UNL     1      24.082   0.874  52.263  1.00  0.00    -0.280 OA
HETATM    9  C16 UNL     1      25.415   0.524  52.302  1.00  0.00     0.203 C 
HETATM   10  C17 UNL     1      25.819   0.443  53.802  1.00  0.00     0.055 C 
HETATM   11  C18 UNL     1      24.822  -0.569  54.425  1.00  0.00     0.169 C 
HETATM   12  O2  UNL     1      23.532  -0.054  54.185  1.00  0.00    -0.391 OA
HETATM   13  C19 UNL     1      22.589  -0.934  54.602  1.00  0.00     0.170 C 
HETATM   14  C20 UNL     1      21.178  -0.527  54.388  1.00  0.00     0.068 C 
HETATM   15  C21 UNL     1      20.777  -0.161  53.008  1.00  0.00     0.274 C 
HETATM   16  H13 UNL     1      23.299   0.913  50.057  1.00  0.00     0.194 HD
ENDROOT
BRANCH   1  17
HETATM   17  N1  UNL     1      23.390   3.497  50.608  1.00  0.00    -0.333 N 
HETATM   18  C11 UNL     1      24.671   4.130  50.961  1.00  0.00     0.156 C 
HETATM   19  C10 UNL     1      25.035   5.195  50.000  1.00  0.00     0.013 C 
HETATM   20  C9  UNL     1      24.292   5.629  48.959  1.00  0.00     0.022 C 
HETATM   21  C8  UNL     1      22.990   4.958  48.784  1.00  0.00     0.108 C 
HETATM   22 CL1  UNL     1      24.989   6.922  47.977  1.00  0.00    -0.088 Cl
HETATM   23  C6  UNL     1      22.410   5.035  47.439  1.00  0.00    -0.062 C 
HETATM   24  C22 UNL     1      23.158   3.519  49.209  1.00  0.00     0.238 C 
HETATM   25  C5  UNL     1      22.063   3.980  46.675  1.00  0.00    -0.029 C 
HETATM   26  C7  UNL     1      22.166   6.370  46.835  1.00  0.00     0.045 C 
HETATM   27  C23 UNL     1      22.351   2.667  47.356  1.00  0.00     0.209 C 
HETATM   28  O3  UNL     1      22.129   2.724  48.728  1.00  0.00    -0.361 OA
BRANCH  25  29
HETATM   29  C4  UNL     1      21.490   3.943  45.356  1.00  0.00     0.051 C 
HETATM   30  C3  UNL     1      20.393   3.887  44.635  1.00  0.00     0.116 C 
HETATM   31  F1  UNL     1      19.061   3.831  44.988  1.00  0.00    -0.206 F 
BRANCH  30  32
HETATM   32  C2  UNL     1      20.383   3.872  43.157  1.00  0.00     0.032 C 
HETATM   33  C1  UNL     1      20.595   4.865  42.335  1.00  0.00     0.014 C 
ENDBRANCH  30  32
ENDBRANCH  25  29
ENDBRANCH   1  17
BRANCH  15  34
HETATM   34  N5  UNL     1      19.326  -0.318  52.901  1.00  0.00     0.088 N 
HETATM   35  H25 UNL     1      18.896   0.604  52.608  1.00  0.00     0.313 HD
HETATM   36  H26 UNL     1      19.019  -0.411  53.916  1.00  0.00     0.313 HD
ENDBRANCH  15  34
TORSDOF 4
ENDMDL
MODEL 5
REMARK VINA RESULT:      -7.9      3.781      8.181
REMARK  4 active torsions:
REMARK  status: ('A' for Active; 'I' for Inactive)
REMARK    1  A    between atoms: C2_2  and  C3_3 
REMARK    2  A    between atoms: C4_5  and  C5_6 
REMARK    3  A    between atoms: N1_14  and  C12_15 
REMARK    4  A    between atoms: C21_29  and  N5_30 
ROOT
HETATM    1  C12 UNL     1      24.564   3.670  50.455  1.00  0.00     0.160 A 
HETATM    2  N2  UNL     1      25.635   3.607  49.595  1.00  0.00    -0.222 NA
HETATM    3  C13 UNL     1      26.788   3.044  50.066  1.00  0.00     0.235 A 
HETATM    4  N3  UNL     1      26.775   2.602  51.326  1.00  0.00    -0.242 NA
HETATM    5  C14 UNL     1      25.765   2.641  52.194  1.00  0.00     0.101 A 
HETATM    6  C15 UNL     1      24.574   3.196  51.776  1.00  0.00     0.127 A 
HETATM    7  N4  UNL     1      23.248   3.446  52.294  1.00  0.00    -0.261 N 
HETATM    8  O1  UNL     1      22.988   2.157  52.163  1.00  0.00    -0.280 OA
HETATM    9  C16 UNL     1      21.684   1.757  52.363  1.00  0.00     0.203 C 
HETATM   10  C17 UNL     1      21.657   0.210  52.212  1.00  0.00     0.055 C 
HETATM   11  C18 UNL     1      22.700  -0.306  53.237  1.00  0.00     0.169 C 
HETATM   12  O2  UNL     1      23.926   0.302  52.896  1.00  0.00    -0.391 OA
HETATM   13  C19 UNL     1      24.875  -0.009  53.812  1.00  0.00     0.170 C 
HETATM   14  C20 UNL     1      26.217   0.586  53.586  1.00  0.00     0.068 C 
HETATM   15  C21 UNL     1      26.291   2.060  53.441  1.00  0.00     0.274 C 
HETATM   16  H13 UNL     1      23.206   4.466  52.485  1.00  0.00     0.194 HD
ENDROOT
BRANCH   1  17
HETATM   17  N1  UNL     1      23.441   4.296  49.857  1.00  0.00    -0.333 N 
HETATM   18  C11 UNL     1      22.142   3.758  49.423  1.00  0.00     0.156 C 
HETATM   19  C10 UNL     1      21.594   4.518  48.277  1.00  0.00     0.013 C 
HETATM   20  C9  UNL     1      22.196   5.534  47.622  1.00  0.00     0.022 C 
HETATM   21  C8  UNL     1      23.535   5.905  48.117  1.00  0.00     0.108 C 
HETATM   22 CL1  UNL     1      21.294   6.255  46.285  1.00  0.00    -0.088 Cl
HETATM   23  C6  UNL     1      23.982   7.262  47.789  1.00  0.00    -0.062 C 
HETATM   24  C22 UNL     1      23.543   5.689  49.612  1.00  0.00     0.238 C 
HETATM   25  C5  UNL     1      24.358   8.200  48.681  1.00  0.00    -0.029 C 
HETATM   26  C7  UNL     1      24.043   7.675  46.363  1.00  0.00     0.045 C 
HETATM   27  C23 UNL     1      24.259   7.705  50.101  1.00  0.00     0.209 C 
HETATM   28  O3  UNL     1      24.597   6.360  50.215  1.00  0.00    -0.361 OA
BRANCH  25  29
HETATM   29  C4  UNL     1      24.812   9.548  48.468  1.00  0.00     0.051 C 
HETATM   30  C3  UNL     1      25.818  10.392  48.523  1.00  0.00     0.116 C 
HETATM   31  F1  UNL     1      27.135  10.231  48.901  1.00  0.00    -0.206 F 
BRANCH  30  32
HETATM   32  C2  UNL     1      25.714  11.818  48.149  1.00  0.00     0.032 C 
HETATM   33  C1  UNL     1      26.662  12.718  48.110  1.00  0.00     0.014 C 
ENDBRANCH  30  32
ENDBRANCH  25  29
ENDBRANCH   1  17
BRANCH  15  34
HETATM   34  N5  UNL     1      27.657   2.478  53.763  1.00  0.00     0.088 N 
HETATM   35  H25 UNL     1      27.640   3.469  54.136  1.00  0.00     0.313 HD
HETATM   36  H26 UNL     1      28.104   2.594  52.804  1.00  0.00     0.313 HD
ENDBRANCH  15  34
TORSDOF 4
ENDMDL
MODEL 6
REMARK VINA RESULT:      -7.9     23.898     26.571
REMARK  4 active torsions:
REMARK  status: ('A' for Active; 'I' for Inactive)
REMARK    1  A    between atoms: C2_2  and  C3_3 
REMARK    2  A    between atoms: C4_5  and  C5_6 
REMARK    3  A    between atoms: N1_14  and  C12_15 
REMARK    4  A    between atoms: C21_29  and  N5_30 
ROOT
HETATM    1  C12 UNL     1      42.121   1.686  69.461  1.00  0.00     0.160 A 
HETATM    2  N2  UNL     1      40.895   2.243  69.740  1.00  0.00    -0.222 NA
HETATM    3  C13 UNL     1      39.791   1.625  69.223  1.00  0.00     0.235 A 
HETATM    4  N3  UNL     1      39.998   0.530  68.487  1.00  0.00    -0.242 NA
HETATM    5  C14 UNL     1      41.164  -0.045  68.190  1.00  0.00     0.101 A 
HETATM    6  C15 UNL     1      42.314   0.533  68.685  1.00  0.00     0.127 A 
HETATM    7  N4  UNL     1      43.742   0.303  68.670  1.00  0.00    -0.261 N 
HETATM    8  O1  UNL     1      43.559  -0.683  69.531  1.00  0.00    -0.280 OA
HETATM    9  C16 UNL     1      44.688  -1.248  70.085  1.00  0.00     0.203 C 
HETATM   10  C17 UNL     1      44.210  -2.408  71.004  1.00  0.00     0.055 C 
HETATM   11  C18 UNL     1      43.366  -3.323  70.079  1.00  0.00     0.169 C 
HETATM   12  O2  UNL     1      42.334  -2.515  69.558  1.00  0.00    -0.391 OA
HETATM   13  C19 UNL     1      41.608  -3.210  68.648  1.00  0.00     0.170 C 
HETATM   14  C20 UNL     1      40.496  -2.470  68.000  1.00  0.00     0.068 C 
HETATM   15  C21 UNL     1      40.832  -1.191  67.327  1.00  0.00     0.274 C 
HETATM   16  H13 UNL     1      44.136   1.008  68.017  1.00  0.00     0.194 HD
ENDROOT
BRANCH   1  17
HETATM   17  N1  UNL     1      43.183   2.432  70.031  1.00  0.00    -0.333 N 
HETATM   18  C11 UNL     1      43.735   2.455  71.395  1.00  0.00     0.156 C 
HETATM   19  C10 UNL     1      44.292   3.784  71.736  1.00  0.00     0.013 C 
HETATM   20  C9  UNL     1      44.258   4.892  70.964  1.00  0.00     0.022 C 
HETATM   21  C8  UNL     1      43.594   4.738  69.657  1.00  0.00     0.108 C 
HETATM   22 CL1  UNL     1      45.009   6.344  71.637  1.00  0.00    -0.088 Cl
HETATM   23  C6  UNL     1      43.968   5.718  68.633  1.00  0.00    -0.062 C 
HETATM   24  C22 UNL     1      43.864   3.333  69.172  1.00  0.00     0.238 C 
HETATM   25  C5  UNL     1      44.478   5.426  67.419  1.00  0.00    -0.029 C 
HETATM   26  C7  UNL     1      43.782   7.164  68.917  1.00  0.00     0.045 C 
HETATM   27  C23 UNL     1      44.644   3.943  67.215  1.00  0.00     0.209 C 
HETATM   28  O3  UNL     1      43.623   3.210  67.812  1.00  0.00    -0.361 OA
BRANCH  25  29
HETATM   29  C4  UNL     1      44.873   6.302  66.349  1.00  0.00     0.051 C 
HETATM   30  C3  UNL     1      44.484   7.097  65.377  1.00  0.00     0.116 C 
HETATM   31  F1  UNL     1      43.231   7.465  64.935  1.00  0.00    -0.206 F 
BRANCH  30  32
HETATM   32  C2  UNL     1      45.416   7.821  64.487  1.00  0.00     0.032 C 
HETATM   33  C1  UNL     1      45.894   7.440  63.331  1.00  0.00     0.014 C 
ENDBRANCH  30  32
ENDBRANCH  25  29
ENDBRANCH   1  17
BRANCH  15  34
HETATM   34  N5  UNL     1      39.788  -0.911  66.340  1.00  0.00     0.088 N 
HETATM   35  H25 UNL     1      39.925   0.065  65.955  1.00  0.00     0.313 HD
HETATM   36  H26 UNL     1      38.914  -0.809  66.938  1.00  0.00     0.313 HD
ENDBRANCH  15  34
TORSDOF 4
ENDMDL
MODEL 7
REMARK VINA RESULT:      -7.8      5.081      7.334
REMARK  4 active torsions:
REMARK  status: ('A' for Active; 'I' for Inactive)
REMARK    1  A    between atoms: C2_2  and  C3_3 
REMARK    2  A    between atoms: C4_5  and  C5_6 
REMARK    3  A    between atoms: N1_14  and  C12_15 
REMARK    4  A    between atoms: C21_29  and  N5_30 
ROOT
HETATM    1  C12 UNL     1      24.336   6.647  48.284  1.00  0.00     0.160 A 
HETATM    2  N2  UNL     1      24.006   7.493  47.251  1.00  0.00    -0.222 NA
HETATM    3  C13 UNL     1      23.062   7.061  46.362  1.00  0.00     0.235 A 
HETATM    4  N3  UNL     1      22.539   5.851  46.574  1.00  0.00    -0.242 NA
HETATM    5  C14 UNL     1      22.826   4.998  47.558  1.00  0.00     0.101 A 
HETATM    6  C15 UNL     1      23.771   5.379  48.487  1.00  0.00     0.127 A 
HETATM    7  N4  UNL     1      24.390   4.859  49.686  1.00  0.00    -0.261 N 
HETATM    8  O1  UNL     1      23.270   5.119  50.338  1.00  0.00    -0.280 OA
HETATM    9  C16 UNL     1      23.297   4.980  51.710  1.00  0.00     0.203 C 
HETATM   10  C17 UNL     1      21.860   5.282  52.224  1.00  0.00     0.055 C 
HETATM   11  C18 UNL     1      20.948   4.295  51.449  1.00  0.00     0.169 C 
HETATM   12  O2  UNL     1      21.155   4.557  50.079  1.00  0.00    -0.391 OA
HETATM   13  C19 UNL     1      20.476   3.661  49.322  1.00  0.00     0.170 C 
HETATM   14  C20 UNL     1      20.622   3.807  47.852  1.00  0.00     0.068 C 
HETATM   15  C21 UNL     1      22.000   3.806  47.303  1.00  0.00     0.274 C 
HETATM   16  H13 UNL     1      25.348   4.570  49.409  1.00  0.00     0.194 HD
ENDROOT
BRANCH   1  17
HETATM   17  N1  UNL     1      25.341   7.198  49.119  1.00  0.00    -0.333 N 
HETATM   18  C11 UNL     1      25.295   8.280  50.115  1.00  0.00     0.156 C 
HETATM   19  C10 UNL     1      26.593   8.984  50.216  1.00  0.00     0.013 C 
HETATM   20  C9  UNL     1      27.691   8.760  49.462  1.00  0.00     0.022 C 
HETATM   21  C8  UNL     1      27.558   7.702  48.443  1.00  0.00     0.108 C 
HETATM   22 CL1  UNL     1      29.105   9.761  49.811  1.00  0.00    -0.088 Cl
HETATM   23  C6  UNL     1      28.813   7.105  47.978  1.00  0.00    -0.062 C 
HETATM   24  C22 UNL     1      26.641   6.642  49.005  1.00  0.00     0.238 C 
HETATM   25  C5  UNL     1      29.123   5.794  48.030  1.00  0.00    -0.029 C 
HETATM   26  C7  UNL     1      29.855   7.985  47.390  1.00  0.00     0.045 C 
HETATM   27  C23 UNL     1      28.020   4.974  48.646  1.00  0.00     0.209 C 
HETATM   28  O3  UNL     1      26.757   5.449  48.307  1.00  0.00    -0.361 OA
BRANCH  25  29
HETATM   29  C4  UNL     1      30.314   5.108  47.602  1.00  0.00     0.051 C 
HETATM   30  C3  UNL     1      31.575   4.835  47.851  1.00  0.00     0.116 C 
HETATM   31  F1  UNL     1      32.411   5.208  48.882  1.00  0.00    -0.206 F 
BRANCH  30  32
HETATM   32  C2  UNL     1      32.417   3.988  46.981  1.00  0.00     0.032 C 
HETATM   33  C1  UNL     1      32.169   2.785  46.534  1.00  0.00     0.014 C 
ENDBRANCH  30  32
ENDBRANCH  25  29
ENDBRANCH   1  17
BRANCH  15  34
HETATM   34  N5  UNL     1      21.926   3.424  45.892  1.00  0.00     0.088 N 
HETATM   35  H25 UNL     1      22.770   3.806  45.381  1.00  0.00     0.313 HD
HETATM   36  H26 UNL     1      21.131   4.027  45.522  1.00  0.00     0.313 HD
ENDBRANCH  15  34
TORSDOF 4
ENDMDL
MODEL 8
REMARK VINA RESULT:      -7.6      4.358      8.592
REMARK  4 active torsions:
REMARK  status: ('A' for Active; 'I' for Inactive)
REMARK    1  A    between atoms: C2_2  and  C3_3 
REMARK    2  A    between atoms: C4_5  and  C5_6 
REMARK    3  A    between atoms: N1_14  and  C12_15 
REMARK    4  A    between atoms: C21_29  and  N5_30 
ROOT
HETATM    1  C12 UNL     1      20.410   2.882  51.362  1.00  0.00     0.160 A 
HETATM    2  N2  UNL     1      19.438   3.849  51.473  1.00  0.00    -0.222 NA
HETATM    3  C13 UNL     1      18.137   3.434  51.484  1.00  0.00     0.235 A 
HETATM    4  N3  UNL     1      17.919   2.120  51.385  1.00  0.00    -0.242 NA
HETATM    5  C14 UNL     1      18.825   1.148  51.277  1.00  0.00     0.101 A 
HETATM    6  C15 UNL     1      20.157   1.506  51.261  1.00  0.00     0.127 A 
HETATM    7  N4  UNL     1      21.454   0.871  51.186  1.00  0.00    -0.261 N 
HETATM    8  O1  UNL     1      21.305   0.490  52.442  1.00  0.00    -0.280 OA
HETATM    9  C16 UNL     1      22.401  -0.076  53.059  1.00  0.00     0.203 C 
HETATM   10  C17 UNL     1      21.953  -0.485  54.491  1.00  0.00     0.055 C 
HETATM   11  C18 UNL     1      20.729  -1.414  54.273  1.00  0.00     0.169 C 
HETATM   12  O2  UNL     1      19.783  -0.659  53.548  1.00  0.00    -0.391 OA
HETATM   13  C19 UNL     1      18.721  -1.431  53.216  1.00  0.00     0.170 C 
HETATM   14  C20 UNL     1      17.653  -0.766  52.428  1.00  0.00     0.068 C 
HETATM   15  C21 UNL     1      18.054  -0.102  51.164  1.00  0.00     0.274 C 
HETATM   16  H13 UNL     1      21.799   1.045  50.222  1.00  0.00     0.194 HD
ENDROOT
BRANCH   1  17
HETATM   17  N1  UNL     1      21.713   3.441  51.336  1.00  0.00    -0.333 N 
HETATM   18  C11 UNL     1      22.731   3.586  52.389  1.00  0.00     0.156 C 
HETATM   19  C10 UNL     1      23.579   4.779  52.167  1.00  0.00     0.013 C 
HETATM   20  C9  UNL     1      23.435   5.697  51.186  1.00  0.00     0.022 C 
HETATM   21  C8  UNL     1      22.313   5.466  50.257  1.00  0.00     0.108 C 
HETATM   22 CL1  UNL     1      24.604   7.023  51.170  1.00  0.00    -0.088 Cl
HETATM   23  C6  UNL     1      22.427   6.115  48.948  1.00  0.00    -0.062 C 
HETATM   24  C22 UNL     1      22.155   3.972  50.098  1.00  0.00     0.238 C 
HETATM   25  C5  UNL     1      22.391   5.486  47.756  1.00  0.00    -0.029 C 
HETATM   26  C7  UNL     1      22.593   7.590  48.887  1.00  0.00     0.045 C 
HETATM   27  C23 UNL     1      22.231   3.995  47.906  1.00  0.00     0.209 C 
HETATM   28  O3  UNL     1      21.406   3.658  48.974  1.00  0.00    -0.361 OA
BRANCH  25  29
HETATM   29  C4  UNL     1      22.490   6.022  46.425  1.00  0.00     0.051 C 
HETATM   30  C3  UNL     1      22.095   5.941  45.174  1.00  0.00     0.116 C 
HETATM   31  F1  UNL     1      21.213   5.091  44.540  1.00  0.00    -0.206 F 
BRANCH  30  32
HETATM   32  C2  UNL     1      22.571   6.842  44.104  1.00  0.00     0.032 C 
HETATM   33  C1  UNL     1      23.690   7.516  44.048  1.00  0.00     0.014 C 
ENDBRANCH  30  32
ENDBRANCH  25  29
ENDBRANCH   1  17
BRANCH  15  34
HETATM   34  N5  UNL     1      16.869   0.004  50.312  1.00  0.00     0.088 N 
HETATM   35  H25 UNL     1      16.999   0.804  49.631  1.00  0.00     0.313 HD
HETATM   36  H26 UNL     1      16.127   0.376  50.977  1.00  0.00     0.313 HD
ENDBRANCH  15  34
TORSDOF 4
ENDMDL
MODEL 9
REMARK VINA RESULT:      -7.6      2.600      3.336
REMARK  4 active torsions:
REMARK  status: ('A' for Active; 'I' for Inactive)
REMARK    1  A    between atoms: C2_2  and  C3_3 
REMARK    2  A    between atoms: C4_5  and  C5_6 
REMARK    3  A    between atoms: N1_14  and  C12_15 
REMARK    4  A    between atoms: C21_29  and  N5_30 
ROOT
HETATM    1  C12 UNL     1      21.447   4.807  49.581  1.00  0.00     0.160 A 
HETATM    2  N2  UNL     1      20.852   5.584  50.547  1.00  0.00    -0.222 NA
HETATM    3  C13 UNL     1      21.291   6.872  50.677  1.00  0.00     0.235 A 
HETATM    4  N3  UNL     1      22.265   7.266  49.852  1.00  0.00    -0.242 NA
HETATM    5  C14 UNL     1      22.871   6.551  48.904  1.00  0.00     0.101 A 
HETATM    6  C15 UNL     1      22.469   5.244  48.724  1.00  0.00     0.127 A 
HETATM    7  N4  UNL     1      22.775   4.119  47.869  1.00  0.00    -0.261 N 
HETATM    8  O1  UNL     1      22.123   4.724  46.893  1.00  0.00    -0.280 OA
HETATM    9  C16 UNL     1      21.900   3.996  45.743  1.00  0.00     0.203 C 
HETATM   10  C17 UNL     1      21.177   4.941  44.741  1.00  0.00     0.055 C 
HETATM   11  C18 UNL     1      22.116   6.169  44.608  1.00  0.00     0.169 C 
HETATM   12  O2  UNL     1      22.273   6.691  45.910  1.00  0.00    -0.391 OA
HETATM   13  C19 UNL     1      23.171   7.706  45.904  1.00  0.00     0.170 C 
HETATM   14  C20 UNL     1      23.449   8.336  47.218  1.00  0.00     0.068 C 
HETATM   15  C21 UNL     1      23.886   7.445  48.320  1.00  0.00     0.274 C 
HETATM   16  H13 UNL     1      23.323   3.459  48.455  1.00  0.00     0.194 HD
ENDROOT
BRANCH   1  17
HETATM   17  N1  UNL     1      20.923   3.490  49.564  1.00  0.00    -0.333 N 
HETATM   18  C11 UNL     1      19.744   2.920  48.892  1.00  0.00     0.156 C 
HETATM   19  C10 UNL     1      19.175   1.787  49.657  1.00  0.00     0.013 C 
HETATM   20  C9  UNL     1      19.593   1.339  50.861  1.00  0.00     0.022 C 
HETATM   21  C8  UNL     1      20.731   2.068  51.452  1.00  0.00     0.108 C 
HETATM   22 CL1  UNL     1      18.718  -0.040  51.536  1.00  0.00    -0.088 Cl
HETATM   23  C6  UNL     1      21.504   1.333  52.458  1.00  0.00    -0.062 C 
HETATM   24  C22 UNL     1      21.623   2.514  50.318  1.00  0.00     0.238 C 
HETATM   25  C5  UNL     1      22.828   1.086  52.401  1.00  0.00    -0.029 C 
HETATM   26  C7  UNL     1      20.806   0.804  53.658  1.00  0.00     0.045 C 
HETATM   27  C23 UNL     1      23.457   1.646  51.152  1.00  0.00     0.209 C 
HETATM   28  O3  UNL     1      22.888   2.857  50.772  1.00  0.00    -0.361 OA
BRANCH  25  29
HETATM   29  C4  UNL     1      23.678   0.385  53.327  1.00  0.00     0.051 C 
HETATM   30  C3  UNL     1      23.787  -0.601  54.188  1.00  0.00     0.116 C 
HETATM   31  F1  UNL     1      22.889  -1.558  54.612  1.00  0.00    -0.206 F 
BRANCH  30  32
HETATM   32  C2  UNL     1      25.024  -0.899  54.941  1.00  0.00     0.032 C 
HETATM   33  C1  UNL     1      26.118  -0.187  55.018  1.00  0.00     0.014 C 
ENDBRANCH  30  32
ENDBRANCH  25  29
ENDBRANCH   1  17
BRANCH  15  34
HETATM   34  N5  UNL     1      24.599   8.259  49.306  1.00  0.00     0.088 N 
HETATM   35  H25 UNL     1      25.426   8.726  48.840  1.00  0.00     0.313 HD
HETATM   36  H26 UNL     1      25.059   7.531  49.931  1.00  0.00     0.313 HD
ENDBRANCH  15  34
TORSDOF 4
ENDMDL
