MODEL 1
REMARK VINA RESULT:      -8.0      0.000      0.000
REMARK  9 active torsions:
REMARK  status: ('A' for Active; 'I' for Inactive)
REMARK    1  A    between atoms: C3_3  and  S1_4 
REMARK    2  A    between atoms: C5_6  and  O1_7 
REMARK    3  A    between atoms: O1_7  and  C6_8 
REMARK    4  A    between atoms: N1_13  and  C11_14 
REMARK    5  A    between atoms: C11_14  and  C12_15 
REMARK    6  A    between atoms: C12_15  and  N2_16 
REMARK    7  A    between atoms: N2_16  and  C13_17 
REMARK    8  A    between atoms: C20_24  and  C21_25 
REMARK    9  A    between atoms: C21_25  and  O2_26 
ROOT
HETATM    1  C6  UNL     1      25.674   2.836  50.879  1.00  0.00     0.249 C 
HETATM    2  C7  UNL     1      26.506   3.151  49.656  1.00  0.00     0.022 C 
HETATM    3  C8  UNL     1      26.304   4.451  49.358  1.00  0.00    -0.025 C 
HETATM    4  C9  UNL     1      25.452   5.507  50.019  1.00  0.00     0.046 C 
HETATM    5  C10 UNL     1      24.335   4.814  50.794  1.00  0.00     0.123 C 
HETATM    6  N1  UNL     1      24.392   3.402  50.652  1.00  0.00    -0.382 N 
ENDROOT
BRANCH   1   7
HETATM    7  O1  UNL     1      25.558   1.445  51.058  1.00  0.00    -0.327 OA
BRANCH   7   8
HETATM    8  C5  UNL     1      26.273   0.784  52.088  1.00  0.00     0.051 C 
HETATM    9  C4  UNL     1      26.271  -0.632  52.523  1.00  0.00     0.110 C 
HETATM   10  C3  UNL     1      27.624  -0.962  53.030  1.00  0.00    -0.016 C 
HETATM   11  C2  UNL     1      28.403  -0.081  53.648  1.00  0.00    -0.061 C 
HETATM   12  C1  UNL     1      29.729  -0.567  54.099  1.00  0.00     0.045 C 
HETATM   13  C20 UNL     1      27.952   1.304  53.862  1.00  0.00     0.064 C 
HETATM   14  C19 UNL     1      27.063   1.674  52.724  1.00  0.00     0.017 C 
BRANCH  10  15
HETATM   15  S1  UNL     1      28.349  -2.599  52.862  1.00  0.00    -0.147 SA
HETATM   16  H4  UNL     1      27.444  -3.555  53.358  1.00  0.00     0.107 HD
ENDBRANCH  10  15
BRANCH  13  17
HETATM   17  C21 UNL     1      29.092   2.283  53.988  1.00  0.00     0.177 C 
BRANCH  17  18
HETATM   18  O2  UNL     1      29.036   3.148  52.871  1.00  0.00    -0.400 OA
HETATM   19  H28 UNL     1      29.288   4.064  53.120  1.00  0.00     0.209 HD
ENDBRANCH  17  18
ENDBRANCH  13  17
ENDBRANCH   7   8
ENDBRANCH   1   7
BRANCH   6  20
HETATM   20  C11 UNL     1      23.258   2.613  50.766  1.00  0.00     0.139 C 
BRANCH  20  21
HETATM   21  C12 UNL     1      22.488   2.722  52.058  1.00  0.00     0.139 C 
BRANCH  21  22
HETATM   22  N2  UNL     1      23.102   1.754  52.978  1.00  0.00    -0.388 N 
HETATM   23  H18 UNL     1      24.087   1.828  53.329  1.00  0.00     0.159 HD
BRANCH  22  24
HETATM   24  C13 UNL     1      22.278   0.665  53.397  1.00  0.00     0.028 A 
HETATM   25  C14 UNL     1      20.913   0.742  53.169  1.00  0.00     0.029 A 
HETATM   26  C15 UNL     1      20.099  -0.306  53.567  1.00  0.00     0.002 A 
HETATM   27  C16 UNL     1      20.724  -1.366  54.172  1.00  0.00     0.000 A 
HETATM   28  C17 UNL     1      22.070  -1.512  54.432  1.00  0.00     0.002 A 
HETATM   29  C18 UNL     1      22.843  -0.424  54.008  1.00  0.00     0.029 A 
ENDBRANCH  22  24
ENDBRANCH  21  22
ENDBRANCH  20  21
ENDBRANCH   6  20
TORSDOF 9
ENDMDL
MODEL 2
REMARK VINA RESULT:      -7.7      1.440      5.189
REMARK  9 active torsions:
REMARK  status: ('A' for Active; 'I' for Inactive)
REMARK    1  A    between atoms: C3_3  and  S1_4 
REMARK    2  A    between atoms: C5_6  and  O1_7 
REMARK    3  A    between atoms: O1_7  and  C6_8 
REMARK    4  A    between atoms: N1_13  and  C11_14 
REMARK    5  A    between atoms: C11_14  and  C12_15 
REMARK    6  A    between atoms: C12_15  and  N2_16 
REMARK    7  A    between atoms: N2_16  and  C13_17 
REMARK    8  A    between atoms: C20_24  and  C21_25 
REMARK    9  A    between atoms: C21_25  and  O2_26 
ROOT
HETATM    1  C6  UNL     1      23.388   1.025  51.777  1.00  0.00     0.249 C 
HETATM    2  C7  UNL     1      22.537   1.241  53.008  1.00  0.00     0.022 C 
HETATM    3  C8  UNL     1      21.257   0.997  52.658  1.00  0.00    -0.025 C 
HETATM    4  C9  UNL     1      20.642   0.582  51.344  1.00  0.00     0.046 C 
HETATM    5  C10 UNL     1      21.579   1.004  50.215  1.00  0.00     0.123 C 
HETATM    6  N1  UNL     1      22.725   1.683  50.707  1.00  0.00    -0.382 N 
ENDROOT
BRANCH   1   7
HETATM    7  O1  UNL     1      24.671   1.575  51.955  1.00  0.00    -0.327 OA
BRANCH   7   8
HETATM    8  C5  UNL     1      25.659   0.885  52.699  1.00  0.00     0.051 C 
HETATM    9  C4  UNL     1      25.771  -0.541  53.086  1.00  0.00     0.110 C 
HETATM   10  C3  UNL     1      27.210  -0.894  53.142  1.00  0.00    -0.016 C 
HETATM   11  C2  UNL     1      28.154  -0.035  53.504  1.00  0.00    -0.061 C 
HETATM   12  C1  UNL     1      29.548  -0.542  53.512  1.00  0.00     0.045 C 
HETATM   13  C20 UNL     1      27.814   1.349  53.874  1.00  0.00     0.064 C 
HETATM   14  C19 UNL     1      26.622   1.753  53.076  1.00  0.00     0.017 C 
BRANCH  10  15
HETATM   15  S1  UNL     1      27.822  -2.533  52.725  1.00  0.00    -0.147 SA
HETATM   16  H4  UNL     1      28.625  -3.005  53.779  1.00  0.00     0.107 HD
ENDBRANCH  10  15
BRANCH  13  17
HETATM   17  C21 UNL     1      28.951   2.315  53.660  1.00  0.00     0.177 C 
BRANCH  17  18
HETATM   18  O2  UNL     1      29.648   2.430  54.884  1.00  0.00    -0.400 OA
HETATM   19  H28 UNL     1      29.160   2.999  55.518  1.00  0.00     0.209 HD
ENDBRANCH  17  18
ENDBRANCH  13  17
ENDBRANCH   7   8
ENDBRANCH   1   7
BRANCH   6  20
HETATM   20  C11 UNL     1      23.409   2.609  49.936  1.00  0.00     0.139 C 
BRANCH  20  21
HETATM   21  C12 UNL     1      23.360   4.043  50.403  1.00  0.00     0.139 C 
BRANCH  21  22
HETATM   22  N2  UNL     1      24.688   4.331  50.962  1.00  0.00    -0.388 N 
HETATM   23  H18 UNL     1      24.956   4.137  51.956  1.00  0.00     0.159 HD
BRANCH  22  24
HETATM   24  C13 UNL     1      25.641   4.908  50.068  1.00  0.00     0.028 A 
HETATM   25  C14 UNL     1      25.515   6.248  49.738  1.00  0.00     0.029 A 
HETATM   26  C15 UNL     1      26.431   6.823  48.873  1.00  0.00     0.002 A 
HETATM   27  C16 UNL     1      27.420   5.999  48.398  1.00  0.00     0.000 A 
HETATM   28  C17 UNL     1      27.609   4.663  48.680  1.00  0.00     0.002 A 
HETATM   29  C18 UNL     1      26.654   4.136  49.558  1.00  0.00     0.029 A 
ENDBRANCH  22  24
ENDBRANCH  21  22
ENDBRANCH  20  21
ENDBRANCH   6  20
TORSDOF 9
ENDMDL
MODEL 3
REMARK VINA RESULT:      -7.7      2.593      5.135
REMARK  9 active torsions:
REMARK  status: ('A' for Active; 'I' for Inactive)
REMARK    1  A    between atoms: C3_3  and  S1_4 
REMARK    2  A    between atoms: C5_6  and  O1_7 
REMARK    3  A    between atoms: O1_7  and  C6_8 
REMARK    4  A    between atoms: N1_13  and  C11_14 
REMARK    5  A    between atoms: C11_14  and  C12_15 
REMARK    6  A    between atoms: C12_15  and  N2_16 
REMARK    7  A    between atoms: N2_16  and  C13_17 
REMARK    8  A    between atoms: C20_24  and  C21_25 
REMARK    9  A    between atoms: C21_25  and  O2_26 
ROOT
HETATM    1  C6  UNL     1      27.356   1.579  53.337  1.00  0.00     0.249 C 
HETATM    2  C7  UNL     1      28.589   2.324  53.796  1.00  0.00     0.022 C 
HETATM    3  C8  UNL     1      29.591   1.425  53.887  1.00  0.00    -0.025 C 
HETATM    4  C9  UNL     1      29.629  -0.059  53.615  1.00  0.00     0.046 C 
HETATM    5  C10 UNL     1      28.214  -0.614  53.753  1.00  0.00     0.123 C 
HETATM    6  N1  UNL     1      27.285   0.396  54.120  1.00  0.00    -0.382 N 
ENDROOT
BRANCH   1   7
HETATM    7  O1  UNL     1      26.201   2.356  53.538  1.00  0.00    -0.327 OA
BRANCH   7   8
HETATM    8  C5  UNL     1      25.403   2.767  52.441  1.00  0.00     0.051 C 
HETATM    9  C4  UNL     1      23.979   3.168  52.365  1.00  0.00     0.110 C 
HETATM   10  C3  UNL     1      23.839   4.178  51.289  1.00  0.00    -0.016 C 
HETATM   11  C2  UNL     1      24.585   4.177  50.191  1.00  0.00    -0.061 C 
HETATM   12  C1  UNL     1      24.321   5.253  49.207  1.00  0.00     0.045 C 
HETATM   13  C20 UNL     1      25.618   3.148  49.982  1.00  0.00     0.064 C 
HETATM   14  C19 UNL     1      26.153   2.763  51.319  1.00  0.00     0.017 C 
BRANCH  10  15
HETATM   15  S1  UNL     1      22.635   5.512  51.364  1.00  0.00    -0.147 SA
HETATM   16  H4  UNL     1      21.722   5.249  52.401  1.00  0.00     0.107 HD
ENDBRANCH  10  15
BRANCH  13  17
HETATM   17  C21 UNL     1      26.731   3.605  49.073  1.00  0.00     0.177 C 
BRANCH  17  18
HETATM   18  O2  UNL     1      27.615   4.392  49.846  1.00  0.00    -0.400 OA
HETATM   19  H28 UNL     1      27.684   4.049  50.764  1.00  0.00     0.209 HD
ENDBRANCH  17  18
ENDBRANCH  13  17
ENDBRANCH   7   8
ENDBRANCH   1   7
BRANCH   6  20
HETATM   20  C11 UNL     1      26.125   0.099  54.819  1.00  0.00     0.139 C 
BRANCH  20  21
HETATM   21  C12 UNL     1      25.261  -1.001  54.254  1.00  0.00     0.139 C 
BRANCH  21  22
HETATM   22  N2  UNL     1      24.460  -0.379  53.189  1.00  0.00    -0.388 N 
HETATM   23  H18 UNL     1      24.873   0.103  52.356  1.00  0.00     0.159 HD
BRANCH  22  24
HETATM   24  C13 UNL     1      23.041  -0.459  53.335  1.00  0.00     0.028 A 
HETATM   25  C14 UNL     1      22.524  -1.092  54.454  1.00  0.00     0.029 A 
HETATM   26  C15 UNL     1      21.150  -1.176  54.611  1.00  0.00     0.002 A 
HETATM   27  C16 UNL     1      20.388  -0.612  53.621  1.00  0.00     0.000 A 
HETATM   28  C17 UNL     1      20.829   0.032  52.484  1.00  0.00     0.002 A 
HETATM   29  C18 UNL     1      22.224   0.087  52.378  1.00  0.00     0.029 A 
ENDBRANCH  22  24
ENDBRANCH  21  22
ENDBRANCH  20  21
ENDBRANCH   6  20
TORSDOF 9
ENDMDL
MODEL 4
REMARK VINA RESULT:      -7.5      2.707      5.881
REMARK  9 active torsions:
REMARK  status: ('A' for Active; 'I' for Inactive)
REMARK    1  A    between atoms: C3_3  and  S1_4 
REMARK    2  A    between atoms: C5_6  and  O1_7 
REMARK    3  A    between atoms: O1_7  and  C6_8 
REMARK    4  A    between atoms: N1_13  and  C11_14 
REMARK    5  A    between atoms: C11_14  and  C12_15 
REMARK    6  A    between atoms: C12_15  and  N2_16 
REMARK    7  A    between atoms: N2_16  and  C13_17 
REMARK    8  A    between atoms: C20_24  and  C21_25 
REMARK    9  A    between atoms: C21_25  and  O2_26 
ROOT
HETATM    1  C6  UNL     1      22.715   2.234  50.162  1.00  0.00     0.249 C 
HETATM    2  C7  UNL     1      21.718   1.259  49.577  1.00  0.00     0.022 C 
HETATM    3  C8  UNL     1      21.532   1.602  48.286  1.00  0.00    -0.025 C 
HETATM    4  C9  UNL     1      22.129   2.708  47.450  1.00  0.00     0.046 C 
HETATM    5  C10 UNL     1      22.591   3.824  48.381  1.00  0.00     0.123 C 
HETATM    6  N1  UNL     1      22.308   3.528  49.741  1.00  0.00    -0.382 N 
ENDROOT
BRANCH   1   7
HETATM    7  O1  UNL     1      22.713   2.166  51.568  1.00  0.00    -0.327 OA
BRANCH   7   8
HETATM    8  C5  UNL     1      23.351   1.096  52.242  1.00  0.00     0.051 C 
HETATM    9  C4  UNL     1      24.781   0.723  52.348  1.00  0.00     0.110 C 
HETATM   10  C3  UNL     1      24.998   0.092  53.671  1.00  0.00    -0.016 C 
HETATM   11  C2  UNL     1      24.077  -0.640  54.286  1.00  0.00    -0.061 C 
HETATM   12  C1  UNL     1      24.449  -1.206  55.605  1.00  0.00     0.045 C 
HETATM   13  C20 UNL     1      22.758  -0.864  53.672  1.00  0.00     0.064 C 
HETATM   14  C19 UNL     1      22.420   0.344  52.867  1.00  0.00     0.017 C 
BRANCH  10  15
HETATM   15  S1  UNL     1      26.543   0.251  54.579  1.00  0.00    -0.147 SA
HETATM   16  H4  UNL     1      27.537   0.742  53.712  1.00  0.00     0.107 HD
ENDBRANCH  10  15
BRANCH  13  17
HETATM   17  C21 UNL     1      21.676  -1.150  54.683  1.00  0.00     0.177 C 
BRANCH  17  18
HETATM   18  O2  UNL     1      21.013   0.069  54.952  1.00  0.00    -0.400 OA
HETATM   19  H28 UNL     1      20.066  -0.083  55.164  1.00  0.00     0.209 HD
ENDBRANCH  17  18
ENDBRANCH  13  17
ENDBRANCH   7   8
ENDBRANCH   1   7
BRANCH   6  20
HETATM   20  C11 UNL     1      22.112   4.530  50.679  1.00  0.00     0.139 C 
BRANCH  20  21
HETATM   21  C12 UNL     1      22.940   5.780  50.512  1.00  0.00     0.139 C 
BRANCH  21  22
HETATM   22  N2  UNL     1      24.233   5.498  51.151  1.00  0.00    -0.388 N 
HETATM   23  H18 UNL     1      24.369   5.438  52.188  1.00  0.00     0.159 HD
BRANCH  22  24
HETATM   24  C13 UNL     1      25.343   5.297  50.275  1.00  0.00     0.028 A 
HETATM   25  C14 UNL     1      25.831   6.381  49.564  1.00  0.00     0.029 A 
HETATM   26  C15 UNL     1      26.908   6.204  48.711  1.00  0.00     0.002 A 
HETATM   27  C16 UNL     1      27.421   4.934  48.634  1.00  0.00     0.000 A 
HETATM   28  C17 UNL     1      26.990   3.811  49.307  1.00  0.00     0.002 A 
HETATM   29  C18 UNL     1      25.901   4.049  50.154  1.00  0.00     0.029 A 
ENDBRANCH  22  24
ENDBRANCH  21  22
ENDBRANCH  20  21
ENDBRANCH   6  20
TORSDOF 9
ENDMDL
MODEL 5
REMARK VINA RESULT:      -7.5      2.637      5.973
REMARK  9 active torsions:
REMARK  status: ('A' for Active; 'I' for Inactive)
REMARK    1  A    between atoms: C3_3  and  S1_4 
REMARK    2  A    between atoms: C5_6  and  O1_7 
REMARK    3  A    between atoms: O1_7  and  C6_8 
REMARK    4  A    between atoms: N1_13  and  C11_14 
REMARK    5  A    between atoms: C11_14  and  C12_15 
REMARK    6  A    between atoms: C12_15  and  N2_16 
REMARK    7  A    between atoms: N2_16  and  C13_17 
REMARK    8  A    between atoms: C20_24  and  C21_25 
REMARK    9  A    between atoms: C21_25  and  O2_26 
ROOT
HETATM    1  C6  UNL     1      24.083   2.638  51.272  1.00  0.00     0.249 C 
HETATM    2  C7  UNL     1      23.665   3.874  52.036  1.00  0.00     0.022 C 
HETATM    3  C8  UNL     1      24.089   4.944  51.333  1.00  0.00    -0.025 C 
HETATM    4  C9  UNL     1      24.840   5.047  50.028  1.00  0.00     0.046 C 
HETATM    5  C10 UNL     1      25.612   3.750  49.808  1.00  0.00     0.123 C 
HETATM    6  N1  UNL     1      25.435   2.842  50.886  1.00  0.00    -0.382 N 
ENDROOT
BRANCH   1   7
HETATM    7  O1  UNL     1      23.985   1.493  52.084  1.00  0.00    -0.327 OA
BRANCH   7   8
HETATM    8  C5  UNL     1      22.749   1.124  52.671  1.00  0.00     0.051 C 
HETATM    9  C4  UNL     1      21.370   1.607  52.427  1.00  0.00     0.110 C 
HETATM   10  C3  UNL     1      20.437   0.480  52.661  1.00  0.00    -0.016 C 
HETATM   11  C2  UNL     1      20.655  -0.467  53.565  1.00  0.00    -0.061 C 
HETATM   12  C1  UNL     1      19.624  -1.526  53.681  1.00  0.00     0.045 C 
HETATM   13  C20 UNL     1      21.869  -0.449  54.399  1.00  0.00     0.064 C 
HETATM   14  C19 UNL     1      22.964   0.164  53.595  1.00  0.00     0.017 C 
BRANCH  10  15
HETATM   15  S1  UNL     1      18.903   0.286  51.742  1.00  0.00    -0.147 SA
HETATM   16  H4  UNL     1      18.090   1.412  51.961  1.00  0.00     0.107 HD
ENDBRANCH  10  15
BRANCH  13  17
HETATM   17  C21 UNL     1      22.269  -1.818  54.889  1.00  0.00     0.177 C 
BRANCH  17  18
HETATM   18  O2  UNL     1      23.157  -1.638  55.974  1.00  0.00    -0.400 OA
HETATM   19  H28 UNL     1      22.816  -2.073  56.786  1.00  0.00     0.209 HD
ENDBRANCH  17  18
ENDBRANCH  13  17
ENDBRANCH   7   8
ENDBRANCH   1   7
BRANCH   6  20
HETATM   20  C11 UNL     1      26.395   1.893  51.204  1.00  0.00     0.139 C 
BRANCH  20  21
HETATM   21  C12 UNL     1      27.169   2.119  52.479  1.00  0.00     0.139 C 
BRANCH  21  22
HETATM   22  N2  UNL     1      26.783   1.027  53.385  1.00  0.00    -0.388 N 
HETATM   23  H18 UNL     1      26.002   1.096  54.079  1.00  0.00     0.159 HD
BRANCH  22  24
HETATM   24  C13 UNL     1      27.539  -0.181  53.281  1.00  0.00     0.028 A 
HETATM   25  C14 UNL     1      26.895  -1.331  52.856  1.00  0.00     0.029 A 
HETATM   26  C15 UNL     1      27.615  -2.510  52.747  1.00  0.00     0.002 A 
HETATM   27  C16 UNL     1      28.944  -2.445  53.079  1.00  0.00     0.000 A 
HETATM   28  C17 UNL     1      29.650  -1.342  53.508  1.00  0.00     0.002 A 
HETATM   29  C18 UNL     1      28.874  -0.181  53.598  1.00  0.00     0.029 A 
ENDBRANCH  22  24
ENDBRANCH  21  22
ENDBRANCH  20  21
ENDBRANCH   6  20
TORSDOF 9
ENDMDL
MODEL 6
REMARK VINA RESULT:      -7.4      2.052      5.786
REMARK  9 active torsions:
REMARK  status: ('A' for Active; 'I' for Inactive)
REMARK    1  A    between atoms: C3_3  and  S1_4 
REMARK    2  A    between atoms: C5_6  and  O1_7 
REMARK    3  A    between atoms: O1_7  and  C6_8 
REMARK    4  A    between atoms: N1_13  and  C11_14 
REMARK    5  A    between atoms: C11_14  and  C12_15 
REMARK    6  A    between atoms: C12_15  and  N2_16 
REMARK    7  A    between atoms: N2_16  and  C13_17 
REMARK    8  A    between atoms: C20_24  and  C21_25 
REMARK    9  A    between atoms: C21_25  and  O2_26 
ROOT
HETATM    1  C6  UNL     1      23.384   1.428  51.551  1.00  0.00     0.249 C 
HETATM    2  C7  UNL     1      22.494   0.474  52.316  1.00  0.00     0.022 C 
HETATM    3  C8  UNL     1      21.415   0.227  51.546  1.00  0.00    -0.025 C 
HETATM    4  C9  UNL     1      21.031   0.725  50.174  1.00  0.00     0.046 C 
HETATM    5  C10 UNL     1      21.750   2.047  49.919  1.00  0.00     0.123 C 
HETATM    6  N1  UNL     1      22.536   2.444  51.034  1.00  0.00    -0.382 N 
ENDROOT
BRANCH   1   7
HETATM    7  O1  UNL     1      24.350   1.999  52.400  1.00  0.00    -0.327 OA
BRANCH   7   8
HETATM    8  C5  UNL     1      25.684   1.521  52.404  1.00  0.00     0.051 C 
HETATM    9  C4  UNL     1      26.979   2.241  52.404  1.00  0.00     0.110 C 
HETATM   10  C3  UNL     1      27.963   1.423  53.152  1.00  0.00    -0.016 C 
HETATM   11  C2  UNL     1      27.945   0.096  53.164  1.00  0.00    -0.061 C 
HETATM   12  C1  UNL     1      29.001  -0.576  53.958  1.00  0.00     0.045 C 
HETATM   13  C20 UNL     1      26.917  -0.651  52.419  1.00  0.00     0.064 C 
HETATM   14  C19 UNL     1      25.674   0.171  52.411  1.00  0.00     0.017 C 
BRANCH  10  15
HETATM   15  S1  UNL     1      29.292   2.154  54.120  1.00  0.00    -0.147 SA
HETATM   16  H4  UNL     1      30.512   1.565  53.743  1.00  0.00     0.107 HD
ENDBRANCH  10  15
BRANCH  13  17
HETATM   17  C21 UNL     1      26.649  -2.018  52.994  1.00  0.00     0.177 C 
BRANCH  17  18
HETATM   18  O2  UNL     1      27.221  -2.968  52.118  1.00  0.00    -0.400 OA
HETATM   19  H28 UNL     1      27.674  -2.528  51.365  1.00  0.00     0.209 HD
ENDBRANCH  17  18
ENDBRANCH  13  17
ENDBRANCH   7   8
ENDBRANCH   1   7
BRANCH   6  20
HETATM   20  C11 UNL     1      22.820   3.777  51.287  1.00  0.00     0.139 C 
BRANCH  20  21
HETATM   21  C12 UNL     1      23.607   4.511  50.230  1.00  0.00     0.139 C 
BRANCH  21  22
HETATM   22  N2  UNL     1      24.960   4.681  50.779  1.00  0.00    -0.388 N 
HETATM   23  H18 UNL     1      25.229   4.421  51.757  1.00  0.00     0.159 HD
BRANCH  22  24
HETATM   24  C13 UNL     1      25.937   5.234  49.895  1.00  0.00     0.028 A 
HETATM   25  C14 UNL     1      26.884   4.387  49.340  1.00  0.00     0.029 A 
HETATM   26  C15 UNL     1      27.837   4.907  48.481  1.00  0.00     0.002 A 
HETATM   27  C16 UNL     1      27.769   6.256  48.239  1.00  0.00     0.000 A 
HETATM   28  C17 UNL     1      26.860   7.157  48.752  1.00  0.00     0.002 A 
HETATM   29  C18 UNL     1      25.922   6.576  49.614  1.00  0.00     0.029 A 
ENDBRANCH  22  24
ENDBRANCH  21  22
ENDBRANCH  20  21
ENDBRANCH   6  20
TORSDOF 9
ENDMDL
MODEL 7
REMARK VINA RESULT:      -7.4      3.670      6.573
REMARK  9 active torsions:
REMARK  status: ('A' for Active; 'I' for Inactive)
REMARK    1  A    between atoms: C3_3  and  S1_4 
REMARK    2  A    between atoms: C5_6  and  O1_7 
REMARK    3  A    between atoms: O1_7  and  C6_8 
REMARK    4  A    between atoms: N1_13  and  C11_14 
REMARK    5  A    between atoms: C11_14  and  C12_15 
REMARK    6  A    between atoms: C12_15  and  N2_16 
REMARK    7  A    between atoms: N2_16  and  C13_17 
REMARK    8  A    between atoms: C20_24  and  C21_25 
REMARK    9  A    between atoms: C21_25  and  O2_26 
ROOT
HETATM    1  C6  UNL     1      25.025   4.182  50.219  1.00  0.00     0.249 C 
HETATM    2  C7  UNL     1      23.848   3.906  49.311  1.00  0.00     0.022 C 
HETATM    3  C8  UNL     1      22.791   3.619  50.098  1.00  0.00    -0.025 C 
HETATM    4  C9  UNL     1      22.654   3.550  51.599  1.00  0.00     0.046 C 
HETATM    5  C10 UNL     1      24.032   3.286  52.201  1.00  0.00     0.123 C 
HETATM    6  N1  UNL     1      25.029   3.152  51.198  1.00  0.00    -0.382 N 
ENDROOT
BRANCH   1   7
HETATM    7  O1  UNL     1      26.231   4.157  49.495  1.00  0.00    -0.327 OA
BRANCH   7   8
HETATM    8  C5  UNL     1      26.753   5.340  48.914  1.00  0.00     0.051 C 
HETATM    9  C4  UNL     1      26.128   6.658  48.656  1.00  0.00     0.110 C 
HETATM   10  C3  UNL     1      27.175   7.699  48.778  1.00  0.00    -0.016 C 
HETATM   11  C2  UNL     1      28.445   7.494  48.448  1.00  0.00    -0.061 C 
HETATM   12  C1  UNL     1      29.371   8.637  48.626  1.00  0.00     0.045 C 
HETATM   13  C20 UNL     1      28.889   6.186  47.936  1.00  0.00     0.064 C 
HETATM   14  C19 UNL     1      28.042   5.137  48.572  1.00  0.00     0.017 C 
BRANCH  10  15
HETATM   15  S1  UNL     1      26.828   9.357  49.384  1.00  0.00    -0.147 SA
HETATM   16  H4  UNL     1      25.512   9.398  49.880  1.00  0.00     0.107 HD
ENDBRANCH  10  15
BRANCH  13  17
HETATM   17  C21 UNL     1      30.351   5.918  48.190  1.00  0.00     0.177 C 
BRANCH  17  18
HETATM   18  O2  UNL     1      30.473   5.455  49.520  1.00  0.00    -0.400 OA
HETATM   19  H28 UNL     1      31.390   5.157  49.708  1.00  0.00     0.209 HD
ENDBRANCH  17  18
ENDBRANCH  13  17
ENDBRANCH   7   8
ENDBRANCH   1   7
BRANCH   6  20
HETATM   20  C11 UNL     1      26.175   2.401  51.406  1.00  0.00     0.139 C 
BRANCH  20  21
HETATM   21  C12 UNL     1      25.975   0.942  51.730  1.00  0.00     0.139 C 
BRANCH  21  22
HETATM   22  N2  UNL     1      26.561   0.739  53.062  1.00  0.00    -0.388 N 
HETATM   23  H18 UNL     1      26.258   1.262  53.918  1.00  0.00     0.159 HD
BRANCH  22  24
HETATM   24  C13 UNL     1      27.601  -0.237  53.156  1.00  0.00     0.028 A 
HETATM   25  C14 UNL     1      27.298  -1.558  52.865  1.00  0.00     0.029 A 
HETATM   26  C15 UNL     1      28.295  -2.516  52.949  1.00  0.00     0.002 A 
HETATM   27  C16 UNL     1      29.537  -2.071  53.323  1.00  0.00     0.000 A 
HETATM   28  C17 UNL     1      29.912  -0.780  53.626  1.00  0.00     0.002 A 
HETATM   29  C18 UNL     1      28.865   0.145  53.525  1.00  0.00     0.029 A 
ENDBRANCH  22  24
ENDBRANCH  21  22
ENDBRANCH  20  21
ENDBRANCH   6  20
TORSDOF 9
ENDMDL
MODEL 8
REMARK VINA RESULT:      -7.4      2.614      6.460
REMARK  9 active torsions:
REMARK  status: ('A' for Active; 'I' for Inactive)
REMARK    1  A    between atoms: C3_3  and  S1_4 
REMARK    2  A    between atoms: C5_6  and  O1_7 
REMARK    3  A    between atoms: O1_7  and  C6_8 
REMARK    4  A    between atoms: N1_13  and  C11_14 
REMARK    5  A    between atoms: C11_14  and  C12_15 
REMARK    6  A    between atoms: C12_15  and  N2_16 
REMARK    7  A    between atoms: N2_16  and  C13_17 
REMARK    8  A    between atoms: C20_24  and  C21_25 
REMARK    9  A    between atoms: C21_25  and  O2_26 
ROOT
HETATM    1  C6  UNL     1      22.242   0.954  52.229  1.00  0.00     0.249 C 
HETATM    2  C7  UNL     1      20.963   0.404  51.639  1.00  0.00     0.022 C 
HETATM    3  C8  UNL     1      20.205  -0.038  52.664  1.00  0.00    -0.025 C 
HETATM    4  C9  UNL     1      20.448  -0.048  54.153  1.00  0.00     0.046 C 
HETATM    5  C10 UNL     1      21.954  -0.005  54.400  1.00  0.00     0.123 C 
HETATM    6  N1  UNL     1      22.688   0.001  53.184  1.00  0.00    -0.382 N 
ENDROOT
BRANCH   1   7
HETATM    7  O1  UNL     1      23.219   1.123  51.231  1.00  0.00    -0.327 OA
BRANCH   7   8
HETATM    8  C5  UNL     1      23.408   2.381  50.607  1.00  0.00     0.051 C 
HETATM    9  C4  UNL     1      22.454   3.473  50.303  1.00  0.00     0.110 C 
HETATM   10  C3  UNL     1      23.184   4.761  50.384  1.00  0.00    -0.016 C 
HETATM   11  C2  UNL     1      24.464   4.891  50.058  1.00  0.00    -0.061 C 
HETATM   12  C1  UNL     1      25.049   6.247  50.191  1.00  0.00     0.045 C 
HETATM   13  C20 UNL     1      25.246   3.734  49.592  1.00  0.00     0.064 C 
HETATM   14  C19 UNL     1      24.707   2.519  50.267  1.00  0.00     0.017 C 
BRANCH  10  15
HETATM   15  S1  UNL     1      22.401   6.285  50.932  1.00  0.00    -0.147 SA
HETATM   16  H4  UNL     1      22.128   7.089  49.811  1.00  0.00     0.107 HD
ENDBRANCH  10  15
BRANCH  13  17
HETATM   17  C21 UNL     1      26.724   3.876  49.850  1.00  0.00     0.177 C 
BRANCH  17  18
HETATM   18  O2  UNL     1      27.004   3.239  51.080  1.00  0.00    -0.400 OA
HETATM   19  H28 UNL     1      26.912   3.865  51.832  1.00  0.00     0.209 HD
ENDBRANCH  17  18
ENDBRANCH  13  17
ENDBRANCH   7   8
ENDBRANCH   1   7
BRANCH   6  20
HETATM   20  C11 UNL     1      23.977  -0.500  53.110  1.00  0.00     0.139 C 
BRANCH  20  21
HETATM   21  C12 UNL     1      25.069   0.356  53.702  1.00  0.00     0.139 C 
BRANCH  21  22
HETATM   22  N2  UNL     1      26.099   0.475  52.660  1.00  0.00    -0.388 N 
HETATM   23  H18 UNL     1      25.924   0.887  51.712  1.00  0.00     0.159 HD
BRANCH  22  24
HETATM   24  C13 UNL     1      27.401  -0.008  52.997  1.00  0.00     0.028 A 
HETATM   25  C14 UNL     1      27.646  -1.369  52.911  1.00  0.00     0.029 A 
HETATM   26  C15 UNL     1      28.903  -1.853  53.232  1.00  0.00     0.002 A 
HETATM   27  C16 UNL     1      29.832  -0.923  53.622  1.00  0.00     0.000 A 
HETATM   28  C17 UNL     1      29.663   0.440  53.732  1.00  0.00     0.002 A 
HETATM   29  C18 UNL     1      28.374   0.873  53.394  1.00  0.00     0.029 A 
ENDBRANCH  22  24
ENDBRANCH  21  22
ENDBRANCH  20  21
ENDBRANCH   6  20
TORSDOF 9
ENDMDL
MODEL 9
REMARK VINA RESULT:      -7.3      2.282      3.488
REMARK  9 active torsions:
REMARK  status: ('A' for Active; 'I' for Inactive)
REMARK    1  A    between atoms: C3_3  and  S1_4 
REMARK    2  A    between atoms: C5_6  and  O1_7 
REMARK    3  A    between atoms: O1_7  and  C6_8 
REMARK    4  A    between atoms: N1_13  and  C11_14 
REMARK    5  A    between atoms: C11_14  and  C12_15 
REMARK    6  A    between atoms: C12_15  and  N2_16 
REMARK    7  A    between atoms: N2_16  and  C13_17 
REMARK    8  A    between atoms: C20_24  and  C21_25 
REMARK    9  A    between atoms: C21_25  and  O2_26 
ROOT
HETATM    1  C6  UNL     1      25.058   3.400  51.641  1.00  0.00     0.249 C 
HETATM    2  C7  UNL     1      25.196   2.713  50.301  1.00  0.00     0.022 C 
HETATM    3  C8  UNL     1      25.295   3.677  49.363  1.00  0.00    -0.025 C 
HETATM    4  C9  UNL     1      25.288   5.182  49.474  1.00  0.00     0.046 C 
HETATM    5  C10 UNL     1      24.572   5.571  50.765  1.00  0.00     0.123 C 
HETATM    6  N1  UNL     1      24.097   4.432  51.467  1.00  0.00    -0.382 N 
ENDROOT
BRANCH   1   7
HETATM    7  O1  UNL     1      24.615   2.494  52.622  1.00  0.00    -0.327 OA
BRANCH   7   8
HETATM    8  C5  UNL     1      25.488   1.509  53.146  1.00  0.00     0.051 C 
HETATM    9  C4  UNL     1      25.342   0.040  53.266  1.00  0.00     0.110 C 
HETATM   10  C3  UNL     1      26.686  -0.571  53.136  1.00  0.00    -0.016 C 
HETATM   11  C2  UNL     1      27.796   0.019  53.561  1.00  0.00    -0.061 C 
HETATM   12  C1  UNL     1      29.063  -0.723  53.360  1.00  0.00     0.045 C 
HETATM   13  C20 UNL     1      27.749   1.347  54.195  1.00  0.00     0.064 C 
HETATM   14  C19 UNL     1      26.618   2.103  53.585  1.00  0.00     0.017 C 
BRANCH  10  15
HETATM   15  S1  UNL     1      26.947  -2.186  52.388  1.00  0.00    -0.147 SA
HETATM   16  H4  UNL     1      28.270  -2.266  51.917  1.00  0.00     0.107 HD
ENDBRANCH  10  15
BRANCH  13  17
HETATM   17  C21 UNL     1      29.039   2.115  54.057  1.00  0.00     0.177 C 
BRANCH  17  18
HETATM   18  O2  UNL     1      28.903   2.979  52.947  1.00  0.00    -0.400 OA
HETATM   19  H28 UNL     1      27.978   3.300  52.860  1.00  0.00     0.209 HD
ENDBRANCH  17  18
ENDBRANCH  13  17
ENDBRANCH   7   8
ENDBRANCH   1   7
BRANCH   6  20
HETATM   20  C11 UNL     1      22.999   4.503  52.311  1.00  0.00     0.139 C 
BRANCH  20  21
HETATM   21  C12 UNL     1      21.673   4.821  51.667  1.00  0.00     0.139 C 
BRANCH  21  22
HETATM   22  N2  UNL     1      21.177   3.553  51.114  1.00  0.00    -0.388 N 
HETATM   23  H18 UNL     1      20.598   2.868  51.655  1.00  0.00     0.159 HD
BRANCH  22  24
HETATM   24  C13 UNL     1      21.526   3.274  49.757  1.00  0.00     0.028 A 
HETATM   25  C14 UNL     1      21.757   1.958  49.388  1.00  0.00     0.029 A 
HETATM   26  C15 UNL     1      22.094   1.670  48.076  1.00  0.00     0.002 A 
HETATM   27  C16 UNL     1      22.175   2.739  47.220  1.00  0.00     0.000 A 
HETATM   28  C17 UNL     1      21.960   4.069  47.513  1.00  0.00     0.002 A 
HETATM   29  C18 UNL     1      21.623   4.300  48.852  1.00  0.00     0.029 A 
ENDBRANCH  22  24
ENDBRANCH  21  22
ENDBRANCH  20  21
ENDBRANCH   6  20
TORSDOF 9
ENDMDL
