MODEL 1
REMARK VINA RESULT:      -7.8      0.000      0.000
REMARK  5 active torsions:
REMARK  status: ('A' for Active; 'I' for Inactive)
REMARK    1  A    between atoms: C2_2  and  C3_3 
REMARK    2  A    between atoms: C4_4  and  N1_5 
REMARK    3  A    between atoms: N1_5  and  C5_6 
REMARK    4  A    between atoms: C10_13  and  N4_14 
REMARK       I    between atoms: N4_14  and  C11_15 
REMARK    5  A    between atoms: C11_15  and  C12_17 
ROOT
HETATM    1  C5  UNL     1      26.550   2.025  52.108  1.00  0.00     0.149 A 
HETATM    2  N2  UNL     1      27.791   2.514  52.284  1.00  0.00    -0.223 NA
HETATM    3  C6  UNL     1      28.547   2.131  53.357  1.00  0.00     0.236 A 
HETATM    4  N3  UNL     1      28.126   1.260  54.300  1.00  0.00    -0.241 NA
HETATM    5  C7  UNL     1      26.885   0.774  54.121  1.00  0.00     0.072 A 
HETATM    6  C8  UNL     1      26.361  -0.119  55.024  1.00  0.00     0.035 A 
HETATM    7  C9  UNL     1      25.088  -0.612  54.832  1.00  0.00     0.032 A 
HETATM    8  C10 UNL     1      24.287  -0.263  53.773  1.00  0.00     0.035 A 
HETATM    9  C14 UNL     1      24.834   0.621  52.902  1.00  0.00     0.047 A 
HETATM   10  C15 UNL     1      26.088   1.134  53.052  1.00  0.00     0.041 A 
ENDROOT
BRANCH   1  11
HETATM   11  N1  UNL     1      25.815   2.463  50.973  1.00  0.00    -0.299 N 
HETATM   12  H6  UNL     1      24.877   2.222  50.643  1.00  0.00     0.178 HD
BRANCH  11  13
HETATM   13  C4  UNL     1      26.457   3.385  50.134  1.00  0.00     0.012 C 
HETATM   14  C3  UNL     1      27.026   4.175  49.388  1.00  0.00    -0.084 C 
BRANCH  14  15
HETATM   15  C2  UNL     1      27.725   5.110  48.507  1.00  0.00     0.091 C 
HETATM   16  C1  UNL     1      27.016   6.421  48.404  1.00  0.00     0.018 C 
ENDBRANCH  14  15
ENDBRANCH  11  13
ENDBRANCH   1  11
BRANCH   8  17
HETATM   17  N4  UNL     1      22.975  -0.743  53.538  1.00  0.00    -0.327 N 
HETATM   18  C11 UNL     1      22.040  -1.310  54.423  1.00  0.00     0.221 C 
HETATM   19  O1  UNL     1      22.345  -1.439  55.616  1.00  0.00    -0.273 OA
HETATM   20  H10 UNL     1      22.575  -0.698  52.567  1.00  0.00     0.169 HD
BRANCH  18  21
HETATM   21  C12 UNL     1      20.693  -1.780  54.071  1.00  0.00     0.098 C 
HETATM   22  C13 UNL     1      19.908  -0.625  53.504  1.00  0.00     0.014 C 
ENDBRANCH  18  21
ENDBRANCH   8  17
TORSDOF 5
ENDMDL
MODEL 2
REMARK VINA RESULT:      -7.4      3.005      5.388
REMARK  5 active torsions:
REMARK  status: ('A' for Active; 'I' for Inactive)
REMARK    1  A    between atoms: C2_2  and  C3_3 
REMARK    2  A    between atoms: C4_4  and  N1_5 
REMARK    3  A    between atoms: N1_5  and  C5_6 
REMARK    4  A    between atoms: C10_13  and  N4_14 
REMARK       I    between atoms: N4_14  and  C11_15 
REMARK    5  A    between atoms: C11_15  and  C12_17 
ROOT
HETATM    1  C5  UNL     1      22.275   0.738  52.180  1.00  0.00     0.149 A 
HETATM    2  N2  UNL     1      20.933   0.812  52.131  1.00  0.00    -0.223 NA
HETATM    3  C6  UNL     1      20.165   0.208  53.088  1.00  0.00     0.236 A 
HETATM    4  N3  UNL     1      20.671  -0.490  54.127  1.00  0.00    -0.241 NA
HETATM    5  C7  UNL     1      22.013  -0.563  54.173  1.00  0.00     0.072 A 
HETATM    6  C8  UNL     1      22.629  -1.250  55.190  1.00  0.00     0.035 A 
HETATM    7  C9  UNL     1      24.006  -1.318  55.228  1.00  0.00     0.032 A 
HETATM    8  C10 UNL     1      24.824  -0.731  54.296  1.00  0.00     0.035 A 
HETATM    9  C14 UNL     1      24.184  -0.061  53.305  1.00  0.00     0.047 A 
HETATM   10  C15 UNL     1      22.826   0.032  53.229  1.00  0.00     0.041 A 
ENDROOT
BRANCH   1  11
HETATM   11  N1  UNL     1      23.017   1.387  51.156  1.00  0.00    -0.299 N 
HETATM   12  H6  UNL     1      23.550   1.010  50.368  1.00  0.00     0.178 HD
BRANCH  11  13
HETATM   13  C4  UNL     1      23.047   2.788  51.202  1.00  0.00     0.012 C 
HETATM   14  C3  UNL     1      23.094   4.013  51.237  1.00  0.00    -0.084 C 
BRANCH  14  15
HETATM   15  C2  UNL     1      23.163   5.473  51.300  1.00  0.00     0.091 C 
HETATM   16  C1  UNL     1      21.822   6.105  51.117  1.00  0.00     0.018 C 
ENDBRANCH  14  15
ENDBRANCH  11  13
ENDBRANCH   1  11
BRANCH   8  17
HETATM   17  N4  UNL     1      26.240  -0.776  54.296  1.00  0.00    -0.327 N 
HETATM   18  C11 UNL     1      27.183   0.217  54.619  1.00  0.00     0.221 C 
HETATM   19  O1  UNL     1      26.781   1.335  54.967  1.00  0.00    -0.273 OA
HETATM   20  H10 UNL     1      26.728  -1.666  54.022  1.00  0.00     0.169 HD
BRANCH  18  21
HETATM   21  C12 UNL     1      28.644   0.064  54.585  1.00  0.00     0.098 C 
HETATM   22  C13 UNL     1      29.002  -0.945  53.524  1.00  0.00     0.014 C 
ENDBRANCH  18  21
ENDBRANCH   8  17
TORSDOF 5
ENDMDL
MODEL 3
REMARK VINA RESULT:      -7.1      1.348      1.646
REMARK  5 active torsions:
REMARK  status: ('A' for Active; 'I' for Inactive)
REMARK    1  A    between atoms: C2_2  and  C3_3 
REMARK    2  A    between atoms: C4_4  and  N1_5 
REMARK    3  A    between atoms: N1_5  and  C5_6 
REMARK    4  A    between atoms: C10_13  and  N4_14 
REMARK       I    between atoms: N4_14  and  C11_15 
REMARK    5  A    between atoms: C11_15  and  C12_17 
ROOT
HETATM    1  C5  UNL     1      25.668   2.187  51.784  1.00  0.00     0.149 A 
HETATM    2  N2  UNL     1      26.947   2.382  52.152  1.00  0.00    -0.223 NA
HETATM    3  C6  UNL     1      27.511   1.630  53.144  1.00  0.00     0.236 A 
HETATM    4  N3  UNL     1      26.854   0.661  53.818  1.00  0.00    -0.241 NA
HETATM    5  C7  UNL     1      25.576   0.469  53.448  1.00  0.00     0.072 A 
HETATM    6  C8  UNL     1      24.818  -0.492  54.071  1.00  0.00     0.035 A 
HETATM    7  C9  UNL     1      23.508  -0.682  53.685  1.00  0.00     0.032 A 
HETATM    8  C10 UNL     1      22.893   0.043  52.695  1.00  0.00     0.035 A 
HETATM    9  C14 UNL     1      23.668   0.985  52.101  1.00  0.00     0.047 A 
HETATM   10  C15 UNL     1      24.968   1.206  52.451  1.00  0.00     0.041 A 
ENDROOT
BRANCH   1  11
HETATM   11  N1  UNL     1      25.141   3.002  50.745  1.00  0.00    -0.299 N 
HETATM   12  H6  UNL     1      24.176   3.186  50.456  1.00  0.00     0.178 HD
BRANCH  11  13
HETATM   13  C4  UNL     1      26.075   3.688  49.957  1.00  0.00     0.012 C 
HETATM   14  C3  UNL     1      26.909   4.276  49.276  1.00  0.00    -0.084 C 
BRANCH  14  15
HETATM   15  C2  UNL     1      27.911   4.987  48.483  1.00  0.00     0.091 C 
HETATM   16  C1  UNL     1      27.568   6.432  48.312  1.00  0.00     0.018 C 
ENDBRANCH  14  15
ENDBRANCH  11  13
ENDBRANCH   1  11
BRANCH   8  17
HETATM   17  N4  UNL     1      21.552  -0.117  52.268  1.00  0.00    -0.327 N 
HETATM   18  C11 UNL     1      20.346   0.022  52.979  1.00  0.00     0.221 C 
HETATM   19  O1  UNL     1      20.389   0.333  54.177  1.00  0.00    -0.273 OA
HETATM   20  H10 UNL     1      21.356  -0.382  51.269  1.00  0.00     0.169 HD
BRANCH  18  21
HETATM   21  C12 UNL     1      18.995  -0.170  52.434  1.00  0.00     0.098 C 
HETATM   22  C13 UNL     1      18.291  -1.229  53.245  1.00  0.00     0.014 C 
ENDBRANCH  18  21
ENDBRANCH   8  17
TORSDOF 5
ENDMDL
MODEL 4
REMARK VINA RESULT:      -7.1      3.376      5.333
REMARK  5 active torsions:
REMARK  status: ('A' for Active; 'I' for Inactive)
REMARK    1  A    between atoms: C2_2  and  C3_3 
REMARK    2  A    between atoms: C4_4  and  N1_5 
REMARK    3  A    between atoms: N1_5  and  C5_6 
REMARK    4  A    between atoms: C10_13  and  N4_14 
REMARK       I    between atoms: N4_14  and  C11_15 
REMARK    5  A    between atoms: C11_15  and  C12_17 
ROOT
HETATM    1  C5  UNL     1      24.562  -0.184  53.744  1.00  0.00     0.149 A 
HETATM    2  N2  UNL     1      25.130  -0.888  54.739  1.00  0.00    -0.223 NA
HETATM    3  C6  UNL     1      24.361  -1.530  55.668  1.00  0.00     0.236 A 
HETATM    4  N3  UNL     1      23.010  -1.512  55.668  1.00  0.00    -0.241 NA
HETATM    5  C7  UNL     1      22.445  -0.806  54.673  1.00  0.00     0.072 A 
HETATM    6  C8  UNL     1      21.077  -0.723  54.581  1.00  0.00     0.035 A 
HETATM    7  C9  UNL     1      20.507   0.002  53.557  1.00  0.00     0.032 A 
HETATM    8  C10 UNL     1      21.231   0.665  52.597  1.00  0.00     0.035 A 
HETATM    9  C14 UNL     1      22.578   0.563  52.717  1.00  0.00     0.047 A 
HETATM   10  C15 UNL     1      23.184  -0.143  53.713  1.00  0.00     0.041 A 
ENDROOT
BRANCH   1  11
HETATM   11  N1  UNL     1      25.417   0.461  52.809  1.00  0.00    -0.299 N 
HETATM   12  H6  UNL     1      25.211   0.955  51.936  1.00  0.00     0.178 HD
BRANCH  11  13
HETATM   13  C4  UNL     1      26.788   0.434  53.099  1.00  0.00     0.012 C 
HETATM   14  C3  UNL     1      27.992   0.416  53.332  1.00  0.00    -0.084 C 
BRANCH  14  15
HETATM   15  C2  UNL     1      29.430   0.373  53.598  1.00  0.00     0.091 C 
HETATM   16  C1  UNL     1      29.944  -1.028  53.670  1.00  0.00     0.018 C 
ENDBRANCH  14  15
ENDBRANCH  11  13
ENDBRANCH   1  11
BRANCH   8  17
HETATM   17  N4  UNL     1      20.687   1.421  51.530  1.00  0.00    -0.327 N 
HETATM   18  C11 UNL     1      20.084   2.692  51.528  1.00  0.00     0.221 C 
HETATM   19  O1  UNL     1      19.979   3.307  52.597  1.00  0.00    -0.273 OA
HETATM   20  H10 UNL     1      20.705   1.026  50.555  1.00  0.00     0.169 HD
BRANCH  18  21
HETATM   21  C12 UNL     1      19.548   3.392  50.353  1.00  0.00     0.098 C 
HETATM   22  C13 UNL     1      20.442   4.565  50.037  1.00  0.00     0.014 C 
ENDBRANCH  18  21
ENDBRANCH   8  17
TORSDOF 5
ENDMDL
MODEL 5
REMARK VINA RESULT:      -7.1      2.665      5.000
REMARK  5 active torsions:
REMARK  status: ('A' for Active; 'I' for Inactive)
REMARK    1  A    between atoms: C2_2  and  C3_3 
REMARK    2  A    between atoms: C4_4  and  N1_5 
REMARK    3  A    between atoms: N1_5  and  C5_6 
REMARK    4  A    between atoms: C10_13  and  N4_14 
REMARK       I    between atoms: N4_14  and  C11_15 
REMARK    5  A    between atoms: C11_15  and  C12_17 
ROOT
HETATM    1  C5  UNL     1      22.873   3.029  52.231  1.00  0.00     0.149 A 
HETATM    2  N2  UNL     1      21.642   3.093  51.693  1.00  0.00    -0.223 NA
HETATM    3  C6  UNL     1      20.864   1.974  51.591  1.00  0.00     0.236 A 
HETATM    4  N3  UNL     1      21.253   0.749  52.008  1.00  0.00    -0.241 NA
HETATM    5  C7  UNL     1      22.484   0.687  52.544  1.00  0.00     0.072 A 
HETATM    6  C8  UNL     1      22.976  -0.512  52.999  1.00  0.00     0.035 A 
HETATM    7  C9  UNL     1      24.239  -0.565  53.548  1.00  0.00     0.032 A 
HETATM    8  C10 UNL     1      25.061   0.527  53.675  1.00  0.00     0.035 A 
HETATM    9  C14 UNL     1      24.546   1.695  53.217  1.00  0.00     0.047 A 
HETATM   10  C15 UNL     1      23.302   1.793  52.666  1.00  0.00     0.041 A 
ENDROOT
BRANCH   1  11
HETATM   11  N1  UNL     1      23.632   4.228  52.308  1.00  0.00    -0.299 N 
HETATM   12  H6  UNL     1      23.720   4.923  53.055  1.00  0.00     0.178 HD
BRANCH  11  13
HETATM   13  C4  UNL     1      24.406   4.549  51.184  1.00  0.00     0.012 C 
HETATM   14  C3  UNL     1      25.066   4.839  50.192  1.00  0.00    -0.084 C 
BRANCH  14  15
HETATM   15  C2  UNL     1      25.840   5.168  48.995  1.00  0.00     0.091 C 
HETATM   16  C1  UNL     1      27.165   4.477  48.978  1.00  0.00     0.018 C 
ENDBRANCH  14  15
ENDBRANCH  11  13
ENDBRANCH   1  11
BRANCH   8  17
HETATM   17  N4  UNL     1      26.364   0.518  54.232  1.00  0.00    -0.327 N 
HETATM   18  C11 UNL     1      27.571   0.010  53.718  1.00  0.00     0.221 C 
HETATM   19  O1  UNL     1      27.567  -0.531  52.604  1.00  0.00    -0.273 OA
HETATM   20  H10 UNL     1      26.524   0.944  55.180  1.00  0.00     0.169 HD
BRANCH  18  21
HETATM   21  C12 UNL     1      28.879   0.052  54.384  1.00  0.00     0.098 C 
HETATM   22  C13 UNL     1      29.806  -0.918  53.695  1.00  0.00     0.014 C 
ENDBRANCH  18  21
ENDBRANCH   8  17
TORSDOF 5
ENDMDL
MODEL 6
REMARK VINA RESULT:      -7.0      2.203      6.693
REMARK  5 active torsions:
REMARK  status: ('A' for Active; 'I' for Inactive)
REMARK    1  A    between atoms: C2_2  and  C3_3 
REMARK    2  A    between atoms: C4_4  and  N1_5 
REMARK    3  A    between atoms: N1_5  and  C5_6 
REMARK    4  A    between atoms: C10_13  and  N4_14 
REMARK       I    between atoms: N4_14  and  C11_15 
REMARK    5  A    between atoms: C11_15  and  C12_17 
ROOT
HETATM    1  C5  UNL     1      24.037   0.169  53.076  1.00  0.00     0.149 A 
HETATM    2  N2  UNL     1      23.848  -0.692  54.092  1.00  0.00    -0.223 NA
HETATM    3  C6  UNL     1      24.833  -0.910  55.015  1.00  0.00     0.236 A 
HETATM    4  N3  UNL     1      26.039  -0.301  54.984  1.00  0.00    -0.241 NA
HETATM    5  C7  UNL     1      26.224   0.558  53.967  1.00  0.00     0.072 A 
HETATM    6  C8  UNL     1      27.416   1.230  53.844  1.00  0.00     0.035 A 
HETATM    7  C9  UNL     1      27.596   2.109  52.797  1.00  0.00     0.032 A 
HETATM    8  C10 UNL     1      26.642   2.365  51.844  1.00  0.00     0.035 A 
HETATM    9  C14 UNL     1      25.478   1.686  51.995  1.00  0.00     0.047 A 
HETATM   10  C15 UNL     1      25.257   0.808  53.014  1.00  0.00     0.041 A 
ENDROOT
BRANCH   1  11
HETATM   11  N1  UNL     1      22.973   0.351  52.150  1.00  0.00    -0.299 N 
HETATM   12  H6  UNL     1      22.969   0.701  51.188  1.00  0.00     0.178 HD
BRANCH  11  13
HETATM   13  C4  UNL     1      21.692   0.003  52.598  1.00  0.00     0.012 C 
HETATM   14  C3  UNL     1      20.570  -0.317  52.977  1.00  0.00    -0.084 C 
BRANCH  14  15
HETATM   15  C2  UNL     1      19.222  -0.690  53.407  1.00  0.00     0.091 C 
HETATM   16  C1  UNL     1      18.227  -0.567  52.299  1.00  0.00     0.018 C 
ENDBRANCH  14  15
ENDBRANCH  11  13
ENDBRANCH   1  11
BRANCH   8  17
HETATM   17  N4  UNL     1      26.785   3.258  50.754  1.00  0.00    -0.327 N 
HETATM   18  C11 UNL     1      25.924   4.266  50.283  1.00  0.00     0.221 C 
HETATM   19  O1  UNL     1      24.850   4.459  50.868  1.00  0.00    -0.273 OA
HETATM   20  H10 UNL     1      27.651   3.214  50.160  1.00  0.00     0.169 HD
BRANCH  18  21
HETATM   21  C12 UNL     1      26.170   5.144  49.131  1.00  0.00     0.098 C 
HETATM   22  C13 UNL     1      27.589   4.942  48.662  1.00  0.00     0.014 C 
ENDBRANCH  18  21
ENDBRANCH   8  17
TORSDOF 5
ENDMDL
MODEL 7
REMARK VINA RESULT:      -7.0      2.694      7.006
REMARK  5 active torsions:
REMARK  status: ('A' for Active; 'I' for Inactive)
REMARK    1  A    between atoms: C2_2  and  C3_3 
REMARK    2  A    between atoms: C4_4  and  N1_5 
REMARK    3  A    between atoms: N1_5  and  C5_6 
REMARK    4  A    between atoms: C10_13  and  N4_14 
REMARK       I    between atoms: N4_14  and  C11_15 
REMARK    5  A    between atoms: C11_15  and  C12_17 
ROOT
HETATM    1  C5  UNL     1      22.721   1.631  52.196  1.00  0.00     0.149 A 
HETATM    2  N2  UNL     1      21.702   2.247  51.568  1.00  0.00    -0.223 NA
HETATM    3  C6  UNL     1      21.937   3.105  50.531  1.00  0.00     0.236 A 
HETATM    4  N3  UNL     1      23.170   3.399  50.064  1.00  0.00    -0.241 NA
HETATM    5  C7  UNL     1      24.186   2.783  50.693  1.00  0.00     0.072 A 
HETATM    6  C8  UNL     1      25.480   3.014  50.296  1.00  0.00     0.035 A 
HETATM    7  C9  UNL     1      26.515   2.377  50.948  1.00  0.00     0.032 A 
HETATM    8  C10 UNL     1      26.336   1.506  51.993  1.00  0.00     0.035 A 
HETATM    9  C14 UNL     1      25.047   1.301  52.360  1.00  0.00     0.047 A 
HETATM   10  C15 UNL     1      23.993   1.909  51.744  1.00  0.00     0.041 A 
ENDROOT
BRANCH   1  11
HETATM   11  N1  UNL     1      22.410   0.750  53.267  1.00  0.00    -0.299 N 
HETATM   12  H6  UNL     1      22.962   0.450  54.075  1.00  0.00     0.178 HD
BRANCH  11  13
HETATM   13  C4  UNL     1      21.133   0.172  53.247  1.00  0.00     0.012 C 
HETATM   14  C3  UNL     1      20.017  -0.334  53.208  1.00  0.00    -0.084 C 
BRANCH  14  15
HETATM   15  C2  UNL     1      18.677  -0.918  53.152  1.00  0.00     0.091 C 
HETATM   16  C1  UNL     1      17.938  -0.508  51.919  1.00  0.00     0.018 C 
ENDBRANCH  14  15
ENDBRANCH  11  13
ENDBRANCH   1  11
BRANCH   8  17
HETATM   17  N4  UNL     1      27.369   0.831  52.690  1.00  0.00    -0.327 N 
HETATM   18  C11 UNL     1      28.263   1.299  53.670  1.00  0.00     0.221 C 
HETATM   19  O1  UNL     1      28.194   2.482  54.029  1.00  0.00    -0.273 OA
HETATM   20  H10 UNL     1      27.548  -0.185  52.491  1.00  0.00     0.169 HD
BRANCH  18  21
HETATM   21  C12 UNL     1      29.307   0.508  54.335  1.00  0.00     0.098 C 
HETATM   22  C13 UNL     1      29.631  -0.688  53.476  1.00  0.00     0.014 C 
ENDBRANCH  18  21
ENDBRANCH   8  17
TORSDOF 5
ENDMDL
MODEL 8
REMARK VINA RESULT:      -6.9      3.283      7.340
REMARK  5 active torsions:
REMARK  status: ('A' for Active; 'I' for Inactive)
REMARK    1  A    between atoms: C2_2  and  C3_3 
REMARK    2  A    between atoms: C4_4  and  N1_5 
REMARK    3  A    between atoms: N1_5  and  C5_6 
REMARK    4  A    between atoms: C10_13  and  N4_14 
REMARK       I    between atoms: N4_14  and  C11_15 
REMARK    5  A    between atoms: C11_15  and  C12_17 
ROOT
HETATM    1  C5  UNL     1      24.990   2.147  52.683  1.00  0.00     0.149 A 
HETATM    2  N2  UNL     1      24.008   1.459  53.293  1.00  0.00    -0.223 NA
HETATM    3  C6  UNL     1      22.804   1.263  52.675  1.00  0.00     0.236 A 
HETATM    4  N3  UNL     1      22.508   1.729  51.442  1.00  0.00    -0.241 NA
HETATM    5  C7  UNL     1      23.491   2.417  50.836  1.00  0.00     0.072 A 
HETATM    6  C8  UNL     1      23.293   2.935  49.579  1.00  0.00     0.035 A 
HETATM    7  C9  UNL     1      24.307   3.638  48.965  1.00  0.00     0.032 A 
HETATM    8  C10 UNL     1      25.534   3.863  49.538  1.00  0.00     0.035 A 
HETATM    9  C14 UNL     1      25.697   3.340  50.779  1.00  0.00     0.047 A 
HETATM   10  C15 UNL     1      24.721   2.637  51.423  1.00  0.00     0.041 A 
ENDROOT
BRANCH   1  11
HETATM   11  N1  UNL     1      26.218   2.316  53.379  1.00  0.00    -0.299 N 
HETATM   12  H6  UNL     1      26.601   3.118  53.886  1.00  0.00     0.178 HD
BRANCH  11  13
HETATM   13  C4  UNL     1      27.082   1.211  53.393  1.00  0.00     0.012 C 
HETATM   14  C3  UNL     1      27.822   0.233  53.397  1.00  0.00    -0.084 C 
BRANCH  14  15
HETATM   15  C2  UNL     1      28.691  -0.943  53.421  1.00  0.00     0.091 C 
HETATM   16  C1  UNL     1      30.131  -0.572  53.573  1.00  0.00     0.018 C 
ENDBRANCH  14  15
ENDBRANCH  11  13
ENDBRANCH   1  11
BRANCH   8  17
HETATM   17  N4  UNL     1      26.602   4.580  48.945  1.00  0.00    -0.327 N 
HETATM   18  C11 UNL     1      26.807   5.965  48.810  1.00  0.00     0.221 C 
HETATM   19  O1  UNL     1      25.955   6.743  49.260  1.00  0.00    -0.273 OA
HETATM   20  H10 UNL     1      27.405   4.051  48.519  1.00  0.00     0.169 HD
BRANCH  18  21
HETATM   21  C12 UNL     1      27.961   6.610  48.171  1.00  0.00     0.098 C 
HETATM   22  C13 UNL     1      29.138   5.670  48.234  1.00  0.00     0.014 C 
ENDBRANCH  18  21
ENDBRANCH   8  17
TORSDOF 5
ENDMDL
MODEL 9
REMARK VINA RESULT:      -6.8      2.708      7.126
REMARK  5 active torsions:
REMARK  status: ('A' for Active; 'I' for Inactive)
REMARK    1  A    between atoms: C2_2  and  C3_3 
REMARK    2  A    between atoms: C4_4  and  N1_5 
REMARK    3  A    between atoms: N1_5  and  C5_6 
REMARK    4  A    between atoms: C10_13  and  N4_14 
REMARK       I    between atoms: N4_14  and  C11_15 
REMARK    5  A    between atoms: C11_15  and  C12_17 
ROOT
HETATM    1  C5  UNL     1      21.748   0.675  53.497  1.00  0.00     0.149 A 
HETATM    2  N2  UNL     1      21.491  -0.261  54.427  1.00  0.00    -0.223 NA
HETATM    3  C6  UNL     1      22.488  -1.064  54.905  1.00  0.00     0.236 A 
HETATM    4  N3  UNL     1      23.774  -0.988  54.497  1.00  0.00    -0.241 NA
HETATM    5  C7  UNL     1      24.028  -0.051  53.566  1.00  0.00     0.072 A 
HETATM    6  C8  UNL     1      25.304   0.108  53.083  1.00  0.00     0.035 A 
HETATM    7  C9  UNL     1      25.554   1.072  52.129  1.00  0.00     0.032 A 
HETATM    8  C10 UNL     1      24.591   1.904  51.616  1.00  0.00     0.035 A 
HETATM    9  C14 UNL     1      23.343   1.720  52.114  1.00  0.00     0.047 A 
HETATM   10  C15 UNL     1      23.050   0.780  53.057  1.00  0.00     0.041 A 
ENDROOT
BRANCH   1  11
HETATM   11  N1  UNL     1      20.667   1.478  53.041  1.00  0.00    -0.299 N 
HETATM   12  H6  UNL     1      20.522   2.491  53.066  1.00  0.00     0.178 HD
BRANCH  11  13
HETATM   13  C4  UNL     1      19.593   0.797  52.449  1.00  0.00     0.012 C 
HETATM   14  C3  UNL     1      18.653   0.217  51.916  1.00  0.00    -0.084 C 
BRANCH  14  15
HETATM   15  C2  UNL     1      17.517  -0.457  51.288  1.00  0.00     0.091 C 
HETATM   16  C1  UNL     1      17.195   0.120  49.948  1.00  0.00     0.018 C 
ENDBRANCH  14  15
ENDBRANCH  11  13
ENDBRANCH   1  11
BRANCH   8  17
HETATM   17  N4  UNL     1      24.803   2.905  50.636  1.00  0.00    -0.327 N 
HETATM   18  C11 UNL     1      25.991   3.531  50.215  1.00  0.00     0.221 C 
HETATM   19  O1  UNL     1      27.061   3.201  50.742  1.00  0.00    -0.273 OA
HETATM   20  H10 UNL     1      23.982   3.286  50.101  1.00  0.00     0.169 HD
BRANCH  18  21
HETATM   21  C12 UNL     1      26.101   4.568  49.181  1.00  0.00     0.098 C 
HETATM   22  C13 UNL     1      27.543   4.675  48.752  1.00  0.00     0.014 C 
ENDBRANCH  18  21
ENDBRANCH   8  17
TORSDOF 5
ENDMDL
