MODEL 1
REMARK VINA RESULT:      -8.0      0.000      0.000
REMARK  4 active torsions:
REMARK  status: ('A' for Active; 'I' for Inactive)
REMARK    1  A    between atoms: C1_3  and  C2_4 
REMARK    2  A    between atoms: C6_8  and  C7_9 
REMARK    3  A    between atoms: N2_11  and  C9_12 
REMARK    4  A    between atoms: C9_12  and  C10_13 
ROOT
HETATM    1  C7  UNL     1      24.910  -0.150  53.069  1.00  0.00     0.108 A 
HETATM    2  C8  UNL     1      24.453   0.956  52.433  1.00  0.00     0.148 A 
HETATM    3  N2  UNL     1      23.121   1.016  52.612  1.00  0.00    -0.256 N 
HETATM    4  N3  UNL     1      22.739  -0.008  53.333  1.00  0.00    -0.066 NA
HETATM    5  N4  UNL     1      23.813  -0.708  53.608  1.00  0.00    -0.130 NA
ENDROOT
BRANCH   1   6
HETATM    6  C6  UNL     1      26.295  -0.594  53.128  1.00  0.00    -0.003 A 
HETATM    7  C5  UNL     1      26.662  -1.852  52.709  1.00  0.00     0.014 A 
HETATM    8  C4  UNL     1      27.950  -2.346  52.734  1.00  0.00     0.002 A 
HETATM    9  C3  UNL     1      28.931  -1.496  53.221  1.00  0.00     0.013 A 
HETATM   10  C2  UNL     1      28.632  -0.211  53.662  1.00  0.00    -0.015 A 
HETATM   11  C16 UNL     1      27.317   0.200  53.601  1.00  0.00     0.027 A 
BRANCH  10  12
HETATM   12  C1  UNL     1      29.676   0.669  54.170  1.00  0.00     0.163 C 
HETATM   13  N1  UNL     1      29.379   1.801  54.713  1.00  0.00    -0.099 NA
HETATM   14  F1  UNL     1      30.283   2.666  55.204  1.00  0.00    -0.075 F 
ENDBRANCH  10  12
ENDBRANCH   1   6
BRANCH   3  15
HETATM   15  C9  UNL     1      22.238   2.035  52.101  1.00  0.00     0.190 C 
BRANCH  15  16
HETATM   16  C10 UNL     1      22.250   2.042  50.625  1.00  0.00    -0.038 A 
HETATM   17  C11 UNL     1      22.918   3.016  49.902  1.00  0.00     0.009 A 
HETATM   18  C12 UNL     1      22.962   3.073  48.508  1.00  0.00     0.001 A 
HETATM   19  C13 UNL     1      22.289   2.082  47.824  1.00  0.00     0.000 A 
HETATM   20  C14 UNL     1      21.618   1.102  48.526  1.00  0.00     0.001 A 
HETATM   21  C15 UNL     1      21.581   1.056  49.906  1.00  0.00     0.009 A 
ENDBRANCH  15  16
ENDBRANCH   3  15
TORSDOF 4
ENDMDL
MODEL 2
REMARK VINA RESULT:      -7.9      3.585      7.068
REMARK  4 active torsions:
REMARK  status: ('A' for Active; 'I' for Inactive)
REMARK    1  A    between atoms: C1_3  and  C2_4 
REMARK    2  A    between atoms: C6_8  and  C7_9 
REMARK    3  A    between atoms: N2_11  and  C9_12 
REMARK    4  A    between atoms: C9_12  and  C10_13 
ROOT
HETATM    1  C7  UNL     1      21.636  -0.813  53.848  1.00  0.00     0.108 A 
HETATM    2  C8  UNL     1      22.951  -0.486  53.812  1.00  0.00     0.148 A 
HETATM    3  N2  UNL     1      23.549  -1.063  54.871  1.00  0.00    -0.256 N 
HETATM    4  N3  UNL     1      22.656  -1.732  55.556  1.00  0.00    -0.066 NA
HETATM    5  N4  UNL     1      21.508  -1.582  54.942  1.00  0.00    -0.130 NA
ENDROOT
BRANCH   1   6
HETATM    6  C6  UNL     1      20.623  -0.398  52.887  1.00  0.00    -0.003 A 
HETATM    7  C5  UNL     1      19.284  -0.596  53.129  1.00  0.00     0.014 A 
HETATM    8  C4  UNL     1      18.266  -0.232  52.271  1.00  0.00     0.002 A 
HETATM    9  C3  UNL     1      18.644   0.375  51.083  1.00  0.00     0.013 A 
HETATM   10  C2  UNL     1      19.981   0.607  50.773  1.00  0.00    -0.015 A 
HETATM   11  C16 UNL     1      20.931   0.211  51.690  1.00  0.00     0.027 A 
BRANCH  10  12
HETATM   12  C1  UNL     1      20.359   1.247  49.521  1.00  0.00     0.163 C 
HETATM   13  N1  UNL     1      21.481   0.966  48.947  1.00  0.00    -0.099 NA
HETATM   14  F1  UNL     1      21.899   1.513  47.794  1.00  0.00    -0.075 F 
ENDBRANCH  10  12
ENDBRANCH   1   6
BRANCH   3  15
HETATM   15  C9  UNL     1      24.947  -0.972  55.213  1.00  0.00     0.190 C 
BRANCH  15  16
HETATM   16  C10 UNL     1      25.694  -0.255  54.162  1.00  0.00    -0.038 A 
HETATM   17  C11 UNL     1      26.069   1.072  54.304  1.00  0.00     0.009 A 
HETATM   18  C12 UNL     1      26.774   1.800  53.345  1.00  0.00     0.001 A 
HETATM   19  C13 UNL     1      27.112   1.135  52.184  1.00  0.00     0.000 A 
HETATM   20  C14 UNL     1      26.749  -0.187  52.024  1.00  0.00     0.001 A 
HETATM   21  C15 UNL     1      26.050  -0.897  52.980  1.00  0.00     0.009 A 
ENDBRANCH  15  16
ENDBRANCH   3  15
TORSDOF 4
ENDMDL
MODEL 3
REMARK VINA RESULT:      -7.6      3.044      6.697
REMARK  4 active torsions:
REMARK  status: ('A' for Active; 'I' for Inactive)
REMARK    1  A    between atoms: C1_3  and  C2_4 
REMARK    2  A    between atoms: C6_8  and  C7_9 
REMARK    3  A    between atoms: N2_11  and  C9_12 
REMARK    4  A    between atoms: C9_12  and  C10_13 
ROOT
HETATM    1  C7  UNL     1      24.721   2.420  51.502  1.00  0.00     0.108 A 
HETATM    2  C8  UNL     1      25.590   2.218  52.523  1.00  0.00     0.148 A 
HETATM    3  N2  UNL     1      25.211   1.103  53.173  1.00  0.00    -0.256 N 
HETATM    4  N3  UNL     1      24.145   0.610  52.595  1.00  0.00    -0.066 NA
HETATM    5  N4  UNL     1      23.851   1.401  51.591  1.00  0.00    -0.130 NA
ENDROOT
BRANCH   1   6
HETATM    6  C6  UNL     1      24.764   3.516  50.545  1.00  0.00    -0.003 A 
HETATM    7  C5  UNL     1      23.612   4.112  50.088  1.00  0.00     0.014 A 
HETATM    8  C4  UNL     1      23.569   5.154  49.183  1.00  0.00     0.002 A 
HETATM    9  C3  UNL     1      24.788   5.617  48.712  1.00  0.00     0.013 A 
HETATM   10  C2  UNL     1      25.993   5.060  49.131  1.00  0.00    -0.015 A 
HETATM   11  C16 UNL     1      25.941   4.023  50.038  1.00  0.00     0.027 A 
BRANCH  10  12
HETATM   12  C1  UNL     1      27.264   5.560  48.626  1.00  0.00     0.163 C 
HETATM   13  N1  UNL     1      28.285   4.778  48.517  1.00  0.00    -0.099 NA
HETATM   14  F1  UNL     1      29.489   5.163  48.061  1.00  0.00    -0.075 F 
ENDBRANCH  10  12
ENDBRANCH   1   6
BRANCH   3  15
HETATM   15  C9  UNL     1      25.861   0.526  54.324  1.00  0.00     0.190 C 
BRANCH  15  16
HETATM   16  C10 UNL     1      27.050  -0.248  53.917  1.00  0.00    -0.038 A 
HETATM   17  C11 UNL     1      28.329   0.114  54.307  1.00  0.00     0.009 A 
HETATM   18  C12 UNL     1      29.488  -0.577  53.952  1.00  0.00     0.001 A 
HETATM   19  C13 UNL     1      29.327  -1.696  53.160  1.00  0.00     0.000 A 
HETATM   20  C14 UNL     1      28.061  -2.074  52.763  1.00  0.00     0.001 A 
HETATM   21  C15 UNL     1      26.921  -1.381  53.119  1.00  0.00     0.009 A 
ENDBRANCH  15  16
ENDBRANCH   3  15
TORSDOF 4
ENDMDL
MODEL 4
REMARK VINA RESULT:      -7.6      3.693      5.040
REMARK  4 active torsions:
REMARK  status: ('A' for Active; 'I' for Inactive)
REMARK    1  A    between atoms: C1_3  and  C2_4 
REMARK    2  A    between atoms: C6_8  and  C7_9 
REMARK    3  A    between atoms: N2_11  and  C9_12 
REMARK    4  A    between atoms: C9_12  and  C10_13 
ROOT
HETATM    1  C7  UNL     1      24.351   2.940  51.790  1.00  0.00     0.108 A 
HETATM    2  C8  UNL     1      24.511   3.270  50.485  1.00  0.00     0.148 A 
HETATM    3  N2  UNL     1      24.241   4.581  50.353  1.00  0.00    -0.256 N 
HETATM    4  N3  UNL     1      23.921   5.073  51.524  1.00  0.00    -0.066 NA
HETATM    5  N4  UNL     1      23.987   4.088  52.387  1.00  0.00    -0.130 NA
ENDROOT
BRANCH   1   6
HETATM    6  C6  UNL     1      24.544   1.619  52.371  1.00  0.00    -0.003 A 
HETATM    7  C5  UNL     1      23.545   0.999  53.084  1.00  0.00     0.014 A 
HETATM    8  C4  UNL     1      23.650  -0.249  53.664  1.00  0.00     0.002 A 
HETATM    9  C3  UNL     1      24.860  -0.908  53.504  1.00  0.00     0.013 A 
HETATM   10  C2  UNL     1      25.913  -0.340  52.794  1.00  0.00    -0.015 A 
HETATM   11  C16 UNL     1      25.720   0.911  52.248  1.00  0.00     0.027 A 
BRANCH  10  12
HETATM   12  C1  UNL     1      27.176  -1.046  52.636  1.00  0.00     0.163 C 
HETATM   13  N1  UNL     1      27.283  -2.291  52.959  1.00  0.00    -0.099 NA
HETATM   14  F1  UNL     1      28.412  -3.011  52.842  1.00  0.00    -0.075 F 
ENDBRANCH  10  12
ENDBRANCH   1   6
BRANCH   3  15
HETATM   15  C9  UNL     1      24.289   5.342  49.130  1.00  0.00     0.190 C 
BRANCH  15  16
HETATM   16  C10 UNL     1      25.684   5.669  48.775  1.00  0.00    -0.038 A 
HETATM   17  C11 UNL     1      26.708   4.743  48.897  1.00  0.00     0.009 A 
HETATM   18  C12 UNL     1      28.043   4.996  48.579  1.00  0.00     0.001 A 
HETATM   19  C13 UNL     1      28.342   6.260  48.111  1.00  0.00     0.000 A 
HETATM   20  C14 UNL     1      27.336   7.195  47.981  1.00  0.00     0.001 A 
HETATM   21  C15 UNL     1      26.018   6.934  48.300  1.00  0.00     0.009 A 
ENDBRANCH  15  16
ENDBRANCH   3  15
TORSDOF 4
ENDMDL
MODEL 5
REMARK VINA RESULT:      -7.6      3.726      6.963
REMARK  4 active torsions:
REMARK  status: ('A' for Active; 'I' for Inactive)
REMARK    1  A    between atoms: C1_3  and  C2_4 
REMARK    2  A    between atoms: C6_8  and  C7_9 
REMARK    3  A    between atoms: N2_11  and  C9_12 
REMARK    4  A    between atoms: C9_12  and  C10_13 
ROOT
HETATM    1  C7  UNL     1      24.984   2.567  51.140  1.00  0.00     0.108 A 
HETATM    2  C8  UNL     1      25.616   1.888  52.129  1.00  0.00     0.148 A 
HETATM    3  N2  UNL     1      24.770   0.951  52.593  1.00  0.00    -0.256 N 
HETATM    4  N3  UNL     1      23.642   1.024  51.930  1.00  0.00    -0.066 NA
HETATM    5  N4  UNL     1      23.771   1.995  51.058  1.00  0.00    -0.130 NA
ENDROOT
BRANCH   1   6
HETATM    6  C6  UNL     1      25.540   3.667  50.365  1.00  0.00    -0.003 A 
HETATM    7  C5  UNL     1      26.668   3.503  49.597  1.00  0.00     0.014 A 
HETATM    8  C4  UNL     1      27.255   4.494  48.837  1.00  0.00     0.002 A 
HETATM    9  C3  UNL     1      26.645   5.739  48.864  1.00  0.00     0.013 A 
HETATM   10  C2  UNL     1      25.501   5.977  49.618  1.00  0.00    -0.015 A 
HETATM   11  C16 UNL     1      24.983   4.928  50.348  1.00  0.00     0.027 A 
BRANCH  10  12
HETATM   12  C1  UNL     1      24.873   7.291  49.634  1.00  0.00     0.163 C 
HETATM   13  N1  UNL     1      23.651   7.435  50.022  1.00  0.00    -0.099 NA
HETATM   14  F1  UNL     1      23.003   8.612  50.065  1.00  0.00    -0.075 F 
ENDBRANCH  10  12
ENDBRANCH   1   6
BRANCH   3  15
HETATM   15  C9  UNL     1      25.040   0.008  53.649  1.00  0.00     0.190 C 
BRANCH  15  16
HETATM   16  C10 UNL     1      26.488  -0.260  53.750  1.00  0.00    -0.038 A 
HETATM   17  C11 UNL     1      27.285   0.363  54.698  1.00  0.00     0.009 A 
HETATM   18  C12 UNL     1      28.657   0.151  54.838  1.00  0.00     0.001 A 
HETATM   19  C13 UNL     1      29.240  -0.745  53.965  1.00  0.00     0.000 A 
HETATM   20  C14 UNL     1      28.464  -1.376  53.015  1.00  0.00     0.001 A 
HETATM   21  C15 UNL     1      27.106  -1.157  52.885  1.00  0.00     0.009 A 
ENDBRANCH  15  16
ENDBRANCH   3  15
TORSDOF 4
ENDMDL
MODEL 6
REMARK VINA RESULT:      -7.6      4.189      7.479
REMARK  4 active torsions:
REMARK  status: ('A' for Active; 'I' for Inactive)
REMARK    1  A    between atoms: C1_3  and  C2_4 
REMARK    2  A    between atoms: C6_8  and  C7_9 
REMARK    3  A    between atoms: N2_11  and  C9_12 
REMARK    4  A    between atoms: C9_12  and  C10_13 
ROOT
HETATM    1  C7  UNL     1      23.350   1.334  52.769  1.00  0.00     0.108 A 
HETATM    2  C8  UNL     1      24.643   1.058  52.470  1.00  0.00     0.148 A 
HETATM    3  N2  UNL     1      25.233   2.206  52.089  1.00  0.00    -0.256 N 
HETATM    4  N3  UNL     1      24.356   3.177  52.140  1.00  0.00    -0.066 NA
HETATM    5  N4  UNL     1      23.226   2.654  52.549  1.00  0.00    -0.130 NA
ENDROOT
BRANCH   1   6
HETATM    6  C6  UNL     1      22.352   0.377  53.226  1.00  0.00    -0.003 A 
HETATM    7  C5  UNL     1      22.675  -0.625  54.110  1.00  0.00     0.014 A 
HETATM    8  C4  UNL     1      21.788  -1.569  54.589  1.00  0.00     0.002 A 
HETATM    9  C3  UNL     1      20.482  -1.481  54.131  1.00  0.00     0.013 A 
HETATM   10  C2  UNL     1      20.086  -0.493  53.235  1.00  0.00    -0.015 A 
HETATM   11  C16 UNL     1      21.039   0.409  52.810  1.00  0.00     0.027 A 
BRANCH  10  12
HETATM   12  C1  UNL     1      18.710  -0.416  52.765  1.00  0.00     0.163 C 
HETATM   13  N1  UNL     1      17.756  -0.992  53.416  1.00  0.00    -0.099 NA
HETATM   14  F1  UNL     1      16.464  -0.967  53.047  1.00  0.00    -0.075 F 
ENDBRANCH  10  12
ENDBRANCH   1   6
BRANCH   3  15
HETATM   15  C9  UNL     1      26.608   2.362  51.683  1.00  0.00     0.190 C 
BRANCH  15  16
HETATM   16  C10 UNL     1      27.503   1.601  52.576  1.00  0.00    -0.038 A 
HETATM   17  C11 UNL     1      27.560   0.216  52.551  1.00  0.00     0.009 A 
HETATM   18  C12 UNL     1      28.385  -0.555  53.371  1.00  0.00     0.001 A 
HETATM   19  C13 UNL     1      29.191   0.127  54.259  1.00  0.00     0.000 A 
HETATM   20  C14 UNL     1      29.150   1.506  54.299  1.00  0.00     0.001 A 
HETATM   21  C15 UNL     1      28.329   2.258  53.483  1.00  0.00     0.009 A 
ENDBRANCH  15  16
ENDBRANCH   3  15
TORSDOF 4
ENDMDL
MODEL 7
REMARK VINA RESULT:      -7.4      4.650      7.019
REMARK  4 active torsions:
REMARK  status: ('A' for Active; 'I' for Inactive)
REMARK    1  A    between atoms: C1_3  and  C2_4 
REMARK    2  A    between atoms: C6_8  and  C7_9 
REMARK    3  A    between atoms: N2_11  and  C9_12 
REMARK    4  A    between atoms: C9_12  and  C10_13 
ROOT
HETATM    1  C7  UNL     1      25.827   4.736  49.688  1.00  0.00     0.108 A 
HETATM    2  C8  UNL     1      25.890   3.408  49.950  1.00  0.00     0.148 A 
HETATM    3  N2  UNL     1      24.809   3.079  50.680  1.00  0.00    -0.256 N 
HETATM    4  N3  UNL     1      24.083   4.150  50.879  1.00  0.00    -0.066 NA
HETATM    5  N4  UNL     1      24.694   5.145  50.283  1.00  0.00    -0.130 NA
ENDROOT
BRANCH   1   6
HETATM    6  C6  UNL     1      26.798   5.506  48.924  1.00  0.00    -0.003 A 
HETATM    7  C5  UNL     1      26.465   6.711  48.352  1.00  0.00     0.014 A 
HETATM    8  C4  UNL     1      27.326   7.499  47.615  1.00  0.00     0.002 A 
HETATM    9  C3  UNL     1      28.617   7.020  47.451  1.00  0.00     0.013 A 
HETATM   10  C2  UNL     1      29.023   5.809  48.002  1.00  0.00    -0.015 A 
HETATM   11  C16 UNL     1      28.096   5.088  48.724  1.00  0.00     0.027 A 
BRANCH  10  12
HETATM   12  C1  UNL     1      30.383   5.322  47.820  1.00  0.00     0.163 C 
HETATM   13  N1  UNL     1      31.200   5.253  48.817  1.00  0.00    -0.099 NA
HETATM   14  F1  UNL     1      32.467   4.816  48.730  1.00  0.00    -0.075 F 
ENDBRANCH  10  12
ENDBRANCH   1   6
BRANCH   3  15
HETATM   15  C9  UNL     1      24.484   1.764  51.175  1.00  0.00     0.190 C 
BRANCH  15  16
HETATM   16  C10 UNL     1      25.490   1.314  52.157  1.00  0.00    -0.038 A 
HETATM   17  C11 UNL     1      26.343   0.253  51.899  1.00  0.00     0.009 A 
HETATM   18  C12 UNL     1      27.310  -0.216  52.789  1.00  0.00     0.001 A 
HETATM   19  C13 UNL     1      27.409   0.436  54.001  1.00  0.00     0.000 A 
HETATM   20  C14 UNL     1      26.569   1.495  54.276  1.00  0.00     0.001 A 
HETATM   21  C15 UNL     1      25.615   1.951  53.389  1.00  0.00     0.009 A 
ENDBRANCH  15  16
ENDBRANCH   3  15
TORSDOF 4
ENDMDL
MODEL 8
REMARK VINA RESULT:      -7.4      7.784     10.490
REMARK  4 active torsions:
REMARK  status: ('A' for Active; 'I' for Inactive)
REMARK    1  A    between atoms: C1_3  and  C2_4 
REMARK    2  A    between atoms: C6_8  and  C7_9 
REMARK    3  A    between atoms: N2_11  and  C9_12 
REMARK    4  A    between atoms: C9_12  and  C10_13 
ROOT
HETATM    1  C7  UNL     1      29.586   6.589  47.706  1.00  0.00     0.108 A 
HETATM    2  C8  UNL     1      30.752   6.283  48.326  1.00  0.00     0.148 A 
HETATM    3  N2  UNL     1      31.754   6.835  47.619  1.00  0.00    -0.256 N 
HETATM    4  N3  UNL     1      31.254   7.469  46.588  1.00  0.00    -0.066 NA
HETATM    5  N4  UNL     1      29.952   7.322  46.640  1.00  0.00    -0.130 NA
ENDROOT
BRANCH   1   6
HETATM    6  C6  UNL     1      28.254   6.190  48.137  1.00  0.00    -0.003 A 
HETATM    7  C5  UNL     1      27.185   7.050  48.047  1.00  0.00     0.014 A 
HETATM    8  C4  UNL     1      25.896   6.747  48.435  1.00  0.00     0.002 A 
HETATM    9  C3  UNL     1      25.685   5.477  48.950  1.00  0.00     0.013 A 
HETATM   10  C2  UNL     1      26.721   4.556  49.071  1.00  0.00    -0.015 A 
HETATM   11  C16 UNL     1      27.978   4.944  48.658  1.00  0.00     0.027 A 
BRANCH  10  12
HETATM   12  C1  UNL     1      26.481   3.226  49.614  1.00  0.00     0.163 C 
HETATM   13  N1  UNL     1      26.974   2.879  50.755  1.00  0.00    -0.099 NA
HETATM   14  F1  UNL     1      26.798   1.674  51.322  1.00  0.00    -0.075 F 
ENDBRANCH  10  12
ENDBRANCH   1   6
BRANCH   3  15
HETATM   15  C9  UNL     1      33.160   6.754  47.928  1.00  0.00     0.190 C 
BRANCH  15  16
HETATM   16  C10 UNL     1      33.769   5.578  47.276  1.00  0.00    -0.038 A 
HETATM   17  C11 UNL     1      34.189   4.473  48.000  1.00  0.00     0.009 A 
HETATM   18  C12 UNL     1      34.771   3.336  47.438  1.00  0.00     0.001 A 
HETATM   19  C13 UNL     1      34.930   3.331  46.067  1.00  0.00     0.000 A 
HETATM   20  C14 UNL     1      34.518   4.422  45.329  1.00  0.00     0.001 A 
HETATM   21  C15 UNL     1      33.943   5.542  45.896  1.00  0.00     0.009 A 
ENDBRANCH  15  16
ENDBRANCH   3  15
TORSDOF 4
ENDMDL
MODEL 9
REMARK VINA RESULT:      -7.2      2.986      4.577
REMARK  4 active torsions:
REMARK  status: ('A' for Active; 'I' for Inactive)
REMARK    1  A    between atoms: C1_3  and  C2_4 
REMARK    2  A    between atoms: C6_8  and  C7_9 
REMARK    3  A    between atoms: N2_11  and  C9_12 
REMARK    4  A    between atoms: C9_12  and  C10_13 
ROOT
HETATM    1  C7  UNL     1      23.043   1.800  51.237  1.00  0.00     0.108 A 
HETATM    2  C8  UNL     1      23.489   3.078  51.156  1.00  0.00     0.148 A 
HETATM    3  N2  UNL     1      23.101   3.576  49.968  1.00  0.00    -0.256 N 
HETATM    4  N3  UNL     1      22.434   2.658  49.314  1.00  0.00    -0.066 NA
HETATM    5  N4  UNL     1      22.399   1.592  50.076  1.00  0.00    -0.130 NA
ENDROOT
BRANCH   1   6
HETATM    6  C6  UNL     1      23.242   0.892  52.358  1.00  0.00    -0.003 A 
HETATM    7  C5  UNL     1      22.177   0.384  53.064  1.00  0.00     0.014 A 
HETATM    8  C4  UNL     1      22.283  -0.479  54.136  1.00  0.00     0.002 A 
HETATM    9  C3  UNL     1      23.566  -0.848  54.511  1.00  0.00     0.013 A 
HETATM   10  C2  UNL     1      24.689  -0.371  53.842  1.00  0.00    -0.015 A 
HETATM   11  C16 UNL     1      24.489   0.487  52.782  1.00  0.00     0.027 A 
BRANCH  10  12
HETATM   12  C1  UNL     1      26.029  -0.770  54.249  1.00  0.00     0.163 C 
HETATM   13  N1  UNL     1      26.797   0.049  54.887  1.00  0.00    -0.099 NA
HETATM   14  F1  UNL     1      28.043  -0.244  55.296  1.00  0.00    -0.075 F 
ENDBRANCH  10  12
ENDBRANCH   1   6
BRANCH   3  15
HETATM   15  C9  UNL     1      23.367   4.905  49.475  1.00  0.00     0.190 C 
BRANCH  15  16
HETATM   16  C10 UNL     1      24.804   5.073  49.180  1.00  0.00    -0.038 A 
HETATM   17  C11 UNL     1      25.711   4.038  49.342  1.00  0.00     0.009 A 
HETATM   18  C12 UNL     1      27.078   4.139  49.081  1.00  0.00     0.001 A 
HETATM   19  C13 UNL     1      27.537   5.361  48.632  1.00  0.00     0.000 A 
HETATM   20  C14 UNL     1      26.649   6.404  48.465  1.00  0.00     0.001 A 
HETATM   21  C15 UNL     1      25.298   6.292  48.727  1.00  0.00     0.009 A 
ENDBRANCH  15  16
ENDBRANCH   3  15
TORSDOF 4
ENDMDL
