MODEL 1
REMARK VINA RESULT:      -8.1      0.000      0.000
REMARK  5 active torsions:
REMARK  status: ('A' for Active; 'I' for Inactive)
REMARK    1  A    between atoms: O1_2  and  N1_3 
REMARK    2  A    between atoms: C2_4  and  C3_5 
REMARK    3  A    between atoms: C6_8  and  O2_9 
REMARK    4  A    between atoms: N2_12  and  C9_13 
REMARK    5  A    between atoms: C9_13  and  C10_14 
ROOT
HETATM    1  N1  UNL     1      26.115   1.619  53.598  1.00  0.00    -0.169 N 
HETATM    2  C2  UNL     1      26.904   0.948  52.740  1.00  0.00     0.090 A 
HETATM    3  C8  UNL     1      26.567   1.365  51.468  1.00  0.00     0.129 A 
HETATM    4  N2  UNL     1      25.585   2.283  51.515  1.00  0.00    -0.301 N 
HETATM    5  C17 UNL     1      25.330   2.417  52.853  1.00  0.00     0.353 A 
HETATM    6  O3  UNL     1      24.468   3.183  53.397  1.00  0.00    -0.244 OA
ENDROOT
BRANCH   4   7
HETATM    7  C9  UNL     1      24.840   3.061  50.544  1.00  0.00     0.172 C 
BRANCH   7   8
HETATM    8  C10 UNL     1      25.632   4.153  49.935  1.00  0.00    -0.034 A 
HETATM    9  C11 UNL     1      26.793   3.866  49.250  1.00  0.00     0.009 A 
HETATM   10  C12 UNL     1      27.646   4.758  48.636  1.00  0.00     0.001 A 
HETATM   11  C13 UNL     1      27.279   6.105  48.728  1.00  0.00     0.001 A 
HETATM   12  C14 UNL     1      26.112   6.443  49.412  1.00  0.00     0.007 A 
HETATM   13  C15 UNL     1      25.317   5.480  49.998  1.00  0.00    -0.054 A 
HETATM   14  C16 UNL     1      24.085   5.903  50.705  1.00  0.00     0.049 C 
ENDBRANCH   7   8
ENDBRANCH   4   7
BRANCH   2  15
HETATM   15  C3  UNL     1      27.935  -0.045  53.013  1.00  0.00    -0.021 A 
HETATM   16  C4  UNL     1      29.223   0.109  53.338  1.00  0.00     0.012 A 
HETATM   17  C5  UNL     1      29.806  -1.206  53.502  1.00  0.00     0.033 A 
HETATM   18  C6  UNL     1      28.933  -2.179  53.294  1.00  0.00     0.047 A 
HETATM   19  C7  UNL     1      27.651  -1.515  52.961  1.00  0.00     0.105 A 
BRANCH  18  20
HETATM   20  O2  UNL     1      29.035  -3.562  53.339  1.00  0.00    -0.365 OA
HETATM   21  H6  UNL     1      29.225  -4.067  52.487  1.00  0.00     0.217 HD
ENDBRANCH  18  20
ENDBRANCH   2  15
BRANCH   1  22
HETATM   22  O1  UNL     1      26.132   1.496  54.963  1.00  0.00    -0.274 OA
HETATM   23  C1  UNL     1      25.923   0.229  55.601  1.00  0.00     0.238 C 
ENDBRANCH   1  22
TORSDOF 5
ENDMDL
MODEL 2
REMARK VINA RESULT:      -7.9      2.284      6.662
REMARK  5 active torsions:
REMARK  status: ('A' for Active; 'I' for Inactive)
REMARK    1  A    between atoms: O1_2  and  N1_3 
REMARK    2  A    between atoms: C2_4  and  C3_5 
REMARK    3  A    between atoms: C6_8  and  O2_9 
REMARK    4  A    between atoms: N2_12  and  C9_13 
REMARK    5  A    between atoms: C9_13  and  C10_14 
ROOT
HETATM    1  N1  UNL     1      23.662   2.097  51.122  1.00  0.00    -0.169 N 
HETATM    2  C2  UNL     1      24.896   2.624  51.020  1.00  0.00     0.090 A 
HETATM    3  C8  UNL     1      25.708   1.926  51.889  1.00  0.00     0.129 A 
HETATM    4  N2  UNL     1      25.008   0.974  52.532  1.00  0.00    -0.301 N 
HETATM    5  C17 UNL     1      23.742   1.109  52.030  1.00  0.00     0.353 A 
HETATM    6  O3  UNL     1      22.716   0.418  52.339  1.00  0.00    -0.244 OA
ENDROOT
BRANCH   4   7
HETATM    7  C9  UNL     1      25.299  -0.041  53.526  1.00  0.00     0.172 C 
BRANCH   7   8
HETATM    8  C10 UNL     1      26.745  -0.318  53.676  1.00  0.00    -0.034 A 
HETATM    9  C11 UNL     1      27.507   0.436  54.542  1.00  0.00     0.009 A 
HETATM   10  C12 UNL     1      28.857   0.316  54.791  1.00  0.00     0.001 A 
HETATM   11  C13 UNL     1      29.516  -0.689  54.075  1.00  0.00     0.001 A 
HETATM   12  C14 UNL     1      28.785  -1.477  53.186  1.00  0.00     0.007 A 
HETATM   13  C15 UNL     1      27.432  -1.286  53.000  1.00  0.00    -0.054 A 
HETATM   14  C16 UNL     1      26.710  -2.160  52.047  1.00  0.00     0.049 C 
ENDBRANCH   7   8
ENDBRANCH   4   7
BRANCH   2  15
HETATM   15  C3  UNL     1      25.368   3.721  50.183  1.00  0.00    -0.021 A 
HETATM   16  C4  UNL     1      24.736   4.817  49.753  1.00  0.00     0.012 A 
HETATM   17  C5  UNL     1      25.664   5.585  48.949  1.00  0.00     0.033 A 
HETATM   18  C6  UNL     1      26.854   5.012  48.859  1.00  0.00     0.047 A 
HETATM   19  C7  UNL     1      26.767   3.761  49.648  1.00  0.00     0.105 A 
BRANCH  18  20
HETATM   20  O2  UNL     1      28.027   5.373  48.212  1.00  0.00    -0.365 OA
HETATM   21  H6  UNL     1      28.038   5.413  47.205  1.00  0.00     0.217 HD
ENDBRANCH  18  20
ENDBRANCH   2  15
BRANCH   1  22
HETATM   22  O1  UNL     1      22.557   2.508  50.422  1.00  0.00    -0.274 OA
HETATM   23  C1  UNL     1      22.219   1.930  49.155  1.00  0.00     0.238 C 
ENDBRANCH   1  22
TORSDOF 5
ENDMDL
MODEL 3
REMARK VINA RESULT:      -7.9      2.303      3.901
REMARK  5 active torsions:
REMARK  status: ('A' for Active; 'I' for Inactive)
REMARK    1  A    between atoms: O1_2  and  N1_3 
REMARK    2  A    between atoms: C2_4  and  C3_5 
REMARK    3  A    between atoms: C6_8  and  O2_9 
REMARK    4  A    between atoms: N2_12  and  C9_13 
REMARK    5  A    between atoms: C9_13  and  C10_14 
ROOT
HETATM    1  N1  UNL     1      26.012   1.604  53.156  1.00  0.00    -0.169 N 
HETATM    2  C2  UNL     1      24.808   1.311  52.630  1.00  0.00     0.090 A 
HETATM    3  C8  UNL     1      24.824   1.737  51.318  1.00  0.00     0.129 A 
HETATM    4  N2  UNL     1      26.012   2.289  51.013  1.00  0.00    -0.301 N 
HETATM    5  C17 UNL     1      26.725   2.188  52.176  1.00  0.00     0.353 A 
HETATM    6  O3  UNL     1      27.920   2.580  52.381  1.00  0.00    -0.244 OA
ENDROOT
BRANCH   4   7
HETATM    7  C9  UNL     1      26.609   2.892  49.836  1.00  0.00     0.172 C 
BRANCH   7   8
HETATM    8  C10 UNL     1      26.020   4.203  49.486  1.00  0.00    -0.034 A 
HETATM    9  C11 UNL     1      24.695   4.461  49.763  1.00  0.00     0.009 A 
HETATM   10  C12 UNL     1      23.993   5.617  49.496  1.00  0.00     0.001 A 
HETATM   11  C13 UNL     1      24.722   6.635  48.872  1.00  0.00     0.001 A 
HETATM   12  C14 UNL     1      26.067   6.418  48.571  1.00  0.00     0.007 A 
HETATM   13  C15 UNL     1      26.688   5.226  48.876  1.00  0.00    -0.054 A 
HETATM   14  C16 UNL     1      28.121   5.059  48.538  1.00  0.00     0.049 C 
ENDBRANCH   7   8
ENDBRANCH   4   7
BRANCH   2  15
HETATM   15  C3  UNL     1      23.655   0.673  53.254  1.00  0.00    -0.021 A 
HETATM   16  C4  UNL     1      22.365   1.024  53.253  1.00  0.00     0.012 A 
HETATM   17  C5  UNL     1      21.633   0.043  54.028  1.00  0.00     0.033 A 
HETATM   18  C6  UNL     1      22.414  -0.908  54.513  1.00  0.00     0.047 A 
HETATM   19  C7  UNL     1      23.786  -0.585  54.057  1.00  0.00     0.105 A 
BRANCH  18  20
HETATM   20  O2  UNL     1      22.162  -2.028  55.293  1.00  0.00    -0.365 OA
HETATM   21  H6  UNL     1      22.934  -2.611  55.577  1.00  0.00     0.217 HD
ENDBRANCH  18  20
ENDBRANCH   2  15
BRANCH   1  22
HETATM   22  O1  UNL     1      26.407   1.343  54.442  1.00  0.00    -0.274 OA
HETATM   23  C1  UNL     1      27.278   0.247  54.747  1.00  0.00     0.238 C 
ENDBRANCH   1  22
TORSDOF 5
ENDMDL
MODEL 4
REMARK VINA RESULT:      -7.8      2.416      3.301
REMARK  5 active torsions:
REMARK  status: ('A' for Active; 'I' for Inactive)
REMARK    1  A    between atoms: O1_2  and  N1_3 
REMARK    2  A    between atoms: C2_4  and  C3_5 
REMARK    3  A    between atoms: C6_8  and  O2_9 
REMARK    4  A    between atoms: N2_12  and  C9_13 
REMARK    5  A    between atoms: C9_13  and  C10_14 
ROOT
HETATM    1  N1  UNL     1      24.200  -0.026  53.541  1.00  0.00    -0.169 N 
HETATM    2  C2  UNL     1      25.372   0.251  52.941  1.00  0.00     0.090 A 
HETATM    3  C8  UNL     1      25.166   1.354  52.138  1.00  0.00     0.129 A 
HETATM    4  N2  UNL     1      23.890   1.772  52.225  1.00  0.00    -0.301 N 
HETATM    5  C17 UNL     1      23.320   0.893  53.105  1.00  0.00     0.353 A 
HETATM    6  O3  UNL     1      22.111   0.885  53.507  1.00  0.00    -0.244 OA
ENDROOT
BRANCH   4   7
HETATM    7  C9  UNL     1      23.102   2.840  51.640  1.00  0.00     0.172 C 
BRANCH   7   8
HETATM    8  C10 UNL     1      22.717   2.584  50.235  1.00  0.00    -0.034 A 
HETATM    9  C11 UNL     1      21.800   1.599  49.938  1.00  0.00     0.009 A 
HETATM   10  C12 UNL     1      21.342   1.228  48.692  1.00  0.00     0.001 A 
HETATM   11  C13 UNL     1      21.878   1.943  47.615  1.00  0.00     0.001 A 
HETATM   12  C14 UNL     1      22.810   2.950  47.867  1.00  0.00     0.007 A 
HETATM   13  C15 UNL     1      23.211   3.253  49.151  1.00  0.00    -0.054 A 
HETATM   14  C16 UNL     1      24.199   4.338  49.355  1.00  0.00     0.049 C 
ENDBRANCH   7   8
ENDBRANCH   4   7
BRANCH   2  15
HETATM   15  C3  UNL     1      26.655  -0.431  53.056  1.00  0.00    -0.021 A 
HETATM   16  C4  UNL     1      27.865   0.046  53.368  1.00  0.00     0.012 A 
HETATM   17  C5  UNL     1      28.803  -1.057  53.343  1.00  0.00     0.033 A 
HETATM   18  C6  UNL     1      28.227  -2.207  53.029  1.00  0.00     0.047 A 
HETATM   19  C7  UNL     1      26.793  -1.903  52.817  1.00  0.00     0.105 A 
BRANCH  18  20
HETATM   20  O2  UNL     1      28.716  -3.498  52.887  1.00  0.00    -0.365 OA
HETATM   21  H6  UNL     1      29.331  -3.707  52.116  1.00  0.00     0.217 HD
ENDBRANCH  18  20
ENDBRANCH   2  15
BRANCH   1  22
HETATM   22  O1  UNL     1      23.976  -1.050  54.424  1.00  0.00    -0.274 OA
HETATM   23  C1  UNL     1      24.561  -1.049  55.732  1.00  0.00     0.238 C 
ENDBRANCH   1  22
TORSDOF 5
ENDMDL
MODEL 5
REMARK VINA RESULT:      -7.7      1.330      2.155
REMARK  5 active torsions:
REMARK  status: ('A' for Active; 'I' for Inactive)
REMARK    1  A    between atoms: O1_2  and  N1_3 
REMARK    2  A    between atoms: C2_4  and  C3_5 
REMARK    3  A    between atoms: C6_8  and  O2_9 
REMARK    4  A    between atoms: N2_12  and  C9_13 
REMARK    5  A    between atoms: C9_13  and  C10_14 
ROOT
HETATM    1  N1  UNL     1      25.021   1.689  52.401  1.00  0.00    -0.169 N 
HETATM    2  C2  UNL     1      26.314   1.584  52.042  1.00  0.00     0.090 A 
HETATM    3  C8  UNL     1      26.478   2.337  50.896  1.00  0.00     0.129 A 
HETATM    4  N2  UNL     1      25.315   2.908  50.534  1.00  0.00    -0.301 N 
HETATM    5  C17 UNL     1      24.434   2.486  51.491  1.00  0.00     0.353 A 
HETATM    6  O3  UNL     1      23.194   2.771  51.573  1.00  0.00    -0.244 OA
ENDROOT
BRANCH   4   7
HETATM    7  C9  UNL     1      24.873   3.779  49.462  1.00  0.00     0.172 C 
BRANCH   7   8
HETATM    8  C10 UNL     1      25.157   5.210  49.712  1.00  0.00    -0.034 A 
HETATM    9  C11 UNL     1      24.241   5.988  50.386  1.00  0.00     0.009 A 
HETATM   10  C12 UNL     1      24.344   7.328  50.691  1.00  0.00     0.001 A 
HETATM   11  C13 UNL     1      25.518   7.956  50.260  1.00  0.00     0.001 A 
HETATM   12  C14 UNL     1      26.474   7.208  49.573  1.00  0.00     0.007 A 
HETATM   13  C15 UNL     1      26.285   5.867  49.312  1.00  0.00    -0.054 A 
HETATM   14  C16 UNL     1      27.340   5.125  48.584  1.00  0.00     0.049 C 
ENDBRANCH   7   8
ENDBRANCH   4   7
BRANCH   2  15
HETATM   15  C3  UNL     1      27.395   0.841  52.677  1.00  0.00    -0.021 A 
HETATM   16  C4  UNL     1      28.459   1.274  53.361  1.00  0.00     0.012 A 
HETATM   17  C5  UNL     1      29.225   0.118  53.780  1.00  0.00     0.033 A 
HETATM   18  C6  UNL     1      28.681  -1.022  53.386  1.00  0.00     0.047 A 
HETATM   19  C7  UNL     1      27.454  -0.655  52.641  1.00  0.00     0.105 A 
BRANCH  18  20
HETATM   20  O2  UNL     1      29.050  -2.349  53.552  1.00  0.00    -0.365 OA
HETATM   21  H6  UNL     1      28.343  -3.029  53.781  1.00  0.00     0.217 HD
ENDBRANCH  18  20
ENDBRANCH   2  15
BRANCH   1  22
HETATM   22  O1  UNL     1      24.444   1.090  53.491  1.00  0.00    -0.274 OA
HETATM   23  C1  UNL     1      23.820  -0.196  53.393  1.00  0.00     0.238 C 
ENDBRANCH   1  22
TORSDOF 5
ENDMDL
MODEL 6
REMARK VINA RESULT:      -7.6      3.300      6.938
REMARK  5 active torsions:
REMARK  status: ('A' for Active; 'I' for Inactive)
REMARK    1  A    between atoms: O1_2  and  N1_3 
REMARK    2  A    between atoms: C2_4  and  C3_5 
REMARK    3  A    between atoms: C6_8  and  O2_9 
REMARK    4  A    between atoms: N2_12  and  C9_13 
REMARK    5  A    between atoms: C9_13  and  C10_14 
ROOT
HETATM    1  N1  UNL     1      23.801   1.824  51.677  1.00  0.00    -0.169 N 
HETATM    2  C2  UNL     1      23.098   0.983  52.456  1.00  0.00     0.090 A 
HETATM    3  C8  UNL     1      23.945   0.553  53.457  1.00  0.00     0.129 A 
HETATM    4  N2  UNL     1      25.162   1.108  53.318  1.00  0.00    -0.301 N 
HETATM    5  C17 UNL     1      25.036   1.892  52.204  1.00  0.00     0.353 A 
HETATM    6  O3  UNL     1      25.936   2.623  51.673  1.00  0.00    -0.244 OA
ENDROOT
BRANCH   4   7
HETATM    7  C9  UNL     1      26.423   1.046  54.033  1.00  0.00     0.172 C 
BRANCH   7   8
HETATM    8  C10 UNL     1      27.273  -0.094  53.625  1.00  0.00    -0.034 A 
HETATM    9  C11 UNL     1      26.707  -1.199  53.027  1.00  0.00     0.009 A 
HETATM   10  C12 UNL     1      27.349  -2.341  52.598  1.00  0.00     0.001 A 
HETATM   11  C13 UNL     1      28.733  -2.367  52.801  1.00  0.00     0.001 A 
HETATM   12  C14 UNL     1      29.350  -1.271  53.404  1.00  0.00     0.007 A 
HETATM   13  C15 UNL     1      28.625  -0.167  53.802  1.00  0.00    -0.054 A 
HETATM   14  C16 UNL     1      29.339   0.969  54.430  1.00  0.00     0.049 C 
ENDBRANCH   7   8
ENDBRANCH   4   7
BRANCH   2  15
HETATM   15  C3  UNL     1      21.710   0.552  52.338  1.00  0.00    -0.021 A 
HETATM   16  C4  UNL     1      20.917   0.468  51.264  1.00  0.00     0.012 A 
HETATM   17  C5  UNL     1      19.625  -0.022  51.697  1.00  0.00     0.033 A 
HETATM   18  C6  UNL     1      19.578  -0.249  53.001  1.00  0.00     0.047 A 
HETATM   19  C7  UNL     1      20.918   0.101  53.526  1.00  0.00     0.105 A 
BRANCH  18  20
HETATM   20  O2  UNL     1      18.575  -0.711  53.840  1.00  0.00    -0.365 OA
HETATM   21  H6  UNL     1      18.613  -1.663  54.171  1.00  0.00     0.217 HD
ENDBRANCH  18  20
ENDBRANCH   2  15
BRANCH   1  22
HETATM   22  O1  UNL     1      23.324   2.474  50.568  1.00  0.00    -0.274 OA
HETATM   23  C1  UNL     1      22.730   3.775  50.663  1.00  0.00     0.238 C 
ENDBRANCH   1  22
TORSDOF 5
ENDMDL
MODEL 7
REMARK VINA RESULT:      -7.6      3.036      7.025
REMARK  5 active torsions:
REMARK  status: ('A' for Active; 'I' for Inactive)
REMARK    1  A    between atoms: O1_2  and  N1_3 
REMARK    2  A    between atoms: C2_4  and  C3_5 
REMARK    3  A    between atoms: C6_8  and  O2_9 
REMARK    4  A    between atoms: N2_12  and  C9_13 
REMARK    5  A    between atoms: C9_13  and  C10_14 
ROOT
HETATM    1  N1  UNL     1      22.560   0.792  52.344  1.00  0.00    -0.169 N 
HETATM    2  C2  UNL     1      23.445   1.800  52.250  1.00  0.00     0.090 A 
HETATM    3  C8  UNL     1      24.564   1.426  52.966  1.00  0.00     0.129 A 
HETATM    4  N2  UNL     1      24.396   0.205  53.504  1.00  0.00    -0.301 N 
HETATM    5  C17 UNL     1      23.141  -0.159  53.097  1.00  0.00     0.353 A 
HETATM    6  O3  UNL     1      22.534  -1.248  53.361  1.00  0.00    -0.244 OA
ENDROOT
BRANCH   4   7
HETATM    7  C9  UNL     1      25.188  -0.688  54.327  1.00  0.00     0.172 C 
BRANCH   7   8
HETATM    8  C10 UNL     1      26.646  -0.544  54.115  1.00  0.00    -0.034 A 
HETATM    9  C11 UNL     1      27.377   0.321  54.901  1.00  0.00     0.009 A 
HETATM   10  C12 UNL     1      28.729   0.578  54.829  1.00  0.00     0.001 A 
HETATM   11  C13 UNL     1      29.425  -0.125  53.840  1.00  0.00     0.001 A 
HETATM   12  C14 UNL     1      28.726  -1.011  53.020  1.00  0.00     0.007 A 
HETATM   13  C15 UNL     1      27.369  -1.206  53.165  1.00  0.00    -0.054 A 
HETATM   14  C16 UNL     1      26.685  -2.166  52.267  1.00  0.00     0.049 C 
ENDBRANCH   7   8
ENDBRANCH   4   7
BRANCH   2  15
HETATM   15  C3  UNL     1      23.326   3.075  51.553  1.00  0.00    -0.021 A 
HETATM   16  C4  UNL     1      23.457   3.368  50.255  1.00  0.00     0.012 A 
HETATM   17  C5  UNL     1      23.238   4.790  50.091  1.00  0.00     0.033 A 
HETATM   18  C6  UNL     1      22.975   5.400  51.236  1.00  0.00     0.047 A 
HETATM   19  C7  UNL     1      23.009   4.347  52.278  1.00  0.00     0.105 A 
BRANCH  18  20
HETATM   20  O2  UNL     1      22.705   6.722  51.560  1.00  0.00    -0.365 OA
HETATM   21  H6  UNL     1      23.456   7.394  51.539  1.00  0.00     0.217 HD
ENDBRANCH  18  20
ENDBRANCH   2  15
BRANCH   1  22
HETATM   22  O1  UNL     1      21.315   0.765  51.771  1.00  0.00    -0.274 OA
HETATM   23  C1  UNL     1      20.168   1.286  52.453  1.00  0.00     0.238 C 
ENDBRANCH   1  22
TORSDOF 5
ENDMDL
MODEL 8
REMARK VINA RESULT:      -7.3      1.825      2.556
REMARK  5 active torsions:
REMARK  status: ('A' for Active; 'I' for Inactive)
REMARK    1  A    between atoms: O1_2  and  N1_3 
REMARK    2  A    between atoms: C2_4  and  C3_5 
REMARK    3  A    between atoms: C6_8  and  O2_9 
REMARK    4  A    between atoms: N2_12  and  C9_13 
REMARK    5  A    between atoms: C9_13  and  C10_14 
ROOT
HETATM    1  N1  UNL     1      24.382   2.620  52.034  1.00  0.00    -0.169 N 
HETATM    2  C2  UNL     1      25.623   2.279  51.640  1.00  0.00     0.090 A 
HETATM    3  C8  UNL     1      25.929   3.059  50.543  1.00  0.00     0.129 A 
HETATM    4  N2  UNL     1      24.905   3.879  50.245  1.00  0.00    -0.301 N 
HETATM    5  C17 UNL     1      23.964   3.581  51.192  1.00  0.00     0.353 A 
HETATM    6  O3  UNL     1      22.810   4.107  51.319  1.00  0.00    -0.244 OA
ENDROOT
BRANCH   4   7
HETATM    7  C9  UNL     1      24.642   4.893  49.242  1.00  0.00     0.172 C 
BRANCH   7   8
HETATM    8  C10 UNL     1      25.613   6.010  49.267  1.00  0.00    -0.034 A 
HETATM    9  C11 UNL     1      26.760   5.946  48.505  1.00  0.00     0.009 A 
HETATM   10  C12 UNL     1      27.763   6.888  48.422  1.00  0.00     0.001 A 
HETATM   11  C13 UNL     1      27.583   8.033  49.206  1.00  0.00     0.001 A 
HETATM   12  C14 UNL     1      26.437   8.141  49.994  1.00  0.00     0.007 A 
HETATM   13  C15 UNL     1      25.483   7.146  50.015  1.00  0.00    -0.054 A 
HETATM   14  C16 UNL     1      24.284   7.322  50.867  1.00  0.00     0.049 C 
ENDBRANCH   7   8
ENDBRANCH   4   7
BRANCH   2  15
HETATM   15  C3  UNL     1      26.534   1.289  52.201  1.00  0.00    -0.021 A 
HETATM   16  C4  UNL     1      26.520  -0.046  52.120  1.00  0.00     0.012 A 
HETATM   17  C5  UNL     1      27.657  -0.553  52.860  1.00  0.00     0.033 A 
HETATM   18  C6  UNL     1      28.383   0.413  53.401  1.00  0.00     0.047 A 
HETATM   19  C7  UNL     1      27.722   1.683  53.023  1.00  0.00     0.105 A 
BRANCH  18  20
HETATM   20  O2  UNL     1      29.534   0.404  54.175  1.00  0.00    -0.365 OA
HETATM   21  H6  UNL     1      29.606  -0.250  54.939  1.00  0.00     0.217 HD
ENDBRANCH  18  20
ENDBRANCH   2  15
BRANCH   1  22
HETATM   22  O1  UNL     1      23.704   2.078  53.095  1.00  0.00    -0.274 OA
HETATM   23  C1  UNL     1      22.871   0.923  52.936  1.00  0.00     0.238 C 
ENDBRANCH   1  22
TORSDOF 5
ENDMDL
MODEL 9
REMARK VINA RESULT:      -7.3      3.982      6.796
REMARK  5 active torsions:
REMARK  status: ('A' for Active; 'I' for Inactive)
REMARK    1  A    between atoms: O1_2  and  N1_3 
REMARK    2  A    between atoms: C2_4  and  C3_5 
REMARK    3  A    between atoms: C6_8  and  O2_9 
REMARK    4  A    between atoms: N2_12  and  C9_13 
REMARK    5  A    between atoms: C9_13  and  C10_14 
ROOT
HETATM    1  N1  UNL     1      24.216   5.632  50.594  1.00  0.00    -0.169 N 
HETATM    2  C2  UNL     1      25.003   5.013  49.694  1.00  0.00     0.090 A 
HETATM    3  C8  UNL     1      24.408   3.804  49.399  1.00  0.00     0.129 A 
HETATM    4  N2  UNL     1      23.266   3.655  50.095  1.00  0.00    -0.301 N 
HETATM    5  C17 UNL     1      23.178   4.809  50.825  1.00  0.00     0.353 A 
HETATM    6  O3  UNL     1      22.256   5.131  51.643  1.00  0.00    -0.244 OA
ENDROOT
BRANCH   4   7
HETATM    7  C9  UNL     1      22.239   2.636  50.205  1.00  0.00     0.172 C 
BRANCH   7   8
HETATM    8  C10 UNL     1      22.545   1.601  51.217  1.00  0.00    -0.034 A 
HETATM    9  C11 UNL     1      23.731   1.650  51.919  1.00  0.00     0.009 A 
HETATM   10  C12 UNL     1      24.172   0.767  52.881  1.00  0.00     0.001 A 
HETATM   11  C13 UNL     1      23.307  -0.295  53.167  1.00  0.00     0.001 A 
HETATM   12  C14 UNL     1      22.095  -0.385  52.482  1.00  0.00     0.007 A 
HETATM   13  C15 UNL     1      21.736   0.547  51.532  1.00  0.00    -0.054 A 
HETATM   14  C16 UNL     1      20.433   0.400  50.842  1.00  0.00     0.049 C 
ENDBRANCH   7   8
ENDBRANCH   4   7
BRANCH   2  15
HETATM   15  C3  UNL     1      26.256   5.459  49.098  1.00  0.00    -0.021 A 
HETATM   16  C4  UNL     1      26.621   6.664  48.647  1.00  0.00     0.012 A 
HETATM   17  C5  UNL     1      27.978   6.566  48.152  1.00  0.00     0.033 A 
HETATM   18  C6  UNL     1      28.479   5.347  48.276  1.00  0.00     0.047 A 
HETATM   19  C7  UNL     1      27.412   4.527  48.897  1.00  0.00     0.105 A 
BRANCH  18  20
HETATM   20  O2  UNL     1      29.708   4.795  47.948  1.00  0.00    -0.365 OA
HETATM   21  H6  UNL     1      29.737   3.892  47.501  1.00  0.00     0.217 HD
ENDBRANCH  18  20
ENDBRANCH   2  15
BRANCH   1  22
HETATM   22  O1  UNL     1      24.451   6.864  51.147  1.00  0.00    -0.274 OA
HETATM   23  C1  UNL     1      23.864   8.052  50.601  1.00  0.00     0.238 C 
ENDBRANCH   1  22
TORSDOF 5
ENDMDL
