MODEL 1
REMARK VINA RESULT:     -10.9      0.000      0.000
REMARK  1 active torsions:
REMARK  status: ('A' for Active; 'I' for Inactive)
REMARK    1  A    between atoms: C19_24  and  C20_25 
ROOT
HETATM    1  O1  UNL     1      24.896  -0.604  54.492  1.00  0.00    -0.099 OA
HETATM    2  C1  UNL     1      24.756  -1.122  55.599  1.00  0.00     0.389 A 
HETATM    3  N1  UNL     1      26.178  -0.881  55.302  1.00  0.00     0.155 N 
HETATM    4  C2  UNL     1      26.448  -0.204  54.021  1.00  0.00     0.177 A 
HETATM    5  C3  UNL     1      26.667  -0.785  52.802  1.00  0.00     0.044 A 
HETATM    6  C4  UNL     1      26.695   0.114  51.763  1.00  0.00     0.040 A 
HETATM    7  C5  UNL     1      26.514   1.455  51.975  1.00  0.00     0.078 A 
HETATM    8  C6  UNL     1      26.298   2.069  53.186  1.00  0.00     0.040 A 
HETATM    9  C7  UNL     1      26.269   1.175  54.231  1.00  0.00     0.044 A 
HETATM   10  O2  UNL     1      26.529   2.366  50.898  1.00  0.00    -0.291 OA
HETATM   11  C8  UNL     1      25.325   3.066  50.679  1.00  0.00     0.182 A 
HETATM   12  N2  UNL     1      25.728   4.114  49.955  1.00  0.00    -0.217 NA
HETATM   13  C9  UNL     1      24.907   5.071  49.506  1.00  0.00     0.235 A 
HETATM   14  N3  UNL     1      23.580   5.002  49.787  1.00  0.00    -0.253 NA
HETATM   15  C10 UNL     1      23.194   3.922  50.527  1.00  0.00     0.134 A 
HETATM   16  C11 UNL     1      24.001   2.917  51.009  1.00  0.00     0.035 A 
HETATM   17  C12 UNL     1      23.297   1.900  51.768  1.00  0.00     0.018 C 
HETATM   18  C13 UNL     1      22.069   1.948  52.313  1.00  0.00     0.013 C 
HETATM   19  C14 UNL     1      21.677   0.710  53.023  1.00  0.00    -0.019 A 
HETATM   20  C15 UNL     1      22.490   0.247  54.033  1.00  0.00     0.042 A 
HETATM   21  C16 UNL     1      22.259  -0.938  54.751  1.00  0.00     0.036 A 
HETATM   22  C17 UNL     1      21.195  -1.696  54.480  1.00  0.00     0.030 A 
HETATM   23  C18 UNL     1      20.362  -1.246  53.468  1.00  0.00     0.019 A 
HETATM   24  C19 UNL     1      20.593  -0.089  52.766  1.00  0.00     0.058 A 
HETATM   25  N4  UNL     1      23.298  -1.284  55.717  1.00  0.00    -0.312 N 
HETATM   26  H1  UNL     1      26.699  -1.280  56.139  1.00  0.00     0.337 HD
HETATM   27  H13 UNL     1      23.193  -1.703  56.651  1.00  0.00     0.169 HD
ENDROOT
BRANCH  24  28
HETATM   28  C20 UNL     1      19.683   0.355  51.694  1.00  0.00     0.418 C 
HETATM   29  F1  UNL     1      20.332   0.384  50.483  1.00  0.00    -0.166 F 
HETATM   30  F2  UNL     1      19.115   1.546  52.062  1.00  0.00    -0.166 F 
HETATM   31  F3  UNL     1      18.646  -0.584  51.631  1.00  0.00    -0.166 F 
ENDBRANCH  24  28
TORSDOF 1
ENDMDL
MODEL 2
REMARK VINA RESULT:     -10.2      3.300      6.635
REMARK  1 active torsions:
REMARK  status: ('A' for Active; 'I' for Inactive)
REMARK    1  A    between atoms: C19_24  and  C20_25 
ROOT
HETATM    1  O1  UNL     1      24.003   3.586  49.610  1.00  0.00    -0.099 OA
HETATM    2  C1  UNL     1      24.789   4.531  49.569  1.00  0.00     0.389 A 
HETATM    3  N1  UNL     1      23.673   4.728  48.629  1.00  0.00     0.155 N 
HETATM    4  C2  UNL     1      22.641   3.675  48.648  1.00  0.00     0.177 A 
HETATM    5  C3  UNL     1      22.599   2.536  47.893  1.00  0.00     0.044 A 
HETATM    6  C4  UNL     1      21.615   1.658  48.278  1.00  0.00     0.040 A 
HETATM    7  C5  UNL     1      20.778   1.939  49.325  1.00  0.00     0.078 A 
HETATM    8  C6  UNL     1      20.790   3.076  50.098  1.00  0.00     0.040 A 
HETATM    9  C7  UNL     1      21.775   3.960  49.719  1.00  0.00     0.044 A 
HETATM   10  O2  UNL     1      19.781   1.023  49.720  1.00  0.00    -0.291 OA
HETATM   11  C8  UNL     1      19.915   0.507  51.026  1.00  0.00     0.182 A 
HETATM   12  N2  UNL     1      18.684   0.061  51.288  1.00  0.00    -0.217 NA
HETATM   13  C9  UNL     1      18.330  -0.523  52.439  1.00  0.00     0.235 A 
HETATM   14  N3  UNL     1      19.256  -0.686  53.420  1.00  0.00    -0.253 NA
HETATM   15  C10 UNL     1      20.506  -0.224  53.127  1.00  0.00     0.134 A 
HETATM   16  C11 UNL     1      20.913   0.382  51.961  1.00  0.00     0.035 A 
HETATM   17  C12 UNL     1      22.311   0.770  51.947  1.00  0.00     0.018 C 
HETATM   18  C13 UNL     1      23.165   0.899  52.977  1.00  0.00     0.013 C 
HETATM   19  C14 UNL     1      24.529   1.316  52.581  1.00  0.00    -0.019 A 
HETATM   20  C15 UNL     1      24.675   2.478  51.857  1.00  0.00     0.042 A 
HETATM   21  C16 UNL     1      25.905   2.959  51.378  1.00  0.00     0.036 A 
HETATM   22  C17 UNL     1      27.033   2.288  51.617  1.00  0.00     0.030 A 
HETATM   23  C18 UNL     1      26.907   1.116  52.347  1.00  0.00     0.019 A 
HETATM   24  C19 UNL     1      25.703   0.648  52.810  1.00  0.00     0.058 A 
HETATM   25  N4  UNL     1      25.817   4.163  50.557  1.00  0.00    -0.312 N 
HETATM   26  H1  UNL     1      23.898   5.640  48.132  1.00  0.00     0.337 HD
HETATM   27  H13 UNL     1      26.458   4.967  50.524  1.00  0.00     0.169 HD
ENDROOT
BRANCH  24  28
HETATM   28  C20 UNL     1      25.611  -0.606  53.582  1.00  0.00     0.418 C 
HETATM   29  F1  UNL     1      24.627  -1.420  53.075  1.00  0.00    -0.166 F 
HETATM   30  F2  UNL     1      25.465  -0.298  54.909  1.00  0.00    -0.166 F 
HETATM   31  F3  UNL     1      26.846  -1.251  53.451  1.00  0.00    -0.166 F 
ENDBRANCH  24  28
TORSDOF 1
ENDMDL
MODEL 3
REMARK VINA RESULT:     -10.1      3.618      5.544
REMARK  1 active torsions:
REMARK  status: ('A' for Active; 'I' for Inactive)
REMARK    1  A    between atoms: C19_24  and  C20_25 
ROOT
HETATM    1  O1  UNL     1      22.628   0.879  52.422  1.00  0.00    -0.099 OA
HETATM    2  C1  UNL     1      22.187  -0.234  52.702  1.00  0.00     0.389 A 
HETATM    3  N1  UNL     1      21.147   0.609  52.090  1.00  0.00     0.155 N 
HETATM    4  C2  UNL     1      21.595   1.946  51.659  1.00  0.00     0.177 A 
HETATM    5  C3  UNL     1      21.588   3.103  52.389  1.00  0.00     0.044 A 
HETATM    6  C4  UNL     1      22.249   4.141  51.779  1.00  0.00     0.040 A 
HETATM    7  C5  UNL     1      22.844   3.987  50.554  1.00  0.00     0.078 A 
HETATM    8  C6  UNL     1      22.861   2.842  49.793  1.00  0.00     0.040 A 
HETATM    9  C7  UNL     1      22.202   1.797  50.399  1.00  0.00     0.044 A 
HETATM   10  O2  UNL     1      23.531   5.057  49.945  1.00  0.00    -0.291 OA
HETATM   11  C8  UNL     1      24.911   4.848  49.733  1.00  0.00     0.182 A 
HETATM   12  N2  UNL     1      25.198   5.756  48.796  1.00  0.00    -0.217 NA
HETATM   13  C9  UNL     1      26.419   5.928  48.275  1.00  0.00     0.235 A 
HETATM   14  N3  UNL     1      27.447   5.150  48.703  1.00  0.00    -0.253 NA
HETATM   15  C10 UNL     1      27.127   4.232  49.661  1.00  0.00     0.134 A 
HETATM   16  C11 UNL     1      25.889   4.020  50.223  1.00  0.00     0.035 A 
HETATM   17  C12 UNL     1      25.861   2.966  51.220  1.00  0.00     0.018 C 
HETATM   18  C13 UNL     1      26.760   1.994  51.451  1.00  0.00     0.013 C 
HETATM   19  C14 UNL     1      26.395   1.088  52.563  1.00  0.00    -0.019 A 
HETATM   20  C15 UNL     1      25.182   0.438  52.509  1.00  0.00     0.042 A 
HETATM   21  C16 UNL     1      24.695  -0.409  53.518  1.00  0.00     0.036 A 
HETATM   22  C17 UNL     1      25.417  -0.635  54.617  1.00  0.00     0.030 A 
HETATM   23  C18 UNL     1      26.643   0.008  54.690  1.00  0.00     0.019 A 
HETATM   24  C19 UNL     1      27.113   0.837  53.703  1.00  0.00     0.058 A 
HETATM   25  N4  UNL     1      23.346  -0.921  53.294  1.00  0.00    -0.312 N 
HETATM   26  H1  UNL     1      20.269   0.010  52.108  1.00  0.00     0.337 HD
HETATM   27  H13 UNL     1      22.969  -1.854  53.510  1.00  0.00     0.169 HD
ENDROOT
BRANCH  24  28
HETATM   28  C20 UNL     1      28.423   1.506  53.820  1.00  0.00     0.418 C 
HETATM   29  F1  UNL     1      28.275   2.871  53.839  1.00  0.00    -0.166 F 
HETATM   30  F2  UNL     1      29.246   1.039  52.828  1.00  0.00    -0.166 F 
HETATM   31  F3  UNL     1      28.980   1.091  55.035  1.00  0.00    -0.166 F 
ENDBRANCH  24  28
TORSDOF 1
ENDMDL
MODEL 4
REMARK VINA RESULT:      -9.9      3.317      5.118
REMARK  1 active torsions:
REMARK  status: ('A' for Active; 'I' for Inactive)
REMARK    1  A    between atoms: C19_24  and  C20_25 
ROOT
HETATM    1  O1  UNL     1      20.679   1.170  52.262  1.00  0.00    -0.099 OA
HETATM    2  C1  UNL     1      19.875   0.249  52.404  1.00  0.00     0.389 A 
HETATM    3  N1  UNL     1      19.266   1.377  51.680  1.00  0.00     0.155 N 
HETATM    4  C2  UNL     1      20.170   2.508  51.403  1.00  0.00     0.177 A 
HETATM    5  C3  UNL     1      20.394   3.606  52.187  1.00  0.00     0.044 A 
HETATM    6  C4  UNL     1      21.436   4.388  51.751  1.00  0.00     0.040 A 
HETATM    7  C5  UNL     1      22.155   4.061  50.632  1.00  0.00     0.078 A 
HETATM    8  C6  UNL     1      21.950   2.970  49.821  1.00  0.00     0.040 A 
HETATM    9  C7  UNL     1      20.909   2.181  50.252  1.00  0.00     0.044 A 
HETATM   10  O2  UNL     1      23.232   4.864  50.203  1.00  0.00    -0.291 OA
HETATM   11  C8  UNL     1      24.495   4.236  50.206  1.00  0.00     0.182 A 
HETATM   12  N2  UNL     1      25.204   5.011  49.381  1.00  0.00    -0.217 NA
HETATM   13  C9  UNL     1      26.489   4.795  49.074  1.00  0.00     0.235 A 
HETATM   14  N3  UNL     1      27.139   3.734  49.618  1.00  0.00    -0.253 NA
HETATM   15  C10 UNL     1      26.393   2.959  50.458  1.00  0.00     0.134 A 
HETATM   16  C11 UNL     1      25.073   3.142  50.801  1.00  0.00     0.035 A 
HETATM   17  C12 UNL     1      24.552   2.147  51.719  1.00  0.00     0.018 C 
HETATM   18  C13 UNL     1      25.055   0.941  52.037  1.00  0.00     0.013 C 
HETATM   19  C14 UNL     1      24.244   0.191  53.022  1.00  0.00    -0.019 A 
HETATM   20  C15 UNL     1      22.919  -0.048  52.736  1.00  0.00     0.042 A 
HETATM   21  C16 UNL     1      22.031  -0.703  53.604  1.00  0.00     0.036 A 
HETATM   22  C17 UNL     1      22.448  -1.146  54.791  1.00  0.00     0.030 A 
HETATM   23  C18 UNL     1      23.781  -0.918  55.097  1.00  0.00     0.019 A 
HETATM   24  C19 UNL     1      24.645  -0.275  54.248  1.00  0.00     0.058 A 
HETATM   25  N4  UNL     1      20.649  -0.768  53.136  1.00  0.00    -0.312 N 
HETATM   26  H1  UNL     1      18.257   1.081  51.522  1.00  0.00     0.337 HD
HETATM   27  H13 UNL     1      19.972  -1.537  53.235  1.00  0.00     0.169 HD
ENDROOT
BRANCH  24  28
HETATM   28  C20 UNL     1      26.057  -0.049  54.612  1.00  0.00     0.418 C 
HETATM   29  F1  UNL     1      26.368   1.288  54.554  1.00  0.00    -0.166 F 
HETATM   30  F2  UNL     1      26.847  -0.850  53.830  1.00  0.00    -0.166 F 
HETATM   31  F3  UNL     1      26.209  -0.495  55.930  1.00  0.00    -0.166 F 
ENDBRANCH  24  28
TORSDOF 1
ENDMDL
MODEL 5
REMARK VINA RESULT:      -9.6      2.073      5.159
REMARK  1 active torsions:
REMARK  status: ('A' for Active; 'I' for Inactive)
REMARK    1  A    between atoms: C19_24  and  C20_25 
ROOT
HETATM    1  O1  UNL     1      22.058   2.887  49.526  1.00  0.00    -0.099 OA
HETATM    2  C1  UNL     1      21.486   2.873  48.437  1.00  0.00     0.389 A 
HETATM    3  N1  UNL     1      22.638   3.790  48.420  1.00  0.00     0.155 N 
HETATM    4  C2  UNL     1      23.429   3.830  49.663  1.00  0.00     0.177 A 
HETATM    5  C3  UNL     1      23.252   4.657  50.737  1.00  0.00     0.044 A 
HETATM    6  C4  UNL     1      24.024   4.321  51.823  1.00  0.00     0.040 A 
HETATM    7  C5  UNL     1      24.878   3.251  51.787  1.00  0.00     0.078 A 
HETATM    8  C6  UNL     1      25.084   2.406  50.722  1.00  0.00     0.040 A 
HETATM    9  C7  UNL     1      24.313   2.736  49.631  1.00  0.00     0.044 A 
HETATM   10  O2  UNL     1      25.655   2.908  52.912  1.00  0.00    -0.291 OA
HETATM   11  C8  UNL     1      25.389   1.639  53.469  1.00  0.00     0.182 A 
HETATM   12  N2  UNL     1      26.495   1.397  54.176  1.00  0.00    -0.217 NA
HETATM   13  C9  UNL     1      26.695   0.283  54.891  1.00  0.00     0.235 A 
HETATM   14  N3  UNL     1      25.734  -0.677  54.919  1.00  0.00    -0.253 NA
HETATM   15  C10 UNL     1      24.614  -0.405  54.189  1.00  0.00     0.134 A 
HETATM   16  C11 UNL     1      24.366   0.723  53.441  1.00  0.00     0.035 A 
HETATM   17  C12 UNL     1      23.079   0.724  52.771  1.00  0.00     0.018 C 
HETATM   18  C13 UNL     1      22.248  -0.305  52.531  1.00  0.00     0.013 C 
HETATM   19  C14 UNL     1      21.010   0.075  51.816  1.00  0.00    -0.019 A 
HETATM   20  C15 UNL     1      21.123   0.723  50.606  1.00  0.00     0.042 A 
HETATM   21  C16 UNL     1      20.030   1.180  49.852  1.00  0.00     0.036 A 
HETATM   22  C17 UNL     1      18.782   0.995  50.288  1.00  0.00     0.030 A 
HETATM   23  C18 UNL     1      18.647   0.341  51.503  1.00  0.00     0.019 A 
HETATM   24  C19 UNL     1      19.718  -0.101  52.239  1.00  0.00     0.058 A 
HETATM   25  N4  UNL     1      20.383   1.920  48.644  1.00  0.00    -0.312 N 
HETATM   26  H1  UNL     1      22.618   4.228  47.451  1.00  0.00     0.337 HD
HETATM   27  H13 UNL     1      19.923   1.906  47.724  1.00  0.00     0.169 HD
ENDROOT
BRANCH  24  28
HETATM   28  C20 UNL     1      19.531  -0.790  53.530  1.00  0.00     0.418 C 
HETATM   29  F1  UNL     1      20.284  -1.938  53.583  1.00  0.00    -0.166 F 
HETATM   30  F2  UNL     1      18.190  -0.981  53.738  1.00  0.00    -0.166 F 
HETATM   31  F3  UNL     1      19.973   0.090  54.524  1.00  0.00    -0.166 F 
ENDBRANCH  24  28
TORSDOF 1
ENDMDL
MODEL 6
REMARK VINA RESULT:      -9.3      3.819      6.101
REMARK  1 active torsions:
REMARK  status: ('A' for Active; 'I' for Inactive)
REMARK    1  A    between atoms: C19_24  and  C20_25 
ROOT
HETATM    1  O1  UNL     1      21.059   4.500  50.566  1.00  0.00    -0.099 OA
HETATM    2  C1  UNL     1      19.968   3.935  50.531  1.00  0.00     0.389 A 
HETATM    3  N1  UNL     1      19.872   5.306  50.003  1.00  0.00     0.155 N 
HETATM    4  C2  UNL     1      21.145   6.048  49.944  1.00  0.00     0.177 A 
HETATM    5  C3  UNL     1      21.689   6.848  50.912  1.00  0.00     0.044 A 
HETATM    6  C4  UNL     1      22.976   7.242  50.638  1.00  0.00     0.040 A 
HETATM    7  C5  UNL     1      23.615   6.848  49.492  1.00  0.00     0.078 A 
HETATM    8  C6  UNL     1      23.094   6.052  48.499  1.00  0.00     0.040 A 
HETATM    9  C7  UNL     1      21.805   5.652  48.767  1.00  0.00     0.044 A 
HETATM   10  O2  UNL     1      24.941   7.248  49.230  1.00  0.00    -0.291 OA
HETATM   11  C8  UNL     1      25.885   6.203  49.147  1.00  0.00     0.182 A 
HETATM   12  N2  UNL     1      26.892   6.776  48.482  1.00  0.00    -0.217 NA
HETATM   13  C9  UNL     1      28.030   6.147  48.166  1.00  0.00     0.235 A 
HETATM   14  N3  UNL     1      28.203   4.849  48.529  1.00  0.00    -0.253 NA
HETATM   15  C10 UNL     1      27.160   4.288  49.207  1.00  0.00     0.134 A 
HETATM   16  C11 UNL     1      25.974   4.894  49.552  1.00  0.00     0.035 A 
HETATM   17  C12 UNL     1      25.053   4.035  50.273  1.00  0.00     0.018 C 
HETATM   18  C13 UNL     1      25.055   2.696  50.385  1.00  0.00     0.013 C 
HETATM   19  C14 UNL     1      23.950   2.159  51.210  1.00  0.00    -0.019 A 
HETATM   20  C15 UNL     1      22.656   2.478  50.862  1.00  0.00     0.042 A 
HETATM   21  C16 UNL     1      21.523   2.075  51.586  1.00  0.00     0.036 A 
HETATM   22  C17 UNL     1      21.652   1.330  52.685  1.00  0.00     0.030 A 
HETATM   23  C18 UNL     1      22.946   0.994  53.051  1.00  0.00     0.019 A 
HETATM   24  C19 UNL     1      24.052   1.393  52.342  1.00  0.00     0.058 A 
HETATM   25  N4  UNL     1      20.255   2.603  51.088  1.00  0.00    -0.312 N 
HETATM   26  H1  UNL     1      18.841   5.436  49.778  1.00  0.00     0.337 HD
HETATM   27  H13 UNL     1      19.340   2.136  51.039  1.00  0.00     0.169 HD
ENDROOT
BRANCH  24  28
HETATM   28  C20 UNL     1      25.414   1.017  52.766  1.00  0.00     0.418 C 
HETATM   29  F1  UNL     1      26.120   2.122  53.177  1.00  0.00    -0.166 F 
HETATM   30  F2  UNL     1      26.009   0.307  51.757  1.00  0.00    -0.166 F 
HETATM   31  F3  UNL     1      25.272   0.140  53.848  1.00  0.00    -0.166 F 
ENDBRANCH  24  28
TORSDOF 1
ENDMDL
MODEL 7
REMARK VINA RESULT:      -9.0      3.366      5.931
REMARK  1 active torsions:
REMARK  status: ('A' for Active; 'I' for Inactive)
REMARK    1  A    between atoms: C19_24  and  C20_25 
ROOT
HETATM    1  O1  UNL     1      23.832   2.959  50.501  1.00  0.00    -0.099 OA
HETATM    2  C1  UNL     1      24.817   3.613  50.842  1.00  0.00     0.389 A 
HETATM    3  N1  UNL     1      24.286   4.086  49.552  1.00  0.00     0.155 N 
HETATM    4  C2  UNL     1      23.065   3.405  49.087  1.00  0.00     0.177 A 
HETATM    5  C3  UNL     1      22.980   2.291  48.298  1.00  0.00     0.044 A 
HETATM    6  C4  UNL     1      21.708   1.783  48.199  1.00  0.00     0.040 A 
HETATM    7  C5  UNL     1      20.653   2.370  48.846  1.00  0.00     0.078 A 
HETATM    8  C6  UNL     1      20.703   3.493  49.639  1.00  0.00     0.040 A 
HETATM    9  C7  UNL     1      21.976   4.006  49.744  1.00  0.00     0.044 A 
HETATM   10  O2  UNL     1      19.354   1.831  48.748  1.00  0.00    -0.291 OA
HETATM   11  C8  UNL     1      18.792   1.378  49.961  1.00  0.00     0.182 A 
HETATM   12  N2  UNL     1      17.486   1.350  49.680  1.00  0.00    -0.217 NA
HETATM   13  C9  UNL     1      16.544   0.973  50.553  1.00  0.00     0.235 A 
HETATM   14  N3  UNL     1      16.905   0.591  51.806  1.00  0.00    -0.253 NA
HETATM   15  C10 UNL     1      18.244   0.629  52.066  1.00  0.00     0.134 A 
HETATM   16  C11 UNL     1      19.245   1.009  51.203  1.00  0.00     0.035 A 
HETATM   17  C12 UNL     1      20.578   0.946  51.771  1.00  0.00     0.018 C 
HETATM   18  C13 UNL     1      20.947   0.868  53.062  1.00  0.00     0.013 C 
HETATM   19  C14 UNL     1      22.411   0.820  53.269  1.00  0.00    -0.019 A 
HETATM   20  C15 UNL     1      23.181   1.835  52.746  1.00  0.00     0.042 A 
HETATM   21  C16 UNL     1      24.582   1.885  52.829  1.00  0.00     0.036 A 
HETATM   22  C17 UNL     1      25.258   0.914  53.447  1.00  0.00     0.030 A 
HETATM   23  C18 UNL     1      24.501  -0.116  53.983  1.00  0.00     0.019 A 
HETATM   24  C19 UNL     1      23.132  -0.162  53.897  1.00  0.00     0.058 A 
HETATM   25  N4  UNL     1      25.201   3.006  52.127  1.00  0.00    -0.312 N 
HETATM   26  H1  UNL     1      24.958   4.853  49.251  1.00  0.00     0.337 HD
HETATM   27  H13 UNL     1      26.014   3.570  52.408  1.00  0.00     0.169 HD
ENDROOT
BRANCH  24  28
HETATM   28  C20 UNL     1      22.362  -1.278  54.478  1.00  0.00     0.418 C 
HETATM   29  F1  UNL     1      23.114  -1.959  55.405  1.00  0.00    -0.166 F 
HETATM   30  F2  UNL     1      21.877  -2.056  53.460  1.00  0.00    -0.166 F 
HETATM   31  F3  UNL     1      21.253  -0.713  55.118  1.00  0.00    -0.166 F 
ENDBRANCH  24  28
TORSDOF 1
ENDMDL
MODEL 8
REMARK VINA RESULT:      -9.0      3.461      6.731
REMARK  1 active torsions:
REMARK  status: ('A' for Active; 'I' for Inactive)
REMARK    1  A    between atoms: C19_24  and  C20_25 
ROOT
HETATM    1  O1  UNL     1      22.716   3.872  50.422  1.00  0.00    -0.099 OA
HETATM    2  C1  UNL     1      23.438   4.857  50.567  1.00  0.00     0.389 A 
HETATM    3  N1  UNL     1      22.371   5.122  49.589  1.00  0.00     0.155 N 
HETATM    4  C2  UNL     1      21.411   4.021  49.391  1.00  0.00     0.177 A 
HETATM    5  C3  UNL     1      21.488   3.001  48.484  1.00  0.00     0.044 A 
HETATM    6  C4  UNL     1      20.542   2.023  48.675  1.00  0.00     0.040 A 
HETATM    7  C5  UNL     1      19.628   2.103  49.692  1.00  0.00     0.078 A 
HETATM    8  C6  UNL     1      19.520   3.117  50.614  1.00  0.00     0.040 A 
HETATM    9  C7  UNL     1      20.465   4.100  50.429  1.00  0.00     0.044 A 
HETATM   10  O2  UNL     1      18.672   1.086  49.887  1.00  0.00    -0.291 OA
HETATM   11  C8  UNL     1      18.761   0.397  51.115  1.00  0.00     0.182 A 
HETATM   12  N2  UNL     1      17.548  -0.151  51.227  1.00  0.00    -0.217 NA
HETATM   13  C9  UNL     1      17.166  -0.912  52.259  1.00  0.00     0.235 A 
HETATM   14  N3  UNL     1      18.040  -1.162  53.268  1.00  0.00    -0.253 NA
HETATM   15  C10 UNL     1      19.272  -0.592  53.129  1.00  0.00     0.134 A 
HETATM   16  C11 UNL     1      19.708   0.197  52.089  1.00  0.00     0.035 A 
HETATM   17  C12 UNL     1      21.076   0.660  52.224  1.00  0.00     0.018 C 
HETATM   18  C13 UNL     1      21.856   0.689  53.318  1.00  0.00     0.013 C 
HETATM   19  C14 UNL     1      23.211   1.235  53.077  1.00  0.00    -0.019 A 
HETATM   20  C15 UNL     1      23.324   2.495  52.534  1.00  0.00     0.042 A 
HETATM   21  C16 UNL     1      24.546   3.108  52.212  1.00  0.00     0.036 A 
HETATM   22  C17 UNL     1      25.699   2.474  52.431  1.00  0.00     0.030 A 
HETATM   23  C18 UNL     1      25.607   1.205  52.981  1.00  0.00     0.019 A 
HETATM   24  C19 UNL     1      24.411   0.608  53.291  1.00  0.00     0.058 A 
HETATM   25  N4  UNL     1      24.428   4.410  51.561  1.00  0.00    -0.312 N 
HETATM   26  H1  UNL     1      22.564   6.108  49.240  1.00  0.00     0.337 HD
HETATM   27  H13 UNL     1      25.016   5.245  51.684  1.00  0.00     0.169 HD
ENDROOT
BRANCH  24  28
HETATM   28  C20 UNL     1      24.356  -0.747  53.873  1.00  0.00     0.418 C 
HETATM   29  F1  UNL     1      23.878  -0.706  55.161  1.00  0.00    -0.166 F 
HETATM   30  F2  UNL     1      25.587  -1.333  53.743  1.00  0.00    -0.166 F 
HETATM   31  F3  UNL     1      23.470  -1.489  53.083  1.00  0.00    -0.166 F 
ENDBRANCH  24  28
TORSDOF 1
ENDMDL
MODEL 9
REMARK VINA RESULT:      -8.9      3.372      6.633
REMARK  1 active torsions:
REMARK  status: ('A' for Active; 'I' for Inactive)
REMARK    1  A    between atoms: C19_24  and  C20_25 
ROOT
HETATM    1  O1  UNL     1      20.050   2.802  51.217  1.00  0.00    -0.099 OA
HETATM    2  C1  UNL     1      19.075   3.539  51.080  1.00  0.00     0.389 A 
HETATM    3  N1  UNL     1      18.682   2.242  51.655  1.00  0.00     0.155 N 
HETATM    4  C2  UNL     1      19.791   1.308  51.917  1.00  0.00     0.177 A 
HETATM    5  C3  UNL     1      20.305   0.365  51.069  1.00  0.00     0.044 A 
HETATM    6  C4  UNL     1      21.461  -0.216  51.529  1.00  0.00     0.040 A 
HETATM    7  C5  UNL     1      22.013   0.146  52.730  1.00  0.00     0.078 A 
HETATM    8  C6  UNL     1      21.518   1.083  53.607  1.00  0.00     0.040 A 
HETATM    9  C7  UNL     1      20.360   1.670  53.151  1.00  0.00     0.044 A 
HETATM   10  O2  UNL     1      23.208  -0.447  53.185  1.00  0.00    -0.291 OA
HETATM   11  C8  UNL     1      24.299   0.433  53.344  1.00  0.00     0.182 A 
HETATM   12  N2  UNL     1      25.103  -0.251  54.163  1.00  0.00    -0.217 NA
HETATM   13  C9  UNL     1      26.285   0.202  54.598  1.00  0.00     0.235 A 
HETATM   14  N3  UNL     1      26.721   1.426  54.201  1.00  0.00    -0.253 NA
HETATM   15  C10 UNL     1      25.882   2.103  53.364  1.00  0.00     0.134 A 
HETATM   16  C11 UNL     1      24.661   1.678  52.894  1.00  0.00     0.035 A 
HETATM   17  C12 UNL     1      23.997   2.624  52.017  1.00  0.00     0.018 C 
HETATM   18  C13 UNL     1      24.243   3.934  51.843  1.00  0.00     0.013 C 
HETATM   19  C14 UNL     1      23.356   4.588  50.855  1.00  0.00    -0.019 A 
HETATM   20  C15 UNL     1      21.994   4.509  51.042  1.00  0.00     0.042 A 
HETATM   21  C16 UNL     1      21.044   5.042  50.156  1.00  0.00     0.036 A 
HETATM   22  C17 UNL     1      21.434   5.679  49.050  1.00  0.00     0.030 A 
HETATM   23  C18 UNL     1      22.802   5.772  48.844  1.00  0.00     0.019 A 
HETATM   24  C19 UNL     1      23.726   5.247  49.711  1.00  0.00     0.058 A 
HETATM   25  N4  UNL     1      19.653   4.765  50.504  1.00  0.00    -0.312 N 
HETATM   26  H1  UNL     1      17.624   2.299  51.747  1.00  0.00     0.337 HD
HETATM   27  H13 UNL     1      18.832   5.378  50.409  1.00  0.00     0.169 HD
ENDROOT
BRANCH  24  28
HETATM   28  C20 UNL     1      25.174   5.364  49.455  1.00  0.00     0.418 C 
HETATM   29  F1  UNL     1      25.739   4.126  49.266  1.00  0.00    -0.166 F 
HETATM   30  F2  UNL     1      25.742   6.098  50.463  1.00  0.00    -0.166 F 
HETATM   31  F3  UNL     1      25.316   6.113  48.281  1.00  0.00    -0.166 F 
ENDBRANCH  24  28
TORSDOF 1
ENDMDL
