MODEL 1
REMARK VINA RESULT:      -8.0      0.000      0.000
REMARK  5 active torsions:
REMARK  status: ('A' for Active; 'I' for Inactive)
REMARK    1  A    between atoms: O1_2  and  C2_3 
REMARK    2  A    between atoms: C5_6  and  C6_7 
REMARK    3  A    between atoms: N1_14  and  N2_15 
REMARK    4  A    between atoms: N2_15  and  C13_16 
REMARK    5  A    between atoms: C14_18  and  O2_19 
ROOT
HETATM    1  C6  UNL     1      22.928   1.369  51.201  1.00  0.00     0.076 C 
HETATM    2  C7  UNL     1      21.706   0.563  50.848  1.00  0.00     0.043 C 
HETATM    3  C8  UNL     1      20.746   0.398  51.949  1.00  0.00    -0.026 C 
HETATM    4  C9  UNL     1      20.907   0.031  53.209  1.00  0.00    -0.004 C 
HETATM    5  C10 UNL     1      22.148  -0.329  53.892  1.00  0.00     0.002 C 
HETATM    6  C11 UNL     1      23.366  -0.003  53.468  1.00  0.00     0.029 C 
HETATM    7  C12 UNL     1      23.729   0.764  52.260  1.00  0.00     0.063 C 
HETATM    8  N1  UNL     1      25.012   0.876  52.156  1.00  0.00    -0.177 NA
ENDROOT
BRANCH   1   9
HETATM    9  C5  UNL     1      22.691   2.814  51.239  1.00  0.00    -0.048 A 
HETATM   10  C4  UNL     1      22.897   3.502  50.037  1.00  0.00     0.011 A 
HETATM   11  C3  UNL     1      22.789   4.875  49.898  1.00  0.00     0.037 A 
HETATM   12  C2  UNL     1      22.459   5.662  50.972  1.00  0.00     0.068 A 
HETATM   13  C17 UNL     1      22.245   4.991  52.184  1.00  0.00     0.037 A 
HETATM   14  C16 UNL     1      22.358   3.614  52.302  1.00  0.00     0.011 A 
BRANCH  12  15
HETATM   15  O1  UNL     1      22.329   7.050  50.951  1.00  0.00    -0.356 OA
HETATM   16  C1  UNL     1      23.411   7.817  50.465  1.00  0.00     0.210 C 
ENDBRANCH  12  15
ENDBRANCH   1   9
BRANCH   8  17
HETATM   17  N2  UNL     1      25.910   0.360  53.065  1.00  0.00    -0.255 N 
HETATM   18  H13 UNL     1      25.513   0.915  53.881  1.00  0.00     0.191 HD
BRANCH  17  19
HETATM   19  C13 UNL     1      26.991  -0.507  53.175  1.00  0.00     0.189 A 
HETATM   20  N3  UNL     1      27.314  -1.694  53.164  1.00  0.00    -0.198 NA
HETATM   21  C14 UNL     1      28.574  -2.073  53.341  1.00  0.00     0.171 A 
HETATM   22  C15 UNL     1      29.631  -1.042  53.555  1.00  0.00     0.111 A 
HETATM   23  S1  UNL     1      28.558   0.496  53.468  1.00  0.00    -0.058 SA
BRANCH  21  24
HETATM   24  O2  UNL     1      28.654  -3.482  53.281  1.00  0.00    -0.344 OA
HETATM   25  H14 UNL     1      28.772  -4.026  54.115  1.00  0.00     0.219 HD
ENDBRANCH  21  24
ENDBRANCH  17  19
ENDBRANCH   8  17
TORSDOF 5
ENDMDL
MODEL 2
REMARK VINA RESULT:      -7.9      2.853      7.006
REMARK  5 active torsions:
REMARK  status: ('A' for Active; 'I' for Inactive)
REMARK    1  A    between atoms: O1_2  and  C2_3 
REMARK    2  A    between atoms: C5_6  and  C6_7 
REMARK    3  A    between atoms: N1_14  and  N2_15 
REMARK    4  A    between atoms: N2_15  and  C13_16 
REMARK    5  A    between atoms: C14_18  and  O2_19 
ROOT
HETATM    1  C6  UNL     1      23.335   1.727  52.677  1.00  0.00     0.076 C 
HETATM    2  C7  UNL     1      22.039   0.975  52.828  1.00  0.00     0.043 C 
HETATM    3  C8  UNL     1      21.605   0.258  51.621  1.00  0.00    -0.026 C 
HETATM    4  C9  UNL     1      21.502   0.641  50.360  1.00  0.00    -0.004 C 
HETATM    5  C10 UNL     1      21.808   1.951  49.787  1.00  0.00     0.002 C 
HETATM    6  C11 UNL     1      22.580   2.866  50.364  1.00  0.00     0.029 C 
HETATM    7  C12 UNL     1      23.276   2.775  51.664  1.00  0.00     0.063 C 
HETATM    8  N1  UNL     1      23.925   3.864  51.913  1.00  0.00    -0.177 NA
ENDROOT
BRANCH   1   9
HETATM    9  C5  UNL     1      24.522   0.871  52.733  1.00  0.00    -0.048 A 
HETATM   10  C4  UNL     1      24.557  -0.063  53.775  1.00  0.00     0.011 A 
HETATM   11  C3  UNL     1      25.625  -0.907  54.028  1.00  0.00     0.037 A 
HETATM   12  C2  UNL     1      26.746  -0.871  53.238  1.00  0.00     0.068 A 
HETATM   13  C17 UNL     1      26.728   0.055  52.185  1.00  0.00     0.037 A 
HETATM   14  C16 UNL     1      25.648   0.891  51.949  1.00  0.00     0.011 A 
BRANCH  12  15
HETATM   15  O1  UNL     1      27.880  -1.667  53.401  1.00  0.00    -0.356 OA
HETATM   16  C1  UNL     1      29.144  -1.038  53.400  1.00  0.00     0.210 C 
ENDBRANCH  12  15
ENDBRANCH   1   9
BRANCH   8  17
HETATM   17  N2  UNL     1      23.969   4.950  51.067  1.00  0.00    -0.255 N 
HETATM   18  H13 UNL     1      22.976   4.808  50.716  1.00  0.00     0.191 HD
BRANCH  17  19
HETATM   19  C13 UNL     1      24.805   5.970  50.625  1.00  0.00     0.189 A 
HETATM   20  N3  UNL     1      25.092   7.155  50.786  1.00  0.00    -0.198 NA
HETATM   21  C14 UNL     1      26.030   7.748  50.057  1.00  0.00     0.171 A 
HETATM   22  C15 UNL     1      26.763   6.965  49.019  1.00  0.00     0.111 A 
HETATM   23  S1  UNL     1      25.912   5.308  49.252  1.00  0.00    -0.058 SA
BRANCH  21  24
HETATM   24  O2  UNL     1      26.148   9.099  50.452  1.00  0.00    -0.344 OA
HETATM   25  H14 UNL     1      26.084   9.839  49.778  1.00  0.00     0.219 HD
ENDBRANCH  21  24
ENDBRANCH  17  19
ENDBRANCH   8  17
TORSDOF 5
ENDMDL
MODEL 3
REMARK VINA RESULT:      -7.8      3.120      3.909
REMARK  5 active torsions:
REMARK  status: ('A' for Active; 'I' for Inactive)
REMARK    1  A    between atoms: O1_2  and  C2_3 
REMARK    2  A    between atoms: C5_6  and  C6_7 
REMARK    3  A    between atoms: N1_14  and  N2_15 
REMARK    4  A    between atoms: N2_15  and  C13_16 
REMARK    5  A    between atoms: C14_18  and  O2_19 
ROOT
HETATM    1  C6  UNL     1      24.934   3.229  50.063  1.00  0.00     0.076 C 
HETATM    2  C7  UNL     1      23.450   3.465  49.959  1.00  0.00     0.043 C 
HETATM    3  C8  UNL     1      22.908   4.391  50.964  1.00  0.00    -0.026 C 
HETATM    4  C9  UNL     1      23.059   4.452  52.276  1.00  0.00    -0.004 C 
HETATM    5  C10 UNL     1      23.848   3.571  53.136  1.00  0.00     0.002 C 
HETATM    6  C11 UNL     1      24.831   2.784  52.710  1.00  0.00     0.029 C 
HETATM    7  C12 UNL     1      25.332   2.624  51.330  1.00  0.00     0.063 C 
HETATM    8  N1  UNL     1      26.290   1.760  51.287  1.00  0.00    -0.177 NA
ENDROOT
BRANCH   1   9
HETATM    9  C5  UNL     1      25.744   4.323  49.523  1.00  0.00    -0.048 A 
HETATM   10  C4  UNL     1      27.028   3.977  49.085  1.00  0.00     0.011 A 
HETATM   11  C3  UNL     1      27.958   4.886  48.609  1.00  0.00     0.037 A 
HETATM   12  C2  UNL     1      27.657   6.222  48.537  1.00  0.00     0.068 A 
HETATM   13  C17 UNL     1      26.374   6.587  48.968  1.00  0.00     0.037 A 
HETATM   14  C16 UNL     1      25.456   5.662  49.441  1.00  0.00     0.011 A 
BRANCH  12  15
HETATM   15  O1  UNL     1      28.514   7.224  48.083  1.00  0.00    -0.356 OA
HETATM   16  C1  UNL     1      29.905   7.040  48.246  1.00  0.00     0.210 C 
ENDBRANCH  12  15
ENDBRANCH   1   9
BRANCH   8  17
HETATM   17  N2  UNL     1      26.783   1.094  52.389  1.00  0.00    -0.255 N 
HETATM   18  H13 UNL     1      26.281   1.724  53.083  1.00  0.00     0.191 HD
BRANCH  17  19
HETATM   19  C13 UNL     1      27.609   0.040  52.761  1.00  0.00     0.189 A 
HETATM   20  N3  UNL     1      27.703  -1.186  52.778  1.00  0.00    -0.198 NA
HETATM   21  C14 UNL     1      28.765  -1.795  53.294  1.00  0.00     0.171 A 
HETATM   22  C15 UNL     1      29.877  -0.980  53.865  1.00  0.00     0.111 A 
HETATM   23  S1  UNL     1      29.170   0.732  53.555  1.00  0.00    -0.058 SA
BRANCH  21  24
HETATM   24  O2  UNL     1      28.606  -3.194  53.181  1.00  0.00    -0.344 OA
HETATM   25  H14 UNL     1      29.139  -3.820  53.755  1.00  0.00     0.219 HD
ENDBRANCH  21  24
ENDBRANCH  17  19
ENDBRANCH   8  17
TORSDOF 5
ENDMDL
MODEL 4
REMARK VINA RESULT:      -7.6      2.255      4.180
REMARK  5 active torsions:
REMARK  status: ('A' for Active; 'I' for Inactive)
REMARK    1  A    between atoms: O1_2  and  C2_3 
REMARK    2  A    between atoms: C5_6  and  C6_7 
REMARK    3  A    between atoms: N1_14  and  N2_15 
REMARK    4  A    between atoms: N2_15  and  C13_16 
REMARK    5  A    between atoms: C14_18  and  O2_19 
ROOT
HETATM    1  C6  UNL     1      23.530   2.477  52.395  1.00  0.00     0.076 C 
HETATM    2  C7  UNL     1      23.487   3.974  52.547  1.00  0.00     0.043 C 
HETATM    3  C8  UNL     1      23.714   4.721  51.301  1.00  0.00    -0.026 C 
HETATM    4  C9  UNL     1      24.644   4.612  50.368  1.00  0.00    -0.004 C 
HETATM    5  C10 UNL     1      25.760   3.670  50.312  1.00  0.00     0.002 C 
HETATM    6  C11 UNL     1      25.824   2.533  50.998  1.00  0.00     0.029 C 
HETATM    7  C12 UNL     1      24.824   1.983  51.936  1.00  0.00     0.063 C 
HETATM    8  N1  UNL     1      25.229   0.862  52.432  1.00  0.00    -0.177 NA
ENDROOT
BRANCH   1   9
HETATM    9  C5  UNL     1      22.315   1.908  51.808  1.00  0.00    -0.048 A 
HETATM   10  C4  UNL     1      21.179   1.909  52.627  1.00  0.00     0.011 A 
HETATM   11  C3  UNL     1      19.962   1.354  52.269  1.00  0.00     0.037 A 
HETATM   12  C2  UNL     1      19.800   0.754  51.047  1.00  0.00     0.068 A 
HETATM   13  C17 UNL     1      20.925   0.747  50.210  1.00  0.00     0.037 A 
HETATM   14  C16 UNL     1      22.135   1.309  50.587  1.00  0.00     0.011 A 
BRANCH  12  15
HETATM   15  O1  UNL     1      18.627   0.158  50.584  1.00  0.00    -0.356 OA
HETATM   16  C1  UNL     1      17.598   0.995  50.097  1.00  0.00     0.210 C 
ENDBRANCH  12  15
ENDBRANCH   1   9
BRANCH   8  17
HETATM   17  N2  UNL     1      26.426   0.260  52.110  1.00  0.00    -0.255 N 
HETATM   18  H13 UNL     1      26.445   0.659  51.125  1.00  0.00     0.191 HD
BRANCH  17  19
HETATM   19  C13 UNL     1      27.412  -0.577  52.622  1.00  0.00     0.189 A 
HETATM   20  N3  UNL     1      27.716  -1.754  52.803  1.00  0.00    -0.198 NA
HETATM   21  C14 UNL     1      28.853  -2.096  53.398  1.00  0.00     0.171 A 
HETATM   22  C15 UNL     1      29.793  -1.032  53.858  1.00  0.00     0.111 A 
HETATM   23  S1  UNL     1      28.810   0.475  53.321  1.00  0.00    -0.058 SA
BRANCH  21  24
HETATM   24  O2  UNL     1      28.940  -3.504  53.472  1.00  0.00    -0.344 OA
HETATM   25  H14 UNL     1      29.447  -4.024  52.780  1.00  0.00     0.219 HD
ENDBRANCH  21  24
ENDBRANCH  17  19
ENDBRANCH   8  17
TORSDOF 5
ENDMDL
MODEL 5
REMARK VINA RESULT:      -7.5      3.368      4.534
REMARK  5 active torsions:
REMARK  status: ('A' for Active; 'I' for Inactive)
REMARK    1  A    between atoms: O1_2  and  C2_3 
REMARK    2  A    between atoms: C5_6  and  C6_7 
REMARK    3  A    between atoms: N1_14  and  N2_15 
REMARK    4  A    between atoms: N2_15  and  C13_16 
REMARK    5  A    between atoms: C14_18  and  O2_19 
ROOT
HETATM    1  C6  UNL     1      25.048   4.263  49.502  1.00  0.00     0.076 C 
HETATM    2  C7  UNL     1      23.588   4.407  49.159  1.00  0.00     0.043 C 
HETATM    3  C8  UNL     1      22.777   5.045  50.205  1.00  0.00    -0.026 C 
HETATM    4  C9  UNL     1      22.686   4.825  51.505  1.00  0.00    -0.004 C 
HETATM    5  C10 UNL     1      23.406   3.835  52.305  1.00  0.00     0.002 C 
HETATM    6  C11 UNL     1      24.533   3.237  51.931  1.00  0.00     0.029 C 
HETATM    7  C12 UNL     1      25.283   3.423  50.672  1.00  0.00     0.063 C 
HETATM    8  N1  UNL     1      26.326   2.662  50.643  1.00  0.00    -0.177 NA
ENDROOT
BRANCH   1   9
HETATM    9  C5  UNL     1      25.811   5.505  49.365  1.00  0.00    -0.048 A 
HETATM   10  C4  UNL     1      26.956   5.438  48.562  1.00  0.00     0.011 A 
HETATM   11  C3  UNL     1      27.836   6.489  48.372  1.00  0.00     0.037 A 
HETATM   12  C2  UNL     1      27.621   7.699  48.982  1.00  0.00     0.068 A 
HETATM   13  C17 UNL     1      26.477   7.788  49.788  1.00  0.00     0.037 A 
HETATM   14  C16 UNL     1      25.608   6.722  49.965  1.00  0.00     0.011 A 
BRANCH  12  15
HETATM   15  O1  UNL     1      28.440   8.822  48.869  1.00  0.00    -0.356 OA
HETATM   16  C1  UNL     1      27.991  10.038  49.429  1.00  0.00     0.210 C 
ENDBRANCH  12  15
ENDBRANCH   1   9
BRANCH   8  17
HETATM   17  N2  UNL     1      26.689   1.807  51.661  1.00  0.00    -0.255 N 
HETATM   18  H13 UNL     1      25.904   1.119  51.460  1.00  0.00     0.191 HD
BRANCH  17  19
HETATM   19  C13 UNL     1      27.614   1.645  52.687  1.00  0.00     0.189 A 
HETATM   20  N3  UNL     1      28.459   2.232  53.361  1.00  0.00    -0.198 NA
HETATM   21  C14 UNL     1      29.162   1.603  54.295  1.00  0.00     0.171 A 
HETATM   22  C15 UNL     1      28.925   0.152  54.544  1.00  0.00     0.111 A 
HETATM   23  S1  UNL     1      27.585  -0.147  53.264  1.00  0.00    -0.058 SA
BRANCH  21  24
HETATM   24  O2  UNL     1      30.052   2.515  54.905  1.00  0.00    -0.344 OA
HETATM   25  H14 UNL     1      29.947   2.767  55.870  1.00  0.00     0.219 HD
ENDBRANCH  21  24
ENDBRANCH  17  19
ENDBRANCH   8  17
TORSDOF 5
ENDMDL
MODEL 6
REMARK VINA RESULT:      -7.5      4.094      7.270
REMARK  5 active torsions:
REMARK  status: ('A' for Active; 'I' for Inactive)
REMARK    1  A    between atoms: O1_2  and  C2_3 
REMARK    2  A    between atoms: C5_6  and  C6_7 
REMARK    3  A    between atoms: N1_14  and  N2_15 
REMARK    4  A    between atoms: N2_15  and  C13_16 
REMARK    5  A    between atoms: C14_18  and  O2_19 
ROOT
HETATM    1  C6  UNL     1      23.713   1.753  51.203  1.00  0.00     0.076 C 
HETATM    2  C7  UNL     1      24.237   2.962  50.474  1.00  0.00     0.043 C 
HETATM    3  C8  UNL     1      24.266   4.193  51.277  1.00  0.00    -0.026 C 
HETATM    4  C9  UNL     1      23.353   4.765  52.043  1.00  0.00    -0.004 C 
HETATM    5  C10 UNL     1      21.992   4.308  52.320  1.00  0.00     0.002 C 
HETATM    6  C11 UNL     1      21.563   3.062  52.142  1.00  0.00     0.029 C 
HETATM    7  C12 UNL     1      22.330   1.902  51.643  1.00  0.00     0.063 C 
HETATM    8  N1  UNL     1      21.583   0.850  51.586  1.00  0.00    -0.177 NA
ENDROOT
BRANCH   1   9
HETATM    9  C5  UNL     1      24.681   1.155  52.124  1.00  0.00    -0.048 A 
HETATM   10  C4  UNL     1      26.013   1.140  51.691  1.00  0.00     0.011 A 
HETATM   11  C3  UNL     1      27.053   0.556  52.394  1.00  0.00     0.037 A 
HETATM   12  C2  UNL     1      26.825  -0.058  53.599  1.00  0.00     0.068 A 
HETATM   13  C17 UNL     1      25.498  -0.050  54.052  1.00  0.00     0.037 A 
HETATM   14  C16 UNL     1      24.470   0.540  53.333  1.00  0.00     0.011 A 
BRANCH  12  15
HETATM   15  O1  UNL     1      27.790  -0.682  54.388  1.00  0.00    -0.356 OA
HETATM   16  C1  UNL     1      29.120  -0.718  53.915  1.00  0.00     0.210 C 
ENDBRANCH  12  15
ENDBRANCH   1   9
BRANCH   8  17
HETATM   17  N2  UNL     1      20.257   0.820  51.958  1.00  0.00    -0.255 N 
HETATM   18  H13 UNL     1      20.123   1.867  51.830  1.00  0.00     0.191 HD
BRANCH  17  19
HETATM   19  C13 UNL     1      19.251  -0.039  52.386  1.00  0.00     0.189 A 
HETATM   20  N3  UNL     1      18.988  -0.933  53.189  1.00  0.00    -0.198 NA
HETATM   21  C14 UNL     1      17.793  -1.514  53.215  1.00  0.00     0.171 A 
HETATM   22  C15 UNL     1      16.738  -1.073  52.256  1.00  0.00     0.111 A 
HETATM   23  S1  UNL     1      17.708   0.251  51.346  1.00  0.00    -0.058 SA
BRANCH  21  24
HETATM   24  O2  UNL     1      17.772  -2.498  54.228  1.00  0.00    -0.344 OA
HETATM   25  H14 UNL     1      18.610  -2.984  54.489  1.00  0.00     0.219 HD
ENDBRANCH  21  24
ENDBRANCH  17  19
ENDBRANCH   8  17
TORSDOF 5
ENDMDL
MODEL 7
REMARK VINA RESULT:      -7.0      3.927      7.513
REMARK  5 active torsions:
REMARK  status: ('A' for Active; 'I' for Inactive)
REMARK    1  A    between atoms: O1_2  and  C2_3 
REMARK    2  A    between atoms: C5_6  and  C6_7 
REMARK    3  A    between atoms: N1_14  and  N2_15 
REMARK    4  A    between atoms: N2_15  and  C13_16 
REMARK    5  A    between atoms: C14_18  and  O2_19 
ROOT
HETATM    1  C6  UNL     1      23.829   3.552  51.657  1.00  0.00     0.076 C 
HETATM    2  C7  UNL     1      22.517   2.844  51.443  1.00  0.00     0.043 C 
HETATM    3  C8  UNL     1      22.420   2.110  50.173  1.00  0.00    -0.026 C 
HETATM    4  C9  UNL     1      22.695   2.464  48.929  1.00  0.00    -0.004 C 
HETATM    5  C10 UNL     1      23.199   3.749  48.447  1.00  0.00     0.002 C 
HETATM    6  C11 UNL     1      23.808   4.654  49.207  1.00  0.00     0.029 C 
HETATM    7  C12 UNL     1      24.100   4.575  50.653  1.00  0.00     0.063 C 
HETATM    8  N1  UNL     1      24.690   5.649  51.061  1.00  0.00    -0.177 NA
ENDROOT
BRANCH   1   9
HETATM    9  C5  UNL     1      24.919   2.662  52.063  1.00  0.00    -0.048 A 
HETATM   10  C4  UNL     1      25.063   2.457  53.441  1.00  0.00     0.011 A 
HETATM   11  C3  UNL     1      26.075   1.706  54.014  1.00  0.00     0.037 A 
HETATM   12  C2  UNL     1      27.023   1.098  53.231  1.00  0.00     0.068 A 
HETATM   13  C17 UNL     1      26.893   1.288  51.848  1.00  0.00     0.037 A 
HETATM   14  C16 UNL     1      25.872   2.044  51.294  1.00  0.00     0.011 A 
BRANCH  12  15
HETATM   15  O1  UNL     1      28.086   0.326  53.697  1.00  0.00    -0.356 OA
HETATM   16  C1  UNL     1      28.228  -0.988  53.199  1.00  0.00     0.210 C 
ENDBRANCH  12  15
ENDBRANCH   1   9
BRANCH   8  17
HETATM   17  N2  UNL     1      25.014   6.712  50.246  1.00  0.00    -0.255 N 
HETATM   18  H13 UNL     1      24.064   6.727  49.768  1.00  0.00     0.191 HD
BRANCH  17  19
HETATM   19  C13 UNL     1      26.050   7.585  49.932  1.00  0.00     0.189 A 
HETATM   20  N3  UNL     1      26.531   8.686  50.196  1.00  0.00    -0.198 NA
HETATM   21  C14 UNL     1      27.613   9.139  49.572  1.00  0.00     0.171 A 
HETATM   22  C15 UNL     1      28.269   8.297  48.529  1.00  0.00     0.111 A 
HETATM   23  S1  UNL     1      27.119   6.814  48.588  1.00  0.00    -0.058 SA
BRANCH  21  24
HETATM   24  O2  UNL     1      27.941  10.419  50.070  1.00  0.00    -0.344 OA
HETATM   25  H14 UNL     1      28.153  11.174  49.445  1.00  0.00     0.219 HD
ENDBRANCH  21  24
ENDBRANCH  17  19
ENDBRANCH   8  17
TORSDOF 5
ENDMDL
MODEL 8
REMARK VINA RESULT:      -6.9      3.936      7.889
REMARK  5 active torsions:
REMARK  status: ('A' for Active; 'I' for Inactive)
REMARK    1  A    between atoms: O1_2  and  C2_3 
REMARK    2  A    between atoms: C5_6  and  C6_7 
REMARK    3  A    between atoms: N1_14  and  N2_15 
REMARK    4  A    between atoms: N2_15  and  C13_16 
REMARK    5  A    between atoms: C14_18  and  O2_19 
ROOT
HETATM    1  C6  UNL     1      24.506   2.784  50.568  1.00  0.00     0.076 C 
HETATM    2  C7  UNL     1      25.251   3.443  49.437  1.00  0.00     0.043 C 
HETATM    3  C8  UNL     1      25.796   4.770  49.757  1.00  0.00    -0.026 C 
HETATM    4  C9  UNL     1      25.249   5.833  50.322  1.00  0.00    -0.004 C 
HETATM    5  C10 UNL     1      23.881   5.991  50.811  1.00  0.00     0.002 C 
HETATM    6  C11 UNL     1      23.062   4.985  51.101  1.00  0.00     0.029 C 
HETATM    7  C12 UNL     1      23.333   3.537  51.000  1.00  0.00     0.063 C 
HETATM    8  N1  UNL     1      22.297   2.850  51.351  1.00  0.00    -0.177 NA
ENDROOT
BRANCH   1   9
HETATM    9  C5  UNL     1      25.380   2.201  51.589  1.00  0.00    -0.048 A 
HETATM   10  C4  UNL     1      25.101   2.561  52.913  1.00  0.00     0.011 A 
HETATM   11  C3  UNL     1      25.859   2.165  54.002  1.00  0.00     0.037 A 
HETATM   12  C2  UNL     1      26.962   1.368  53.834  1.00  0.00     0.068 A 
HETATM   13  C17 UNL     1      27.255   0.994  52.514  1.00  0.00     0.037 A 
HETATM   14  C16 UNL     1      26.484   1.401  51.437  1.00  0.00     0.011 A 
BRANCH  12  15
HETATM   15  O1  UNL     1      27.800   0.915  54.852  1.00  0.00    -0.356 OA
HETATM   16  C1  UNL     1      28.772  -0.060  54.536  1.00  0.00     0.210 C 
ENDBRANCH  12  15
ENDBRANCH   1   9
BRANCH   8  17
HETATM   17  N2  UNL     1      21.110   3.404  51.778  1.00  0.00    -0.255 N 
HETATM   18  H13 UNL     1      21.585   4.110  52.415  1.00  0.00     0.191 HD
BRANCH  17  19
HETATM   19  C13 UNL     1      19.730   3.297  51.639  1.00  0.00     0.189 A 
HETATM   20  N3  UNL     1      18.656   3.713  52.069  1.00  0.00    -0.198 NA
HETATM   21  C14 UNL     1      17.498   3.267  51.596  1.00  0.00     0.171 A 
HETATM   22  C15 UNL     1      17.490   2.241  50.513  1.00  0.00     0.111 A 
HETATM   23  S1  UNL     1      19.344   2.028  50.302  1.00  0.00    -0.058 SA
BRANCH  21  24
HETATM   24  O2  UNL     1      16.437   3.913  52.268  1.00  0.00    -0.344 OA
HETATM   25  H14 UNL     1      16.086   4.796  51.945  1.00  0.00     0.219 HD
ENDBRANCH  21  24
ENDBRANCH  17  19
ENDBRANCH   8  17
TORSDOF 5
ENDMDL
MODEL 9
REMARK VINA RESULT:      -6.8      3.982      5.941
REMARK  5 active torsions:
REMARK  status: ('A' for Active; 'I' for Inactive)
REMARK    1  A    between atoms: O1_2  and  C2_3 
REMARK    2  A    between atoms: C5_6  and  C6_7 
REMARK    3  A    between atoms: N1_14  and  N2_15 
REMARK    4  A    between atoms: N2_15  and  C13_16 
REMARK    5  A    between atoms: C14_18  and  O2_19 
ROOT
HETATM    1  C6  UNL     1      23.814   4.673  50.008  1.00  0.00     0.076 C 
HETATM    2  C7  UNL     1      25.061   5.511  49.901  1.00  0.00     0.043 C 
HETATM    3  C8  UNL     1      26.214   4.815  49.314  1.00  0.00    -0.026 C 
HETATM    4  C9  UNL     1      26.752   3.635  49.567  1.00  0.00    -0.004 C 
HETATM    5  C10 UNL     1      26.326   2.642  50.552  1.00  0.00     0.002 C 
HETATM    6  C11 UNL     1      25.118   2.598  51.106  1.00  0.00     0.029 C 
HETATM    7  C12 UNL     1      23.977   3.505  50.866  1.00  0.00     0.063 C 
HETATM    8  N1  UNL     1      22.964   3.170  51.594  1.00  0.00    -0.177 NA
ENDROOT
BRANCH   1   9
HETATM    9  C5  UNL     1      23.099   4.516  48.739  1.00  0.00    -0.048 A 
HETATM   10  C4  UNL     1      22.825   3.200  48.347  1.00  0.00     0.011 A 
HETATM   11  C3  UNL     1      22.221   2.854  47.151  1.00  0.00     0.037 A 
HETATM   12  C2  UNL     1      21.844   3.821  46.253  1.00  0.00     0.068 A 
HETATM   13  C17 UNL     1      22.107   5.145  46.629  1.00  0.00     0.037 A 
HETATM   14  C16 UNL     1      22.712   5.471  47.833  1.00  0.00     0.011 A 
BRANCH  12  15
HETATM   15  O1  UNL     1      21.237   3.590  45.019  1.00  0.00    -0.356 OA
HETATM   16  C1  UNL     1      19.863   3.890  44.883  1.00  0.00     0.210 C 
ENDBRANCH  12  15
ENDBRANCH   1   9
BRANCH   8  17
HETATM   17  N2  UNL     1      22.954   2.099  52.460  1.00  0.00    -0.255 N 
HETATM   18  H13 UNL     1      23.992   2.171  52.676  1.00  0.00     0.191 HD
BRANCH  17  19
HETATM   19  C13 UNL     1      22.118   1.131  53.007  1.00  0.00     0.189 A 
HETATM   20  N3  UNL     1      22.061   0.227  53.839  1.00  0.00    -0.198 NA
HETATM   21  C14 UNL     1      20.959  -0.494  54.007  1.00  0.00     0.171 A 
HETATM   22  C15 UNL     1      19.754  -0.204  53.175  1.00  0.00     0.111 A 
HETATM   23  S1  UNL     1      20.442   1.211  52.152  1.00  0.00    -0.058 SA
BRANCH  21  24
HETATM   24  O2  UNL     1      21.176  -1.455  55.019  1.00  0.00    -0.344 OA
HETATM   25  H14 UNL     1      22.098  -1.802  55.209  1.00  0.00     0.219 HD
ENDBRANCH  21  24
ENDBRANCH  17  19
ENDBRANCH   8  17
TORSDOF 5
ENDMDL
