MODEL 1
REMARK VINA RESULT:      -8.1      0.000      0.000
REMARK  2 active torsions:
REMARK  status: ('A' for Active; 'I' for Inactive)
REMARK    1  A    between atoms: C5_5  and  N1_6 
REMARK    2  A    between atoms: N2_8  and  C7_9 
ROOT
HETATM    1  C7  UNL     1      23.682   3.955  50.672  1.00  0.00     0.373 C 
HETATM    2  N3  UNL     1      23.130   3.597  49.322  1.00  0.00     0.152 N 
HETATM    3  C8  UNL     1      23.306   4.840  48.591  1.00  0.00     0.276 C 
HETATM    4  C9  UNL     1      21.921   5.429  48.569  1.00  0.00     0.008 C 
HETATM    5  C10 UNL     1      21.129   5.435  49.683  1.00  0.00    -0.007 C 
HETATM    6  C11 UNL     1      21.485   4.586  50.899  1.00  0.00     0.182 C 
HETATM    7  N4  UNL     1      22.934   4.942  51.081  1.00  0.00    -0.224 N 
HETATM    8  O1  UNL     1      22.808   6.186  51.426  1.00  0.00    -0.245 OA
HETATM    9  C12 UNL     1      22.711   7.334  50.584  1.00  0.00     0.209 C 
HETATM   10  C13 UNL     1      22.947   8.056  49.527  1.00  0.00     0.140 C 
HETATM   11  F1  UNL     1      22.291   9.273  49.627  1.00  0.00    -0.204 F 
HETATM   12  C14 UNL     1      23.694   7.911  48.293  1.00  0.00     0.042 C 
HETATM   13  C15 UNL     1      24.415   6.801  47.924  1.00  0.00     0.004 C 
HETATM   14  C16 UNL     1      24.411   5.695  48.853  1.00  0.00     0.150 C 
HETATM   15  N5  UNL     1      25.488   4.845  49.228  1.00  0.00    -0.327 N 
HETATM   16  C17 UNL     1      26.782   4.669  48.916  1.00  0.00     0.210 A 
HETATM   17  N6  UNL     1      27.236   3.650  49.707  1.00  0.00    -0.254 NA
HETATM   18  C18 UNL     1      26.233   3.219  50.485  1.00  0.00     0.149 A 
HETATM   19  C19 UNL     1      25.103   3.958  50.204  1.00  0.00     0.114 A 
HETATM   20  H12 UNL     1      23.626   2.810  48.901  1.00  0.00     0.323 HD
ENDROOT
BRANCH   1  21
HETATM   21  N2  UNL     1      23.485   2.864  51.605  1.00  0.00    -0.346 N 
HETATM   22  C2  UNL     1      23.345   1.562  51.196  1.00  0.00     0.083 C 
HETATM   23  C1  UNL     1      21.968   1.074  50.776  1.00  0.00     0.032 C 
HETATM   24  C3  UNL     1      23.704   0.643  52.353  1.00  0.00     0.054 C 
HETATM   25  C4  UNL     1      24.890   1.023  53.103  1.00  0.00     0.001 C 
HETATM   26  C5  UNL     1      25.117   2.294  53.364  1.00  0.00     0.017 C 
HETATM   27  C6  UNL     1      24.103   3.191  52.837  1.00  0.00     0.178 C 
BRANCH  26  28
HETATM   28  N1  UNL     1      26.271   2.676  54.095  1.00  0.00    -0.401 N 
HETATM   29  H8  UNL     1      26.075   3.413  54.823  1.00  0.00     0.156 HD
HETATM   30  H9  UNL     1      27.267   2.376  54.056  1.00  0.00     0.156 HD
ENDBRANCH  26  28
ENDBRANCH   1  21
TORSDOF 2
ENDMDL
MODEL 2
REMARK VINA RESULT:      -7.9      2.652      5.544
REMARK  2 active torsions:
REMARK  status: ('A' for Active; 'I' for Inactive)
REMARK    1  A    between atoms: C5_5  and  N1_6 
REMARK    2  A    between atoms: N2_8  and  C7_9 
ROOT
HETATM    1  C7  UNL     1      22.539   4.390  50.046  1.00  0.00     0.373 C 
HETATM    2  N3  UNL     1      23.577   3.352  49.730  1.00  0.00     0.152 N 
HETATM    3  C8  UNL     1      22.881   2.123  50.073  1.00  0.00     0.276 C 
HETATM    4  C9  UNL     1      23.474   1.748  51.404  1.00  0.00     0.008 C 
HETATM    5  C10 UNL     1      23.672   2.678  52.386  1.00  0.00    -0.007 C 
HETATM    6  C11 UNL     1      23.591   4.170  52.075  1.00  0.00     0.182 C 
HETATM    7  N4  UNL     1      22.295   4.234  51.317  1.00  0.00    -0.224 N 
HETATM    8  O1  UNL     1      21.471   3.930  52.273  1.00  0.00    -0.245 OA
HETATM    9  C12 UNL     1      21.061   2.636  52.712  1.00  0.00     0.209 C 
HETATM   10  C13 UNL     1      20.763   1.376  52.582  1.00  0.00     0.140 C 
HETATM   11  F1  UNL     1      20.403   0.843  53.810  1.00  0.00    -0.204 F 
HETATM   12  C14 UNL     1      20.722   0.405  51.506  1.00  0.00     0.042 C 
HETATM   13  C15 UNL     1      21.053   0.654  50.196  1.00  0.00     0.004 C 
HETATM   14  C16 UNL     1      21.479   1.999  49.885  1.00  0.00     0.150 C 
HETATM   15  N5  UNL     1      21.159   2.792  48.748  1.00  0.00    -0.327 N 
HETATM   16  C17 UNL     1      20.469   2.671  47.603  1.00  0.00     0.210 A 
HETATM   17  N6  UNL     1      20.562   3.877  46.966  1.00  0.00    -0.254 NA
HETATM   18  C18 UNL     1      21.296   4.713  47.715  1.00  0.00     0.149 A 
HETATM   19  C19 UNL     1      21.694   4.053  48.858  1.00  0.00     0.114 A 
HETATM   20  H12 UNL     1      23.872   3.388  48.753  1.00  0.00     0.323 HD
ENDROOT
BRANCH   1  21
HETATM   21  N2  UNL     1      23.087   5.721  49.884  1.00  0.00    -0.346 N 
HETATM   22  C2  UNL     1      22.860   6.726  50.790  1.00  0.00     0.083 C 
HETATM   23  C1  UNL     1      21.586   7.545  50.665  1.00  0.00     0.032 C 
HETATM   24  C3  UNL     1      23.960   7.767  50.654  1.00  0.00     0.054 C 
HETATM   25  C4  UNL     1      25.305   7.234  50.514  1.00  0.00     0.001 C 
HETATM   26  C5  UNL     1      25.510   6.168  49.770  1.00  0.00     0.017 C 
HETATM   27  C6  UNL     1      24.303   5.636  49.161  1.00  0.00     0.178 C 
BRANCH  26  28
HETATM   28  N1  UNL     1      26.818   5.639  49.626  1.00  0.00    -0.401 N 
HETATM   29  H8  UNL     1      26.990   5.207  48.681  1.00  0.00     0.156 HD
HETATM   30  H9  UNL     1      27.640   5.593  50.266  1.00  0.00     0.156 HD
ENDBRANCH  26  28
ENDBRANCH   1  21
TORSDOF 2
ENDMDL
MODEL 3
REMARK VINA RESULT:      -7.7      2.605      4.308
REMARK  2 active torsions:
REMARK  status: ('A' for Active; 'I' for Inactive)
REMARK    1  A    between atoms: C5_5  and  N1_6 
REMARK    2  A    between atoms: N2_8  and  C7_9 
ROOT
HETATM    1  C7  UNL     1      22.040   2.711  51.022  1.00  0.00     0.373 C 
HETATM    2  N3  UNL     1      22.590   4.105  51.137  1.00  0.00     0.152 N 
HETATM    3  C8  UNL     1      22.136   4.706  49.895  1.00  0.00     0.276 C 
HETATM    4  C9  UNL     1      23.372   4.707  49.037  1.00  0.00     0.008 C 
HETATM    5  C10 UNL     1      24.197   3.619  48.969  1.00  0.00    -0.007 C 
HETATM    6  C11 UNL     1      24.073   2.482  49.979  1.00  0.00     0.182 C 
HETATM    7  N4  UNL     1      22.593   2.228  49.944  1.00  0.00    -0.224 N 
HETATM    8  O1  UNL     1      22.482   1.768  48.736  1.00  0.00    -0.245 OA
HETATM    9  C12 UNL     1      22.308   2.496  47.521  1.00  0.00     0.209 C 
HETATM   10  C13 UNL     1      21.885   3.471  46.771  1.00  0.00     0.140 C 
HETATM   11  F1  UNL     1      22.288   3.271  45.460  1.00  0.00    -0.204 F 
HETATM   12  C14 UNL     1      21.127   4.694  46.953  1.00  0.00     0.042 C 
HETATM   13  C15 UNL     1      20.627   5.150  48.150  1.00  0.00     0.004 C 
HETATM   14  C16 UNL     1      20.895   4.333  49.310  1.00  0.00     0.150 C 
HETATM   15  N5  UNL     1      20.028   4.014  50.392  1.00  0.00    -0.327 N 
HETATM   16  C17 UNL     1      18.783   4.308  50.800  1.00  0.00     0.210 A 
HETATM   17  N6  UNL     1      18.578   3.608  51.956  1.00  0.00    -0.254 NA
HETATM   18  C18 UNL     1      19.682   2.902  52.242  1.00  0.00     0.149 A 
HETATM   19  C19 UNL     1      20.627   3.139  51.266  1.00  0.00     0.114 A 
HETATM   20  H12 UNL     1      22.243   4.587  51.967  1.00  0.00     0.323 HD
ENDROOT
BRANCH   1  21
HETATM   21  N2  UNL     1      22.493   1.894  52.129  1.00  0.00    -0.346 N 
HETATM   22  C2  UNL     1      22.561   0.526  52.053  1.00  0.00     0.083 C 
HETATM   23  C1  UNL     1      21.307  -0.283  52.342  1.00  0.00     0.032 C 
HETATM   24  C3  UNL     1      23.547   0.027  53.098  1.00  0.00     0.054 C 
HETATM   25  C4  UNL     1      24.780   0.789  53.202  1.00  0.00     0.001 C 
HETATM   26  C5  UNL     1      24.745   2.103  53.114  1.00  0.00     0.017 C 
HETATM   27  C6  UNL     1      23.410   2.640  52.909  1.00  0.00     0.178 C 
BRANCH  26  28
HETATM   28  N1  UNL     1      25.941   2.857  53.215  1.00  0.00    -0.401 N 
HETATM   29  H8  UNL     1      26.600   2.700  52.408  1.00  0.00     0.156 HD
HETATM   30  H9  UNL     1      26.296   3.534  53.923  1.00  0.00     0.156 HD
ENDBRANCH  26  28
ENDBRANCH   1  21
TORSDOF 2
ENDMDL
MODEL 4
REMARK VINA RESULT:      -7.7      6.989      9.829
REMARK  2 active torsions:
REMARK  status: ('A' for Active; 'I' for Inactive)
REMARK    1  A    between atoms: C5_5  and  N1_6 
REMARK    2  A    between atoms: N2_8  and  C7_9 
ROOT
HETATM    1  C7  UNL     1      30.715   8.505  47.655  1.00  0.00     0.373 C 
HETATM    2  N3  UNL     1      31.121   8.586  49.099  1.00  0.00     0.152 N 
HETATM    3  C8  UNL     1      32.465   8.035  49.059  1.00  0.00     0.276 C 
HETATM    4  C9  UNL     1      32.286   6.640  49.592  1.00  0.00     0.008 C 
HETATM    5  C10 UNL     1      31.247   5.848  49.188  1.00  0.00    -0.007 C 
HETATM    6  C11 UNL     1      30.066   6.440  48.424  1.00  0.00     0.182 C 
HETATM    7  N4  UNL     1      30.780   7.235  47.366  1.00  0.00    -0.224 N 
HETATM    8  O1  UNL     1      31.311   6.263  46.689  1.00  0.00    -0.245 OA
HETATM    9  C12 UNL     1      32.552   5.597  46.916  1.00  0.00     0.209 C 
HETATM   10  C13 UNL     1      33.793   5.494  47.293  1.00  0.00     0.140 C 
HETATM   11  F1  UNL     1      34.243   4.198  47.095  1.00  0.00    -0.204 F 
HETATM   12  C14 UNL     1      34.801   6.365  47.865  1.00  0.00     0.042 C 
HETATM   13  C15 UNL     1      34.619   7.689  48.187  1.00  0.00     0.004 C 
HETATM   14  C16 UNL     1      33.307   8.237  47.932  1.00  0.00     0.150 C 
HETATM   15  N5  UNL     1      32.965   9.514  47.405  1.00  0.00    -0.327 N 
HETATM   16  C17 UNL     1      33.588  10.635  47.009  1.00  0.00     0.210 A 
HETATM   17  N6  UNL     1      32.611  11.487  46.575  1.00  0.00    -0.254 NA
HETATM   18  C18 UNL     1      31.417  10.890  46.707  1.00  0.00     0.149 A 
HETATM   19  C19 UNL     1      31.606   9.631  47.235  1.00  0.00     0.114 A 
HETATM   20  H12 UNL     1      31.089   9.543  49.454  1.00  0.00     0.323 HD
ENDROOT
BRANCH   1  21
HETATM   21  N2  UNL     1      29.331   8.901  47.495  1.00  0.00    -0.346 N 
HETATM   22  C2  UNL     1      28.441   8.178  46.741  1.00  0.00     0.083 C 
HETATM   23  C1  UNL     1      28.387   8.425  45.242  1.00  0.00     0.032 C 
HETATM   24  C3  UNL     1      27.029   8.508  47.200  1.00  0.00     0.054 C 
HETATM   25  C4  UNL     1      26.844   8.573  48.640  1.00  0.00     0.001 C 
HETATM   26  C5  UNL     1      27.773   9.125  49.394  1.00  0.00     0.017 C 
HETATM   27  C6  UNL     1      28.918   9.616  48.646  1.00  0.00     0.178 C 
BRANCH  26  28
HETATM   28  N1  UNL     1      27.603   9.194  50.800  1.00  0.00    -0.401 N 
HETATM   29  H8  UNL     1      28.486   9.454  51.312  1.00  0.00     0.156 HD
HETATM   30  H9  UNL     1      26.783   9.040  51.424  1.00  0.00     0.156 HD
ENDBRANCH  26  28
ENDBRANCH   1  21
TORSDOF 2
ENDMDL
MODEL 5
REMARK VINA RESULT:      -7.6      8.087     10.323
REMARK  2 active torsions:
REMARK  status: ('A' for Active; 'I' for Inactive)
REMARK    1  A    between atoms: C5_5  and  N1_6 
REMARK    2  A    between atoms: N2_8  and  C7_9 
ROOT
HETATM    1  C7  UNL     1      31.661   7.417  46.855  1.00  0.00     0.373 C 
HETATM    2  N3  UNL     1      32.838   7.758  47.723  1.00  0.00     0.152 N 
HETATM    3  C8  UNL     1      33.684   6.590  47.546  1.00  0.00     0.276 C 
HETATM    4  C9  UNL     1      33.470   5.810  48.815  1.00  0.00     0.008 C 
HETATM    5  C10 UNL     1      32.222   5.635  49.344  1.00  0.00    -0.007 C 
HETATM    6  C11 UNL     1      31.041   6.466  48.851  1.00  0.00     0.182 C 
HETATM    7  N4  UNL     1      31.186   6.314  47.363  1.00  0.00    -0.224 N 
HETATM    8  O1  UNL     1      30.922   5.049  47.249  1.00  0.00    -0.245 OA
HETATM    9  C12 UNL     1      31.814   3.941  47.372  1.00  0.00     0.209 C 
HETATM   10  C13 UNL     1      32.950   3.315  47.274  1.00  0.00     0.140 C 
HETATM   11  F1  UNL     1      32.814   2.012  47.730  1.00  0.00    -0.204 F 
HETATM   12  C14 UNL     1      34.295   3.626  46.832  1.00  0.00     0.042 C 
HETATM   13  C15 UNL     1      34.715   4.846  46.358  1.00  0.00     0.004 C 
HETATM   14  C16 UNL     1      33.721   5.892  46.309  1.00  0.00     0.150 C 
HETATM   15  N5  UNL     1      33.508   6.869  45.297  1.00  0.00    -0.327 N 
HETATM   16  C17 UNL     1      34.063   7.245  44.133  1.00  0.00     0.210 A 
HETATM   17  N6  UNL     1      33.303   8.278  43.658  1.00  0.00    -0.254 NA
HETATM   18  C18 UNL     1      32.306   8.522  44.521  1.00  0.00     0.149 A 
HETATM   19  C19 UNL     1      32.407   7.642  45.578  1.00  0.00     0.114 A 
HETATM   20  H12 UNL     1      33.288   8.628  47.435  1.00  0.00     0.323 HD
ENDROOT
BRANCH   1  21
HETATM   21  N2  UNL     1      30.624   8.421  46.989  1.00  0.00    -0.346 N 
HETATM   22  C2  UNL     1      29.294   8.134  46.810  1.00  0.00     0.083 C 
HETATM   23  C1  UNL     1      28.730   8.150  45.399  1.00  0.00     0.032 C 
HETATM   24  C3  UNL     1      28.465   9.185  47.530  1.00  0.00     0.054 C 
HETATM   25  C4  UNL     1      28.936   9.545  48.857  1.00  0.00     0.001 C 
HETATM   26  C5  UNL     1      30.228   9.667  49.081  1.00  0.00     0.017 C 
HETATM   27  C6  UNL     1      31.052   9.406  47.912  1.00  0.00     0.178 C 
BRANCH  26  28
HETATM   28  N1  UNL     1      30.700  10.017  50.371  1.00  0.00    -0.401 N 
HETATM   29  H8  UNL     1      31.676   9.673  50.564  1.00  0.00     0.156 HD
HETATM   30  H9  UNL     1      30.275  10.545  51.163  1.00  0.00     0.156 HD
ENDBRANCH  26  28
ENDBRANCH   1  21
TORSDOF 2
ENDMDL
MODEL 6
REMARK VINA RESULT:      -7.6      2.533      5.252
REMARK  2 active torsions:
REMARK  status: ('A' for Active; 'I' for Inactive)
REMARK    1  A    between atoms: C5_5  and  N1_6 
REMARK    2  A    between atoms: N2_8  and  C7_9 
ROOT
HETATM    1  C7  UNL     1      23.523   3.278  51.252  1.00  0.00     0.373 C 
HETATM    2  N3  UNL     1      22.674   3.900  52.324  1.00  0.00     0.152 N 
HETATM    3  C8  UNL     1      21.587   2.942  52.433  1.00  0.00     0.276 C 
HETATM    4  C9  UNL     1      20.459   3.611  51.696  1.00  0.00     0.008 C 
HETATM    5  C10 UNL     1      20.659   4.233  50.495  1.00  0.00    -0.007 C 
HETATM    6  C11 UNL     1      22.069   4.542  50.002  1.00  0.00     0.182 C 
HETATM    7  N4  UNL     1      22.742   3.214  50.210  1.00  0.00    -0.224 N 
HETATM    8  O1  UNL     1      22.103   2.508  49.329  1.00  0.00    -0.245 OA
HETATM    9  C12 UNL     1      20.863   1.816  49.475  1.00  0.00     0.209 C 
HETATM   10  C13 UNL     1      19.945   1.145  50.106  1.00  0.00     0.140 C 
HETATM   11  F1  UNL     1      18.895   0.855  49.248  1.00  0.00    -0.204 F 
HETATM   12  C14 UNL     1      19.737   0.644  51.450  1.00  0.00     0.042 C 
HETATM   13  C15 UNL     1      20.602   0.811  52.505  1.00  0.00     0.004 C 
HETATM   14  C16 UNL     1      21.811   1.554  52.233  1.00  0.00     0.150 C 
HETATM   15  N5  UNL     1      23.134   1.296  52.687  1.00  0.00    -0.327 N 
HETATM   16  C17 UNL     1      23.768   0.421  53.484  1.00  0.00     0.210 A 
HETATM   17  N6  UNL     1      25.093   0.756  53.449  1.00  0.00    -0.254 NA
HETATM   18  C18 UNL     1      25.257   1.815  52.644  1.00  0.00     0.149 A 
HETATM   19  C19 UNL     1      24.027   2.187  52.143  1.00  0.00     0.114 A 
HETATM   20  H12 UNL     1      23.188   4.026  53.197  1.00  0.00     0.323 HD
ENDROOT
BRANCH   1  21
HETATM   21  N2  UNL     1      24.620   4.158  50.901  1.00  0.00    -0.346 N 
HETATM   22  C2  UNL     1      25.220   4.129  49.667  1.00  0.00     0.083 C 
HETATM   23  C1  UNL     1      26.327   3.117  49.420  1.00  0.00     0.032 C 
HETATM   24  C3  UNL     1      25.906   5.464  49.425  1.00  0.00     0.054 C 
HETATM   25  C4  UNL     1      25.136   6.635  49.807  1.00  0.00     0.001 C 
HETATM   26  C5  UNL     1      24.424   6.616  50.915  1.00  0.00     0.017 C 
HETATM   27  C6  UNL     1      24.504   5.360  51.641  1.00  0.00     0.178 C 
BRANCH  26  28
HETATM   28  N1  UNL     1      23.669   7.753  51.298  1.00  0.00    -0.401 N 
HETATM   29  H8  UNL     1      22.640   7.552  51.403  1.00  0.00     0.156 HD
HETATM   30  H9  UNL     1      23.927   8.743  51.496  1.00  0.00     0.156 HD
ENDBRANCH  26  28
ENDBRANCH   1  21
TORSDOF 2
ENDMDL
MODEL 7
REMARK VINA RESULT:      -7.5      1.068      2.125
REMARK  2 active torsions:
REMARK  status: ('A' for Active; 'I' for Inactive)
REMARK    1  A    between atoms: C5_5  and  N1_6 
REMARK    2  A    between atoms: N2_8  and  C7_9 
ROOT
HETATM    1  C7  UNL     1      23.717   4.098  50.205  1.00  0.00     0.373 C 
HETATM    2  N3  UNL     1      23.258   3.868  48.793  1.00  0.00     0.152 N 
HETATM    3  C8  UNL     1      23.370   5.200  48.225  1.00  0.00     0.276 C 
HETATM    4  C9  UNL     1      21.946   5.686  48.195  1.00  0.00     0.008 C 
HETATM    5  C10 UNL     1      21.105   5.501  49.256  1.00  0.00    -0.007 C 
HETATM    6  C11 UNL     1      21.470   4.538  50.382  1.00  0.00     0.182 C 
HETATM    7  N4  UNL     1      22.877   4.972  50.685  1.00  0.00    -0.224 N 
HETATM    8  O1  UNL     1      22.639   6.154  51.165  1.00  0.00    -0.245 OA
HETATM    9  C12 UNL     1      22.492   7.385  50.460  1.00  0.00     0.209 C 
HETATM   10  C13 UNL     1      22.719   8.244  49.510  1.00  0.00     0.140 C 
HETATM   11  F1  UNL     1      21.966   9.390  49.715  1.00  0.00    -0.204 F 
HETATM   12  C14 UNL     1      23.531   8.304  48.310  1.00  0.00     0.042 C 
HETATM   13  C15 UNL     1      24.353   7.301  47.854  1.00  0.00     0.004 C 
HETATM   14  C16 UNL     1      24.392   6.093  48.645  1.00  0.00     0.150 C 
HETATM   15  N5  UNL     1      25.514   5.284  48.977  1.00  0.00    -0.327 N 
HETATM   16  C17 UNL     1      26.830   5.240  48.718  1.00  0.00     0.210 A 
HETATM   17  N6  UNL     1      27.325   4.169  49.408  1.00  0.00    -0.254 NA
HETATM   18  C18 UNL     1      26.324   3.576  50.073  1.00  0.00     0.149 A 
HETATM   19  C19 UNL     1      25.154   4.260  49.820  1.00  0.00     0.114 A 
HETATM   20  H12 UNL     1      23.833   3.175  48.311  1.00  0.00     0.323 HD
ENDROOT
BRANCH   1  21
HETATM   21  N2  UNL     1      23.563   2.891  50.991  1.00  0.00    -0.346 N 
HETATM   22  C2  UNL     1      23.315   2.919  52.341  1.00  0.00     0.083 C 
HETATM   23  C1  UNL     1      24.491   3.050  53.295  1.00  0.00     0.032 C 
HETATM   24  C3  UNL     1      22.678   1.600  52.749  1.00  0.00     0.054 C 
HETATM   25  C4  UNL     1      21.647   1.105  51.852  1.00  0.00     0.001 C 
HETATM   26  C5  UNL     1      21.805   1.219  50.550  1.00  0.00     0.017 C 
HETATM   27  C6  UNL     1      23.050   1.863  50.164  1.00  0.00     0.178 C 
BRANCH  26  28
HETATM   28  N1  UNL     1      20.806   0.740  49.665  1.00  0.00    -0.401 N 
HETATM   29  H8  UNL     1      20.784  -0.311  49.595  1.00  0.00     0.156 HD
HETATM   30  H9  UNL     1      20.093   1.217  49.074  1.00  0.00     0.156 HD
ENDBRANCH  26  28
ENDBRANCH   1  21
TORSDOF 2
ENDMDL
MODEL 8
REMARK VINA RESULT:      -7.4      7.239      9.244
REMARK  2 active torsions:
REMARK  status: ('A' for Active; 'I' for Inactive)
REMARK    1  A    between atoms: C5_5  and  N1_6 
REMARK    2  A    between atoms: N2_8  and  C7_9 
ROOT
HETATM    1  C7  UNL     1      31.933   6.842  47.467  1.00  0.00     0.373 C 
HETATM    2  N3  UNL     1      30.977   6.578  46.339  1.00  0.00     0.152 N 
HETATM    3  C8  UNL     1      30.296   7.856  46.224  1.00  0.00     0.276 C 
HETATM    4  C9  UNL     1      28.970   7.605  46.889  1.00  0.00     0.008 C 
HETATM    5  C10 UNL     1      28.880   6.925  48.071  1.00  0.00    -0.007 C 
HETATM    6  C11 UNL     1      30.070   6.135  48.609  1.00  0.00     0.182 C 
HETATM    7  N4  UNL     1      31.170   7.151  48.479  1.00  0.00    -0.224 N 
HETATM    8  O1  UNL     1      30.771   8.015  49.361  1.00  0.00    -0.245 OA
HETATM    9  C12 UNL     1      29.856   9.097  49.192  1.00  0.00     0.209 C 
HETATM   10  C13 UNL     1      29.261  10.060  48.551  1.00  0.00     0.140 C 
HETATM   11  F1  UNL     1      28.334  10.677  49.376  1.00  0.00    -0.204 F 
HETATM   12  C14 UNL     1      29.308  10.632  47.220  1.00  0.00     0.042 C 
HETATM   13  C15 UNL     1      30.115  10.198  46.195  1.00  0.00     0.004 C 
HETATM   14  C16 UNL     1      30.976   9.076  46.487  1.00  0.00     0.150 C 
HETATM   15  N5  UNL     1      32.328   8.868  46.096  1.00  0.00    -0.327 N 
HETATM   16  C17 UNL     1      33.266   9.486  45.360  1.00  0.00     0.210 A 
HETATM   17  N6  UNL     1      34.390   8.710  45.435  1.00  0.00    -0.254 NA
HETATM   18  C18 UNL     1      34.135   7.642  46.204  1.00  0.00     0.149 A 
HETATM   19  C19 UNL     1      32.829   7.710  46.641  1.00  0.00     0.114 A 
HETATM   20  H12 UNL     1      31.461   6.301  45.483  1.00  0.00     0.323 HD
ENDROOT
BRANCH   1  21
HETATM   21  N2  UNL     1      32.638   5.629  47.828  1.00  0.00    -0.346 N 
HETATM   22  C2  UNL     1      32.906   4.636  46.920  1.00  0.00     0.083 C 
HETATM   23  C1  UNL     1      31.835   3.593  46.645  1.00  0.00     0.032 C 
HETATM   24  C3  UNL     1      34.076   3.809  47.428  1.00  0.00     0.054 C 
HETATM   25  C4  UNL     1      35.181   4.574  47.983  1.00  0.00     0.001 C 
HETATM   26  C5  UNL     1      34.934   5.630  48.729  1.00  0.00     0.017 C 
HETATM   27  C6  UNL     1      33.518   5.907  48.903  1.00  0.00     0.178 C 
BRANCH  26  28
HETATM   28  N1  UNL     1      36.004   6.384  49.276  1.00  0.00    -0.401 N 
HETATM   29  H8  UNL     1      36.933   6.169  48.829  1.00  0.00     0.156 HD
HETATM   30  H9  UNL     1      36.053   7.103  50.028  1.00  0.00     0.156 HD
ENDBRANCH  26  28
ENDBRANCH   1  21
TORSDOF 2
ENDMDL
MODEL 9
REMARK VINA RESULT:      -7.4      2.747      5.870
REMARK  2 active torsions:
REMARK  status: ('A' for Active; 'I' for Inactive)
REMARK    1  A    between atoms: C5_5  and  N1_6 
REMARK    2  A    between atoms: N2_8  and  C7_9 
ROOT
HETATM    1  C7  UNL     1      22.527   4.630  50.384  1.00  0.00     0.373 C 
HETATM    2  N3  UNL     1      23.700   3.738  50.092  1.00  0.00     0.152 N 
HETATM    3  C8  UNL     1      23.094   2.419  50.164  1.00  0.00     0.276 C 
HETATM    4  C9  UNL     1      23.536   1.906  51.508  1.00  0.00     0.008 C 
HETATM    5  C10 UNL     1      23.504   2.698  52.622  1.00  0.00    -0.007 C 
HETATM    6  C11 UNL     1      23.313   4.208  52.501  1.00  0.00     0.182 C 
HETATM    7  N4  UNL     1      22.131   4.272  51.574  1.00  0.00    -0.224 N 
HETATM    8  O1  UNL     1      21.222   3.766  52.349  1.00  0.00    -0.245 OA
HETATM    9  C12 UNL     1      20.891   2.393  52.550  1.00  0.00     0.209 C 
HETATM   10  C13 UNL     1      20.743   1.145  52.213  1.00  0.00     0.140 C 
HETATM   11  F1  UNL     1      20.278   0.413  53.294  1.00  0.00    -0.204 F 
HETATM   12  C14 UNL     1      20.949   0.339  51.025  1.00  0.00     0.042 C 
HETATM   13  C15 UNL     1      21.426   0.801  49.822  1.00  0.00     0.004 C 
HETATM   14  C16 UNL     1      21.749   2.207  49.757  1.00  0.00     0.150 C 
HETATM   15  N5  UNL     1      21.506   3.127  48.699  1.00  0.00    -0.327 N 
HETATM   16  C17 UNL     1      20.994   3.116  47.458  1.00  0.00     0.210 A 
HETATM   17  N6  UNL     1      21.048   4.405  47.005  1.00  0.00    -0.254 NA
HETATM   18  C18 UNL     1      21.584   5.182  47.958  1.00  0.00     0.149 A 
HETATM   19  C19 UNL     1      21.890   4.399  49.051  1.00  0.00     0.114 A 
HETATM   20  H12 UNL     1      24.118   3.939  49.183  1.00  0.00     0.323 HD
ENDROOT
BRANCH   1  21
HETATM   21  N2  UNL     1      22.953   6.011  50.481  1.00  0.00    -0.346 N 
HETATM   22  C2  UNL     1      23.943   6.533  49.686  1.00  0.00     0.083 C 
HETATM   23  C1  UNL     1      25.391   6.354  50.114  1.00  0.00     0.032 C 
HETATM   24  C3  UNL     1      23.779   8.044  49.629  1.00  0.00     0.054 C 
HETATM   25  C4  UNL     1      22.415   8.514  49.456  1.00  0.00     0.001 C 
HETATM   26  C5  UNL     1      21.432   7.914  50.095  1.00  0.00     0.017 C 
HETATM   27  C6  UNL     1      21.865   6.801  50.924  1.00  0.00     0.178 C 
BRANCH  26  28
HETATM   28  N1  UNL     1      20.097   8.364  49.935  1.00  0.00    -0.401 N 
HETATM   29  H8  UNL     1      19.786   8.391  48.929  1.00  0.00     0.156 HD
HETATM   30  H9  UNL     1      19.366   8.671  50.610  1.00  0.00     0.156 HD
ENDBRANCH  26  28
ENDBRANCH   1  21
TORSDOF 2
ENDMDL
