MODEL 1
REMARK VINA RESULT:      -8.9      0.000      0.000
REMARK  2 active torsions:
REMARK  status: ('A' for Active; 'I' for Inactive)
REMARK    1  A    between atoms: N1_1  and  C1_2 
REMARK    2  A    between atoms: C15_22  and  N7_23 
ROOT
HETATM    1  C1  UNL     1      21.633   0.239  53.040  1.00  0.00     0.020 C 
HETATM    2  C2  UNL     1      21.378  -0.699  53.909  1.00  0.00     0.023 C 
HETATM    3  C3  UNL     1      22.099  -1.475  54.968  1.00  0.00     0.019 C 
HETATM    4  C4  UNL     1      23.202  -1.749  55.639  1.00  0.00     0.088 C 
HETATM    5  N2  UNL     1      24.574  -1.466  55.831  1.00  0.00    -0.367 N 
HETATM    6  C5  UNL     1      25.330  -0.653  54.964  1.00  0.00     0.039 C 
HETATM    7  C6  UNL     1      26.370   0.151  54.870  1.00  0.00     0.042 C 
HETATM    8  C7  UNL     1      25.942   1.160  53.865  1.00  0.00     0.004 A 
HETATM    9  C8  UNL     1      26.367   2.379  53.470  1.00  0.00     0.065 A 
HETATM   10  C9  UNL     1      25.540   3.186  52.714  1.00  0.00     0.056 A 
HETATM   11  C10 UNL     1      24.266   2.661  52.390  1.00  0.00     0.045 A 
HETATM   12 CL1  UNL     1      23.370   3.855  51.420  1.00  0.00    -0.084 Cl
HETATM   13  C11 UNL     1      23.720   1.404  52.739  1.00  0.00     0.011 A 
HETATM   14  C12 UNL     1      24.721   0.891  53.431  1.00  0.00    -0.004 A 
HETATM   15  C13 UNL     1      24.835  -0.566  53.584  1.00  0.00     0.194 C 
HETATM   16  N3  UNL     1      25.932  -1.002  52.674  1.00  0.00    -0.254 NA
HETATM   17  C14 UNL     1      27.013  -0.365  52.539  1.00  0.00     0.325 C 
HETATM   18  N4  UNL     1      27.902   0.594  52.738  1.00  0.00    -0.277 NA
HETATM   19  N5  UNL     1      28.424   1.592  53.078  1.00  0.00    -0.011 NA
HETATM   20  N6  UNL     1      27.739   2.616  53.831  1.00  0.00    -0.249 N 
HETATM   21  C15 UNL     1      22.348   1.243  52.252  1.00  0.00     0.296 C 
HETATM   22  H6  UNL     1      25.214  -1.749  56.579  1.00  0.00     0.165 HD
HETATM   23  H11 UNL     1      27.468   3.404  54.442  1.00  0.00     0.192 HD
ENDROOT
BRANCH   1  24
HETATM   24  N1  UNL     1      20.339   0.414  52.391  1.00  0.00    -0.304 NA
HETATM   25  H1  UNL     1      19.711   0.736  51.597  1.00  0.00     0.124 HD
HETATM   26  H2  UNL     1      19.693   0.710  51.635  1.00  0.00     0.124 HD
ENDBRANCH   1  24
BRANCH  21  27
HETATM   27  N7  UNL     1      22.326   0.982  50.813  1.00  0.00     0.092 N 
HETATM   28  H13 UNL     1      23.349   0.861  50.565  1.00  0.00     0.314 HD
HETATM   29  H14 UNL     1      22.071   1.888  50.348  1.00  0.00     0.314 HD
ENDBRANCH  21  27
TORSDOF 2
ENDMDL
MODEL 2
REMARK VINA RESULT:      -8.5      2.296      4.230
REMARK  2 active torsions:
REMARK  status: ('A' for Active; 'I' for Inactive)
REMARK    1  A    between atoms: N1_1  and  C1_2 
REMARK    2  A    between atoms: C15_22  and  N7_23 
ROOT
HETATM    1  C1  UNL     1      20.047  -0.089  52.539  1.00  0.00     0.020 C 
HETATM    2  C2  UNL     1      19.621   0.343  51.385  1.00  0.00     0.023 C 
HETATM    3  C3  UNL     1      20.162   1.053  50.182  1.00  0.00     0.019 C 
HETATM    4  C4  UNL     1      21.164   1.629  49.544  1.00  0.00     0.088 C 
HETATM    5  N2  UNL     1      22.529   1.995  49.566  1.00  0.00    -0.367 N 
HETATM    6  C5  UNL     1      23.341   1.907  50.714  1.00  0.00     0.039 C 
HETATM    7  C6  UNL     1      24.573   1.755  51.157  1.00  0.00     0.042 C 
HETATM    8  C7  UNL     1      24.400   0.975  52.411  1.00  0.00     0.004 A 
HETATM    9  C8  UNL     1      25.202   0.263  53.231  1.00  0.00     0.065 A 
HETATM   10  C9  UNL     1      24.649  -0.605  54.152  1.00  0.00     0.056 A 
HETATM   11  C10 UNL     1      23.237  -0.687  54.178  1.00  0.00     0.045 A 
HETATM   12 CL1  UNL     1      22.741  -1.854  55.427  1.00  0.00    -0.084 Cl
HETATM   13  C11 UNL     1      22.302   0.012  53.379  1.00  0.00     0.011 A 
HETATM   14  C12 UNL     1      23.117   0.733  52.632  1.00  0.00    -0.004 A 
HETATM   15  C13 UNL     1      22.630   1.967  51.998  1.00  0.00     0.194 C 
HETATM   16  N3  UNL     1      23.198   3.099  52.785  1.00  0.00    -0.254 NA
HETATM   17  C14 UNL     1      24.385   3.117  53.212  1.00  0.00     0.325 C 
HETATM   18  N4  UNL     1      25.617   2.685  53.421  1.00  0.00    -0.277 NA
HETATM   19  N5  UNL     1      26.577   2.007  53.485  1.00  0.00    -0.011 NA
HETATM   20  N6  UNL     1      26.586   0.622  53.079  1.00  0.00    -0.249 N 
HETATM   21  C15 UNL     1      20.921  -0.378  53.675  1.00  0.00     0.296 C 
HETATM   22  H6  UNL     1      23.139   2.337  48.817  1.00  0.00     0.165 HD
HETATM   23  H11 UNL     1      26.824  -0.330  52.756  1.00  0.00     0.192 HD
ENDROOT
BRANCH   1  24
HETATM   24  N1  UNL     1      18.840  -0.679  53.108  1.00  0.00    -0.304 NA
HETATM   25  H1  UNL     1      17.794  -0.863  53.134  1.00  0.00     0.124 HD
HETATM   26  H2  UNL     1      17.826  -0.886  53.166  1.00  0.00     0.124 HD
ENDBRANCH   1  24
BRANCH  21  27
HETATM   27  N7  UNL     1      20.463   0.215  54.931  1.00  0.00     0.092 N 
HETATM   28  H13 UNL     1      19.523   0.635  54.682  1.00  0.00     0.314 HD
HETATM   29  H14 UNL     1      21.065   1.058  55.102  1.00  0.00     0.314 HD
ENDBRANCH  21  27
TORSDOF 2
ENDMDL
MODEL 3
REMARK VINA RESULT:      -8.2      2.303      4.269
REMARK  2 active torsions:
REMARK  status: ('A' for Active; 'I' for Inactive)
REMARK    1  A    between atoms: N1_1  and  C1_2 
REMARK    2  A    between atoms: C15_22  and  N7_23 
ROOT
HETATM    1  C1  UNL     1      22.040   2.342  50.638  1.00  0.00     0.020 C 
HETATM    2  C2  UNL     1      22.586   3.081  49.713  1.00  0.00     0.023 C 
HETATM    3  C3  UNL     1      23.956   3.460  49.242  1.00  0.00     0.019 C 
HETATM    4  C4  UNL     1      25.270   3.384  49.353  1.00  0.00     0.088 C 
HETATM    5  N2  UNL     1      26.371   2.842  50.056  1.00  0.00    -0.367 N 
HETATM    6  C5  UNL     1      26.250   2.140  51.271  1.00  0.00     0.039 C 
HETATM    7  C6  UNL     1      26.789   1.220  52.045  1.00  0.00     0.042 C 
HETATM    8  C7  UNL     1      25.614   0.556  52.670  1.00  0.00     0.004 A 
HETATM    9  C8  UNL     1      25.392  -0.590  53.348  1.00  0.00     0.065 A 
HETATM   10  C9  UNL     1      24.101  -1.051  53.518  1.00  0.00     0.056 A 
HETATM   11  C10 UNL     1      23.068  -0.262  52.958  1.00  0.00     0.045 A 
HETATM   12 CL1  UNL     1      21.499  -1.033  53.289  1.00  0.00    -0.084 Cl
HETATM   13  C11 UNL     1      23.181   0.952  52.241  1.00  0.00     0.011 A 
HETATM   14  C12 UNL     1      24.490   1.117  52.252  1.00  0.00    -0.004 A 
HETATM   15  C13 UNL     1      25.061   2.459  52.071  1.00  0.00     0.194 C 
HETATM   16  N3  UNL     1      25.519   2.908  53.417  1.00  0.00    -0.254 NA
HETATM   17  C14 UNL     1      26.113   2.151  54.234  1.00  0.00     0.325 C 
HETATM   18  N4  UNL     1      26.659   1.039  54.697  1.00  0.00    -0.277 NA
HETATM   19  N5  UNL     1      26.987  -0.083  54.832  1.00  0.00    -0.011 NA
HETATM   20  N6  UNL     1      26.601  -1.127  53.912  1.00  0.00    -0.249 N 
HETATM   21  C15 UNL     1      21.880   1.445  51.782  1.00  0.00     0.296 C 
HETATM   22  H6  UNL     1      27.369   2.834  49.825  1.00  0.00     0.165 HD
HETATM   23  H11 UNL     1      26.521  -1.980  53.334  1.00  0.00     0.192 HD
ENDROOT
BRANCH   1  24
HETATM   24  N1  UNL     1      20.616   2.539  50.385  1.00  0.00    -0.304 NA
HETATM   25  H1  UNL     1      19.728   2.419  49.815  1.00  0.00     0.124 HD
HETATM   26  H2  UNL     1      19.727   2.441  49.861  1.00  0.00     0.124 HD
ENDBRANCH   1  24
BRANCH  21  27
HETATM   27  N7  UNL     1      21.120   2.033  52.885  1.00  0.00     0.092 N 
HETATM   28  H13 UNL     1      21.657   1.732  53.748  1.00  0.00     0.314 HD
HETATM   29  H14 UNL     1      20.225   1.489  52.957  1.00  0.00     0.314 HD
ENDBRANCH  21  27
TORSDOF 2
ENDMDL
MODEL 4
REMARK VINA RESULT:      -8.0      2.544      4.438
REMARK  2 active torsions:
REMARK  status: ('A' for Active; 'I' for Inactive)
REMARK    1  A    between atoms: N1_1  and  C1_2 
REMARK    2  A    between atoms: C15_22  and  N7_23 
ROOT
HETATM    1  C1  UNL     1      24.617  -0.463  54.292  1.00  0.00     0.020 C 
HETATM    2  C2  UNL     1      23.423  -0.982  54.216  1.00  0.00     0.023 C 
HETATM    3  C3  UNL     1      22.175  -0.813  53.407  1.00  0.00     0.019 C 
HETATM    4  C4  UNL     1      21.501  -0.200  52.450  1.00  0.00     0.088 C 
HETATM    5  N2  UNL     1      21.506   0.799  51.450  1.00  0.00    -0.367 N 
HETATM    6  C5  UNL     1      22.530   1.756  51.310  1.00  0.00     0.039 C 
HETATM    7  C6  UNL     1      23.164   2.545  50.466  1.00  0.00     0.042 C 
HETATM    8  C7  UNL     1      24.561   2.553  50.976  1.00  0.00     0.004 A 
HETATM    9  C8  UNL     1      25.769   2.920  50.497  1.00  0.00     0.065 A 
HETATM   10  C9  UNL     1      26.920   2.497  51.132  1.00  0.00     0.056 A 
HETATM   11  C10 UNL     1      26.749   1.688  52.280  1.00  0.00     0.045 A 
HETATM   12 CL1  UNL     1      28.346   1.258  52.936  1.00  0.00    -0.084 Cl
HETATM   13  C11 UNL     1      25.542   1.251  52.875  1.00  0.00     0.011 A 
HETATM   14  C12 UNL     1      24.660   1.805  52.064  1.00  0.00    -0.004 A 
HETATM   15  C13 UNL     1      23.289   2.054  52.532  1.00  0.00     0.194 C 
HETATM   16  N3  UNL     1      23.190   3.519  52.789  1.00  0.00    -0.254 NA
HETATM   17  C14 UNL     1      23.690   4.391  52.024  1.00  0.00     0.325 C 
HETATM   18  N4  UNL     1      24.345   4.873  50.982  1.00  0.00    -0.277 NA
HETATM   19  N5  UNL     1      25.014   4.970  50.018  1.00  0.00    -0.011 NA
HETATM   20  N6  UNL     1      25.656   3.838  49.395  1.00  0.00    -0.249 N 
HETATM   21  C15 UNL     1      25.779   0.387  54.034  1.00  0.00     0.296 C 
HETATM   22  H6  UNL     1      20.843   0.986  50.691  1.00  0.00     0.165 HD
HETATM   23  H11 UNL     1      26.107   3.164  48.755  1.00  0.00     0.192 HD
ENDROOT
BRANCH   1  24
HETATM   24  N1  UNL     1      25.215  -1.231  55.379  1.00  0.00    -0.304 NA
HETATM   25  H1  UNL     1      26.037  -1.590  55.946  1.00  0.00     0.124 HD
HETATM   26  H2  UNL     1      25.990  -1.599  55.960  1.00  0.00     0.124 HD
ENDBRANCH   1  24
BRANCH  21  27
HETATM   27  N7  UNL     1      26.203   1.167  55.196  1.00  0.00     0.092 N 
HETATM   28  H13 UNL     1      27.209   0.868  55.345  1.00  0.00     0.314 HD
HETATM   29  H14 UNL     1      25.706   0.761  56.027  1.00  0.00     0.314 HD
ENDBRANCH  21  27
TORSDOF 2
ENDMDL
MODEL 5
REMARK VINA RESULT:      -7.9      3.101      5.309
REMARK  2 active torsions:
REMARK  status: ('A' for Active; 'I' for Inactive)
REMARK    1  A    between atoms: N1_1  and  C1_2 
REMARK    2  A    between atoms: C15_22  and  N7_23 
ROOT
HETATM    1  C1  UNL     1      19.313  -0.578  52.971  1.00  0.00     0.020 C 
HETATM    2  C2  UNL     1      18.332  -0.496  52.117  1.00  0.00     0.023 C 
HETATM    3  C3  UNL     1      18.026   0.189  50.821  1.00  0.00     0.019 C 
HETATM    4  C4  UNL     1      18.379   0.997  49.838  1.00  0.00     0.088 C 
HETATM    5  N2  UNL     1      19.380   1.836  49.295  1.00  0.00    -0.367 N 
HETATM    6  C5  UNL     1      20.546   2.209  49.992  1.00  0.00     0.039 C 
HETATM    7  C6  UNL     1      21.805   2.580  49.871  1.00  0.00     0.042 C 
HETATM    8  C7  UNL     1      22.465   1.971  51.056  1.00  0.00     0.004 A 
HETATM    9  C8  UNL     1      23.734   1.721  51.441  1.00  0.00     0.065 A 
HETATM   10  C9  UNL     1      23.980   0.847  52.482  1.00  0.00     0.056 A 
HETATM   11  C10 UNL     1      22.849   0.261  53.097  1.00  0.00     0.045 A 
HETATM   12 CL1  UNL     1      23.388  -0.823  54.402  1.00  0.00    -0.084 Cl
HETATM   13  C11 UNL     1      21.482   0.453  52.787  1.00  0.00     0.011 A 
HETATM   14  C12 UNL     1      21.581   1.311  51.789  1.00  0.00    -0.004 A 
HETATM   15  C13 UNL     1      20.444   2.182  51.457  1.00  0.00     0.194 C 
HETATM   16  N3  UNL     1      20.789   3.540  51.967  1.00  0.00    -0.254 NA
HETATM   17  C14 UNL     1      21.939   4.049  51.855  1.00  0.00     0.325 C 
HETATM   18  N4  UNL     1      23.214   4.129  51.513  1.00  0.00    -0.277 NA
HETATM   19  N5  UNL     1      24.300   3.864  51.146  1.00  0.00    -0.011 NA
HETATM   20  N6  UNL     1      24.684   2.536  50.732  1.00  0.00    -0.249 N 
HETATM   21  C15 UNL     1      20.605  -0.369  53.625  1.00  0.00     0.296 C 
HETATM   22  H6  UNL     1      19.455   2.270  48.370  1.00  0.00     0.165 HD
HETATM   23  H11 UNL     1      25.123   1.701  50.310  1.00  0.00     0.192 HD
ENDROOT
BRANCH   1  24
HETATM   24  N1  UNL     1      18.767  -1.483  53.977  1.00  0.00    -0.304 NA
HETATM   25  H1  UNL     1      17.973  -1.992  54.465  1.00  0.00     0.124 HD
HETATM   26  H2  UNL     1      18.021  -2.001  54.477  1.00  0.00     0.124 HD
ENDBRANCH   1  24
BRANCH  21  27
HETATM   27  N7  UNL     1      20.495   0.184  54.975  1.00  0.00     0.092 N 
HETATM   28  H13 UNL     1      19.755   0.936  54.878  1.00  0.00     0.314 HD
HETATM   29  H14 UNL     1      21.373   0.732  55.147  1.00  0.00     0.314 HD
ENDBRANCH  21  27
TORSDOF 2
ENDMDL
MODEL 6
REMARK VINA RESULT:      -7.7      2.433      5.723
REMARK  2 active torsions:
REMARK  status: ('A' for Active; 'I' for Inactive)
REMARK    1  A    between atoms: N1_1  and  C1_2 
REMARK    2  A    between atoms: C15_22  and  N7_23 
ROOT
HETATM    1  C1  UNL     1      24.342   0.892  53.102  1.00  0.00     0.020 C 
HETATM    2  C2  UNL     1      24.003  -0.024  53.965  1.00  0.00     0.023 C 
HETATM    3  C3  UNL     1      22.799  -0.839  54.322  1.00  0.00     0.019 C 
HETATM    4  C4  UNL     1      21.535  -1.167  54.125  1.00  0.00     0.088 C 
HETATM    5  N2  UNL     1      20.358  -0.952  53.371  1.00  0.00    -0.367 N 
HETATM    6  C5  UNL     1      20.203   0.106  52.454  1.00  0.00     0.039 C 
HETATM    7  C6  UNL     1      19.587   0.506  51.359  1.00  0.00     0.042 C 
HETATM    8  C7  UNL     1      20.599   1.356  50.679  1.00  0.00     0.004 A 
HETATM    9  C8  UNL     1      20.762   1.872  49.442  1.00  0.00     0.065 A 
HETATM   10  C9  UNL     1      21.993   2.367  49.057  1.00  0.00     0.056 A 
HETATM   11  C10 UNL     1      23.029   2.303  50.019  1.00  0.00     0.045 A 
HETATM   12 CL1  UNL     1      24.517   2.987  49.321  1.00  0.00    -0.084 Cl
HETATM   13  C11 UNL     1      22.973   1.797  51.338  1.00  0.00     0.011 A 
HETATM   14  C12 UNL     1      21.710   1.416  51.396  1.00  0.00    -0.004 A 
HETATM   15  C13 UNL     1      21.044   1.285  52.699  1.00  0.00     0.194 C 
HETATM   16  N3  UNL     1      20.147   2.469  52.837  1.00  0.00    -0.254 NA
HETATM   17  C14 UNL     1      19.444   2.917  51.889  1.00  0.00     0.325 C 
HETATM   18  N4  UNL     1      18.941   2.994  50.668  1.00  0.00    -0.277 NA
HETATM   19  N5  UNL     1      18.743   2.831  49.520  1.00  0.00    -0.011 NA
HETATM   20  N6  UNL     1      19.524   1.925  48.712  1.00  0.00    -0.249 N 
HETATM   21  C15 UNL     1      24.272   1.865  52.011  1.00  0.00     0.296 C 
HETATM   22  H6  UNL     1      19.485  -1.487  53.331  1.00  0.00     0.165 HD
HETATM   23  H11 UNL     1      19.887   1.271  47.998  1.00  0.00     0.192 HD
ENDROOT
BRANCH   1  24
HETATM   24  N1  UNL     1      25.735   1.143  53.454  1.00  0.00    -0.304 NA
HETATM   25  H1  UNL     1      26.521   1.328  54.144  1.00  0.00     0.124 HD
HETATM   26  H2  UNL     1      26.531   1.321  54.095  1.00  0.00     0.124 HD
ENDBRANCH   1  24
BRANCH  21  27
HETATM   27  N7  UNL     1      24.580   3.233  52.427  1.00  0.00     0.092 N 
HETATM   28  H13 UNL     1      24.830   3.720  51.520  1.00  0.00     0.314 HD
HETATM   29  H14 UNL     1      25.496   3.192  52.938  1.00  0.00     0.314 HD
ENDBRANCH  21  27
TORSDOF 2
ENDMDL
MODEL 7
REMARK VINA RESULT:      -7.7      2.152      2.882
REMARK  2 active torsions:
REMARK  status: ('A' for Active; 'I' for Inactive)
REMARK    1  A    between atoms: N1_1  and  C1_2 
REMARK    2  A    between atoms: C15_22  and  N7_23 
ROOT
HETATM    1  C1  UNL     1      22.232  -0.749  54.517  1.00  0.00     0.020 C 
HETATM    2  C2  UNL     1      23.121  -1.289  55.302  1.00  0.00     0.023 C 
HETATM    3  C3  UNL     1      24.548  -1.072  55.700  1.00  0.00     0.019 C 
HETATM    4  C4  UNL     1      25.677  -0.394  55.600  1.00  0.00     0.088 C 
HETATM    5  N2  UNL     1      26.361   0.686  54.996  1.00  0.00    -0.367 N 
HETATM    6  C5  UNL     1      25.846   1.430  53.918  1.00  0.00     0.039 C 
HETATM    7  C6  UNL     1      25.855   2.599  53.308  1.00  0.00     0.042 C 
HETATM    8  C7  UNL     1      24.463   2.743  52.806  1.00  0.00     0.004 A 
HETATM    9  C8  UNL     1      23.700   3.751  52.332  1.00  0.00     0.065 A 
HETATM   10  C9  UNL     1      22.330   3.597  52.246  1.00  0.00     0.056 A 
HETATM   11  C10 UNL     1      21.805   2.352  52.667  1.00  0.00     0.045 A 
HETATM   12 CL1  UNL     1      20.036   2.368  52.474  1.00  0.00    -0.084 Cl
HETATM   13  C11 UNL     1      22.503   1.229  53.169  1.00  0.00     0.011 A 
HETATM   14  C12 UNL     1      23.743   1.679  53.127  1.00  0.00    -0.004 A 
HETATM   15  C13 UNL     1      24.865   0.730  53.077  1.00  0.00     0.194 C 
HETATM   16  N3  UNL     1      25.369   0.744  51.674  1.00  0.00    -0.254 NA
HETATM   17  C14 UNL     1      25.496   1.801  50.996  1.00  0.00     0.325 C 
HETATM   18  N4  UNL     1      25.450   3.095  50.725  1.00  0.00    -0.277 NA
HETATM   19  N5  UNL     1      25.231   4.250  50.781  1.00  0.00    -0.011 NA
HETATM   20  N6  UNL     1      24.494   4.855  51.864  1.00  0.00    -0.249 N 
HETATM   21  C15 UNL     1      21.599   0.138  53.540  1.00  0.00     0.296 C 
HETATM   22  H6  UNL     1      27.265   1.111  55.223  1.00  0.00     0.165 HD
HETATM   23  H11 UNL     1      24.087   5.482  52.578  1.00  0.00     0.192 HD
ENDROOT
BRANCH   1  24
HETATM   24  N1  UNL     1      21.070  -1.604  54.736  1.00  0.00    -0.304 NA
HETATM   25  H1  UNL     1      20.343  -2.314  54.428  1.00  0.00     0.124 HD
HETATM   26  H2  UNL     1      20.346  -2.299  54.476  1.00  0.00     0.124 HD
ENDBRANCH   1  24
BRANCH  21  27
HETATM   27  N7  UNL     1      21.098  -0.559  52.356  1.00  0.00     0.092 N 
HETATM   28  H13 UNL     1      20.049  -0.412  52.403  1.00  0.00     0.314 HD
HETATM   29  H14 UNL     1      21.205  -1.586  52.544  1.00  0.00     0.314 HD
ENDBRANCH  21  27
TORSDOF 2
ENDMDL
MODEL 8
REMARK VINA RESULT:      -7.6      2.302      5.543
REMARK  2 active torsions:
REMARK  status: ('A' for Active; 'I' for Inactive)
REMARK    1  A    between atoms: N1_1  and  C1_2 
REMARK    2  A    between atoms: C15_22  and  N7_23 
ROOT
HETATM    1  C1  UNL     1      25.764   2.404  51.464  1.00  0.00     0.020 C 
HETATM    2  C2  UNL     1      26.236   1.510  52.287  1.00  0.00     0.023 C 
HETATM    3  C3  UNL     1      25.751   0.309  53.039  1.00  0.00     0.019 C 
HETATM    4  C4  UNL     1      24.780  -0.523  53.371  1.00  0.00     0.088 C 
HETATM    5  N2  UNL     1      23.419  -0.875  53.223  1.00  0.00    -0.367 N 
HETATM    6  C5  UNL     1      22.469  -0.059  52.579  1.00  0.00     0.039 C 
HETATM    7  C6  UNL     1      21.336  -0.045  51.905  1.00  0.00     0.042 C 
HETATM    8  C7  UNL     1      21.512   1.080  50.949  1.00  0.00     0.004 A 
HETATM    9  C8  UNL     1      20.898   1.505  49.824  1.00  0.00     0.065 A 
HETATM   10  C9  UNL     1      21.522   2.423  49.003  1.00  0.00     0.056 A 
HETATM   11  C10 UNL     1      22.799   2.875  49.413  1.00  0.00     0.045 A 
HETATM   12 CL1  UNL     1      23.417   4.042  48.220  1.00  0.00    -0.084 Cl
HETATM   13  C11 UNL     1      23.531   2.509  50.566  1.00  0.00     0.011 A 
HETATM   14  C12 UNL     1      22.693   1.653  51.121  1.00  0.00    -0.004 A 
HETATM   15  C13 UNL     1      22.775   1.377  52.562  1.00  0.00     0.194 C 
HETATM   16  N3  UNL     1      21.633   2.098  53.196  1.00  0.00    -0.254 NA
HETATM   17  C14 UNL     1      20.475   2.134  52.695  1.00  0.00     0.325 C 
HETATM   18  N4  UNL     1      19.510   1.889  51.825  1.00  0.00    -0.277 NA
HETATM   19  N5  UNL     1      18.918   1.558  50.863  1.00  0.00    -0.011 NA
HETATM   20  N6  UNL     1      19.563   0.982  49.707  1.00  0.00    -0.249 N 
HETATM   21  C15 UNL     1      24.841   3.162  50.619  1.00  0.00     0.296 C 
HETATM   22  H6  UNL     1      22.916  -1.721  53.506  1.00  0.00     0.165 HD
HETATM   23  H11 UNL     1      19.811   0.473  48.843  1.00  0.00     0.192 HD
ENDROOT
BRANCH   1  24
HETATM   24  N1  UNL     1      26.937   3.232  51.207  1.00  0.00    -0.304 NA
HETATM   25  H1  UNL     1      27.963   3.379  50.976  1.00  0.00     0.124 HD
HETATM   26  H2  UNL     1      27.931   3.418  50.979  1.00  0.00     0.124 HD
ENDBRANCH   1  24
BRANCH  21  27
HETATM   27  N7  UNL     1      24.716   4.567  51.004  1.00  0.00     0.092 N 
HETATM   28  H13 UNL     1      25.474   5.050  50.441  1.00  0.00     0.314 HD
HETATM   29  H14 UNL     1      25.066   4.641  51.991  1.00  0.00     0.314 HD
ENDBRANCH  21  27
TORSDOF 2
ENDMDL
MODEL 9
REMARK VINA RESULT:      -7.3      2.886      6.085
REMARK  2 active torsions:
REMARK  status: ('A' for Active; 'I' for Inactive)
REMARK    1  A    between atoms: N1_1  and  C1_2 
REMARK    2  A    between atoms: C15_22  and  N7_23 
ROOT
HETATM    1  C1  UNL     1      25.430   4.973  50.218  1.00  0.00     0.020 C 
HETATM    2  C2  UNL     1      24.651   6.004  50.044  1.00  0.00     0.023 C 
HETATM    3  C3  UNL     1      23.228   6.392  50.299  1.00  0.00     0.019 C 
HETATM    4  C4  UNL     1      22.020   6.098  50.746  1.00  0.00     0.088 C 
HETATM    5  N2  UNL     1      21.181   5.129  51.342  1.00  0.00    -0.367 N 
HETATM    6  C5  UNL     1      21.551   3.782  51.522  1.00  0.00     0.039 C 
HETATM    7  C6  UNL     1      21.369   2.700  52.252  1.00  0.00     0.042 C 
HETATM    8  C7  UNL     1      22.708   2.054  52.259  1.00  0.00     0.004 A 
HETATM    9  C8  UNL     1      23.318   1.089  52.980  1.00  0.00     0.065 A 
HETATM   10  C9  UNL     1      24.691   0.950  52.924  1.00  0.00     0.056 A 
HETATM   11  C10 UNL     1      25.385   1.852  52.082  1.00  0.00     0.045 A 
HETATM   12 CL1  UNL     1      27.128   1.500  52.159  1.00  0.00    -0.084 Cl
HETATM   13  C11 UNL     1      24.855   2.889  51.280  1.00  0.00     0.011 A 
HETATM   14  C12 UNL     1      23.568   2.763  51.544  1.00  0.00    -0.004 A 
HETATM   15  C13 UNL     1      22.571   3.276  50.594  1.00  0.00     0.194 C 
HETATM   16  N3  UNL     1      22.006   2.089  49.892  1.00  0.00    -0.254 NA
HETATM   17  C14 UNL     1      21.718   1.010  50.481  1.00  0.00     0.325 C 
HETATM   18  N4  UNL     1      21.591   0.160  51.486  1.00  0.00    -0.277 NA
HETATM   19  N5  UNL     1      21.668  -0.355  52.542  1.00  0.00    -0.011 NA
HETATM   20  N6  UNL     1      22.373   0.238  53.652  1.00  0.00    -0.249 N 
HETATM   21  C15 UNL     1      25.903   3.638  50.582  1.00  0.00     0.296 C 
HETATM   22  H6  UNL     1      20.242   5.218  51.743  1.00  0.00     0.165 HD
HETATM   23  H11 UNL     1      22.731   0.530  54.577  1.00  0.00     0.192 HD
ENDROOT
BRANCH   1  24
HETATM   24  N1  UNL     1      26.697   5.452  49.676  1.00  0.00    -0.304 NA
HETATM   25  H1  UNL     1      27.401   6.210  49.438  1.00  0.00     0.124 HD
HETATM   26  H2  UNL     1      27.412   6.162  49.432  1.00  0.00     0.124 HD
ENDBRANCH   1  24
BRANCH  21  27
HETATM   27  N7  UNL     1      26.432   2.876  49.451  1.00  0.00     0.092 N 
HETATM   28  H13 UNL     1      27.482   2.982  49.547  1.00  0.00     0.314 HD
HETATM   29  H14 UNL     1      26.213   3.431  48.587  1.00  0.00     0.314 HD
ENDBRANCH  21  27
TORSDOF 2
ENDMDL
