MODEL 1
REMARK VINA RESULT:      -7.8      0.000      0.000
REMARK  9 active torsions:
REMARK  status: ('A' for Active; 'I' for Inactive)
REMARK    1  A    between atoms: O1_2  and  C2_3 
REMARK    2  A    between atoms: C2_3  and  C3_4 
REMARK    3  A    between atoms: C3_4  and  C4_5 
REMARK    4  A    between atoms: C6_9  and  N3_10 
REMARK    5  A    between atoms: N3_10  and  C7_11 
REMARK    6  A    between atoms: C13_19  and  C14_20 
REMARK    7  A    between atoms: C14_20  and  O2_21 
REMARK    8  A    between atoms: O2_21  and  C15_22 
REMARK    9  A    between atoms: C15_22  and  C16_23 
ROOT
HETATM    1  C4  UNL     1      21.638   0.386  53.438  1.00  0.00     0.072 A 
HETATM    2  N1  UNL     1      21.597  -0.551  54.399  1.00  0.00    -0.241 NA
HETATM    3  C5  UNL     1      22.712  -1.183  54.798  1.00  0.00     0.235 A 
HETATM    4  N2  UNL     1      23.866  -0.856  54.213  1.00  0.00    -0.224 NA
HETATM    5  C6  UNL     1      24.000   0.055  53.259  1.00  0.00     0.140 A 
HETATM    6  C13 UNL     1      22.846   0.694  52.861  1.00  0.00     0.040 A 
ENDROOT
BRANCH   5   7
HETATM    7  N3  UNL     1      25.197   0.433  52.620  1.00  0.00    -0.340 N 
HETATM    8  H7  UNL     1      25.191   1.012  51.755  1.00  0.00     0.167 HD
BRANCH   7   9
HETATM    9  C7  UNL     1      26.540   0.146  52.974  1.00  0.00     0.035 A 
HETATM   10  C8  UNL     1      27.180  -1.086  52.793  1.00  0.00     0.032 A 
HETATM   11  C9  UNL     1      28.467  -1.331  53.143  1.00  0.00     0.046 A 
HETATM   12  C10 UNL     1      29.241  -0.349  53.714  1.00  0.00     0.138 A 
HETATM   13  F1  UNL     1      30.506  -0.708  54.020  1.00  0.00    -0.204 F 
HETATM   14  C11 UNL     1      28.672   0.887  53.920  1.00  0.00     0.074 A 
HETATM   15 CL1  UNL     1      29.707   2.088  54.648  1.00  0.00    -0.081 Cl
HETATM   16  C12 UNL     1      27.362   1.090  53.549  1.00  0.00     0.056 A 
ENDBRANCH   7   9
ENDBRANCH   5   7
BRANCH   6  17
HETATM   17  C14 UNL     1      22.698   1.749  51.811  1.00  0.00     0.212 C 
BRANCH  17  18
HETATM   18  O2  UNL     1      23.654   2.739  51.994  1.00  0.00    -0.384 OA
BRANCH  18  19
HETATM   19  C15 UNL     1      23.449   3.855  51.205  1.00  0.00     0.203 C 
BRANCH  19  20
HETATM   20  C16 UNL     1      24.510   4.131  50.205  1.00  0.00     0.244 C 
HETATM   21  C17 UNL     1      25.664   3.178  50.279  1.00  0.00     0.038 C 
HETATM   22  C18 UNL     1      26.745   3.511  49.315  1.00  0.00     0.004 C 
HETATM   23  C19 UNL     1      26.975   4.961  49.050  1.00  0.00     0.030 C 
HETATM   24  C20 UNL     1      25.778   5.840  49.298  1.00  0.00     0.270 C 
HETATM   25  N4  UNL     1      25.081   5.458  50.515  1.00  0.00     0.090 N 
HETATM   26  H24 UNL     1      24.336   6.159  50.694  1.00  0.00     0.316 HD
ENDBRANCH  19  20
ENDBRANCH  18  19
ENDBRANCH  17  18
ENDBRANCH   6  17
BRANCH   1  27
HETATM   27  C3  UNL     1      20.380   1.007  53.093  1.00  0.00     0.056 C 
BRANCH  27  28
HETATM   28  C2  UNL     1      19.313   0.291  52.913  1.00  0.00     0.136 C 
BRANCH  28  29
HETATM   29  O1  UNL     1      18.484  -0.700  52.440  1.00  0.00    -0.368 OA
HETATM   30  C1  UNL     1      17.882  -1.643  53.308  1.00  0.00     0.208 C 
ENDBRANCH  28  29
ENDBRANCH  27  28
ENDBRANCH   1  27
TORSDOF 9
ENDMDL
MODEL 2
REMARK VINA RESULT:      -7.8      3.098      5.934
REMARK  9 active torsions:
REMARK  status: ('A' for Active; 'I' for Inactive)
REMARK    1  A    between atoms: O1_2  and  C2_3 
REMARK    2  A    between atoms: C2_3  and  C3_4 
REMARK    3  A    between atoms: C3_4  and  C4_5 
REMARK    4  A    between atoms: C6_9  and  N3_10 
REMARK    5  A    between atoms: N3_10  and  C7_11 
REMARK    6  A    between atoms: C13_19  and  C14_20 
REMARK    7  A    between atoms: C14_20  and  O2_21 
REMARK    8  A    between atoms: O2_21  and  C15_22 
REMARK    9  A    between atoms: C15_22  and  C16_23 
ROOT
HETATM    1  C4  UNL     1      23.274   1.129  51.998  1.00  0.00     0.072 A 
HETATM    2  N1  UNL     1      22.390   0.909  51.011  1.00  0.00    -0.241 NA
HETATM    3  C5  UNL     1      22.205   1.811  50.035  1.00  0.00     0.235 A 
HETATM    4  N2  UNL     1      22.922   2.935  50.070  1.00  0.00    -0.224 NA
HETATM    5  C6  UNL     1      23.815   3.235  51.004  1.00  0.00     0.140 A 
HETATM    6  C13 UNL     1      23.993   2.299  51.999  1.00  0.00     0.040 A 
ENDROOT
BRANCH   5   7
HETATM    7  N3  UNL     1      24.596   4.405  51.076  1.00  0.00    -0.340 N 
HETATM    8  H7  UNL     1      24.513   5.064  51.877  1.00  0.00     0.167 HD
BRANCH   7   9
HETATM    9  C7  UNL     1      25.572   4.897  50.173  1.00  0.00     0.035 A 
HETATM   10  C8  UNL     1      26.590   4.136  49.586  1.00  0.00     0.032 A 
HETATM   11  C9  UNL     1      27.511   4.635  48.725  1.00  0.00     0.046 A 
HETATM   12  C10 UNL     1      27.495   5.963  48.369  1.00  0.00     0.138 A 
HETATM   13  F1  UNL     1      28.461   6.345  47.505  1.00  0.00    -0.204 F 
HETATM   14  C11 UNL     1      26.521   6.768  48.911  1.00  0.00     0.074 A 
HETATM   15 CL1  UNL     1      26.556   8.441  48.418  1.00  0.00    -0.081 Cl
HETATM   16  C12 UNL     1      25.606   6.217  49.780  1.00  0.00     0.056 A 
ENDBRANCH   7   9
ENDBRANCH   5   7
BRANCH   6  17
HETATM   17  C14 UNL     1      24.918   2.372  53.172  1.00  0.00     0.212 C 
BRANCH  17  18
HETATM   18  O2  UNL     1      26.237   2.335  52.740  1.00  0.00    -0.384 OA
BRANCH  18  19
HETATM   19  C15 UNL     1      27.108   1.813  53.677  1.00  0.00     0.203 C 
BRANCH  19  20
HETATM   20  C16 UNL     1      27.868   0.614  53.242  1.00  0.00     0.244 C 
HETATM   21  C17 UNL     1      27.036  -0.631  53.184  1.00  0.00     0.038 C 
HETATM   22  C18 UNL     1      27.829  -1.832  52.811  1.00  0.00     0.004 C 
HETATM   23  C19 UNL     1      29.234  -1.881  53.307  1.00  0.00     0.030 C 
HETATM   24  C20 UNL     1      29.845  -0.534  53.593  1.00  0.00     0.270 C 
HETATM   25  N4  UNL     1      28.901   0.346  54.263  1.00  0.00     0.090 N 
HETATM   26  H24 UNL     1      29.403   1.213  54.532  1.00  0.00     0.316 HD
ENDBRANCH  19  20
ENDBRANCH  18  19
ENDBRANCH  17  18
ENDBRANCH   6  17
BRANCH   1  27
HETATM   27  C3  UNL     1      23.397   0.087  52.992  1.00  0.00     0.056 C 
BRANCH  27  28
HETATM   28  C2  UNL     1      22.380  -0.654  53.308  1.00  0.00     0.136 C 
BRANCH  28  29
HETATM   29  O1  UNL     1      21.086  -1.021  53.597  1.00  0.00    -0.368 OA
HETATM   30  C1  UNL     1      19.999  -0.138  53.387  1.00  0.00     0.208 C 
ENDBRANCH  28  29
ENDBRANCH  27  28
ENDBRANCH   1  27
TORSDOF 9
ENDMDL
MODEL 3
REMARK VINA RESULT:      -7.7      2.091      5.663
REMARK  9 active torsions:
REMARK  status: ('A' for Active; 'I' for Inactive)
REMARK    1  A    between atoms: O1_2  and  C2_3 
REMARK    2  A    between atoms: C2_3  and  C3_4 
REMARK    3  A    between atoms: C3_4  and  C4_5 
REMARK    4  A    between atoms: C6_9  and  N3_10 
REMARK    5  A    between atoms: N3_10  and  C7_11 
REMARK    6  A    between atoms: C13_19  and  C14_20 
REMARK    7  A    between atoms: C14_20  and  O2_21 
REMARK    8  A    between atoms: O2_21  and  C15_22 
REMARK    9  A    between atoms: C15_22  and  C16_23 
ROOT
HETATM    1  C4  UNL     1      24.475   4.226  50.188  1.00  0.00     0.072 A 
HETATM    2  N1  UNL     1      25.337   4.279  49.159  1.00  0.00    -0.241 NA
HETATM    3  C5  UNL     1      26.571   3.762  49.263  1.00  0.00     0.235 A 
HETATM    4  N2  UNL     1      26.921   3.193  50.418  1.00  0.00    -0.224 NA
HETATM    5  C6  UNL     1      26.137   3.096  51.483  1.00  0.00     0.140 A 
HETATM    6  C13 UNL     1      24.874   3.632  51.360  1.00  0.00     0.040 A 
ENDROOT
BRANCH   5   7
HETATM    7  N3  UNL     1      26.465   2.500  52.717  1.00  0.00    -0.340 N 
HETATM    8  H7  UNL     1      26.027   2.818  53.605  1.00  0.00     0.167 HD
BRANCH   7   9
HETATM    9  C7  UNL     1      27.366   1.442  52.998  1.00  0.00     0.035 A 
HETATM   10  C8  UNL     1      28.643   1.591  53.552  1.00  0.00     0.032 A 
HETATM   11  C9  UNL     1      29.484   0.558  53.809  1.00  0.00     0.046 A 
HETATM   12  C10 UNL     1      29.115  -0.736  53.531  1.00  0.00     0.138 A 
HETATM   13  F1  UNL     1      30.034  -1.680  53.829  1.00  0.00    -0.204 F 
HETATM   14  C11 UNL     1      27.872  -0.953  52.983  1.00  0.00     0.074 A 
HETATM   15 CL1  UNL     1      27.466  -2.617  52.653  1.00  0.00    -0.081 Cl
HETATM   16  C12 UNL     1      27.052   0.126  52.740  1.00  0.00     0.056 A 
ENDBRANCH   7   9
ENDBRANCH   5   7
BRANCH   6  17
HETATM   17  C14 UNL     1      23.791   3.672  52.390  1.00  0.00     0.212 C 
BRANCH  17  18
HETATM   18  O2  UNL     1      23.680   2.436  53.011  1.00  0.00    -0.384 OA
BRANCH  18  19
HETATM   19  C15 UNL     1      22.775   1.590  52.398  1.00  0.00     0.203 C 
BRANCH  19  20
HETATM   20  C16 UNL     1      22.057   0.660  53.303  1.00  0.00     0.244 C 
HETATM   21  C17 UNL     1      22.924  -0.436  53.845  1.00  0.00     0.038 C 
HETATM   22  C18 UNL     1      22.171  -1.394  54.696  1.00  0.00     0.004 C 
HETATM   23  C19 UNL     1      20.761  -1.670  54.298  1.00  0.00     0.030 C 
HETATM   24  C20 UNL     1      20.108  -0.571  53.502  1.00  0.00     0.270 C 
HETATM   25  N4  UNL     1      21.017  -0.024  52.508  1.00  0.00     0.090 N 
HETATM   26  H24 UNL     1      20.487   0.648  51.920  1.00  0.00     0.316 HD
ENDBRANCH  19  20
ENDBRANCH  18  19
ENDBRANCH  17  18
ENDBRANCH   6  17
BRANCH   1  27
HETATM   27  C3  UNL     1      23.172   4.807  49.963  1.00  0.00     0.056 C 
BRANCH  27  28
HETATM   28  C2  UNL     1      22.456   4.458  48.938  1.00  0.00     0.136 C 
BRANCH  28  29
HETATM   29  O1  UNL     1      21.932   3.683  47.929  1.00  0.00    -0.368 OA
HETATM   30  C1  UNL     1      22.436   2.391  47.647  1.00  0.00     0.208 C 
ENDBRANCH  28  29
ENDBRANCH  27  28
ENDBRANCH   1  27
TORSDOF 9
ENDMDL
MODEL 4
REMARK VINA RESULT:      -7.7      4.024      6.869
REMARK  9 active torsions:
REMARK  status: ('A' for Active; 'I' for Inactive)
REMARK    1  A    between atoms: O1_2  and  C2_3 
REMARK    2  A    between atoms: C2_3  and  C3_4 
REMARK    3  A    between atoms: C3_4  and  C4_5 
REMARK    4  A    between atoms: C6_9  and  N3_10 
REMARK    5  A    between atoms: N3_10  and  C7_11 
REMARK    6  A    between atoms: C13_19  and  C14_20 
REMARK    7  A    between atoms: C14_20  and  O2_21 
REMARK    8  A    between atoms: O2_21  and  C15_22 
REMARK    9  A    between atoms: C15_22  and  C16_23 
ROOT
HETATM    1  C4  UNL     1      24.377  -0.234  53.484  1.00  0.00     0.072 A 
HETATM    2  N1  UNL     1      24.399  -1.000  54.587  1.00  0.00    -0.241 NA
HETATM    3  C5  UNL     1      23.286  -1.213  55.305  1.00  0.00     0.235 A 
HETATM    4  N2  UNL     1      22.152  -0.641  54.895  1.00  0.00    -0.224 NA
HETATM    5  C6  UNL     1      22.038   0.128  53.821  1.00  0.00     0.140 A 
HETATM    6  C13 UNL     1      23.190   0.336  53.095  1.00  0.00     0.040 A 
ENDROOT
BRANCH   5   7
HETATM    7  N3  UNL     1      20.862   0.746  53.350  1.00  0.00    -0.340 N 
HETATM    8  H7  UNL     1      20.779   1.782  53.295  1.00  0.00     0.167 HD
BRANCH   7   9
HETATM    9  C7  UNL     1      19.656   0.160  52.889  1.00  0.00     0.035 A 
HETATM   10  C8  UNL     1      18.847   0.669  51.866  1.00  0.00     0.032 A 
HETATM   11  C9  UNL     1      17.697   0.086  51.447  1.00  0.00     0.046 A 
HETATM   12  C10 UNL     1      17.247  -1.078  52.023  1.00  0.00     0.138 A 
HETATM   13  F1  UNL     1      16.090  -1.566  51.524  1.00  0.00    -0.204 F 
HETATM   14  C11 UNL     1      17.994  -1.631  53.036  1.00  0.00     0.074 A 
HETATM   15 CL1  UNL     1      17.368  -3.107  53.725  1.00  0.00    -0.081 Cl
HETATM   16  C12 UNL     1      19.156  -1.004  53.429  1.00  0.00     0.056 A 
ENDBRANCH   7   9
ENDBRANCH   5   7
BRANCH   6  17
HETATM   17  C14 UNL     1      23.358   1.156  51.855  1.00  0.00     0.212 C 
BRANCH  17  18
HETATM   18  O2  UNL     1      23.064   2.486  52.123  1.00  0.00    -0.384 OA
BRANCH  18  19
HETATM   19  C15 UNL     1      24.185   3.288  52.227  1.00  0.00     0.203 C 
BRANCH  19  20
HETATM   20  C16 UNL     1      24.769   3.737  50.938  1.00  0.00     0.244 C 
HETATM   21  C17 UNL     1      26.151   3.212  50.694  1.00  0.00     0.038 C 
HETATM   22  C18 UNL     1      26.743   3.725  49.431  1.00  0.00     0.004 C 
HETATM   23  C19 UNL     1      26.384   5.121  49.048  1.00  0.00     0.030 C 
HETATM   24  C20 UNL     1      25.077   5.609  49.616  1.00  0.00     0.270 C 
HETATM   25  N4  UNL     1      24.916   5.205  51.002  1.00  0.00     0.090 N 
HETATM   26  H24 UNL     1      24.058   5.657  51.373  1.00  0.00     0.316 HD
ENDBRANCH  19  20
ENDBRANCH  18  19
ENDBRANCH  17  18
ENDBRANCH   6  17
BRANCH   1  27
HETATM   27  C3  UNL     1      25.632  -0.081  52.785  1.00  0.00     0.056 C 
BRANCH  27  28
HETATM   28  C2  UNL     1      26.760  -0.304  53.386  1.00  0.00     0.136 C 
BRANCH  28  29
HETATM   29  O1  UNL     1      27.656  -0.711  54.348  1.00  0.00    -0.368 OA
HETATM   30  C1  UNL     1      28.678   0.147  54.821  1.00  0.00     0.208 C 
ENDBRANCH  28  29
ENDBRANCH  27  28
ENDBRANCH   1  27
TORSDOF 9
ENDMDL
MODEL 5
REMARK VINA RESULT:      -7.6      2.248      5.501
REMARK  9 active torsions:
REMARK  status: ('A' for Active; 'I' for Inactive)
REMARK    1  A    between atoms: O1_2  and  C2_3 
REMARK    2  A    between atoms: C2_3  and  C3_4 
REMARK    3  A    between atoms: C3_4  and  C4_5 
REMARK    4  A    between atoms: C6_9  and  N3_10 
REMARK    5  A    between atoms: N3_10  and  C7_11 
REMARK    6  A    between atoms: C13_19  and  C14_20 
REMARK    7  A    between atoms: C14_20  and  O2_21 
REMARK    8  A    between atoms: O2_21  and  C15_22 
REMARK    9  A    between atoms: C15_22  and  C16_23 
ROOT
HETATM    1  C4  UNL     1      24.103   3.430  50.457  1.00  0.00     0.072 A 
HETATM    2  N1  UNL     1      24.839   3.727  49.373  1.00  0.00    -0.241 NA
HETATM    3  C5  UNL     1      26.177   3.622  49.395  1.00  0.00     0.235 A 
HETATM    4  N2  UNL     1      26.759   3.214  50.524  1.00  0.00    -0.224 NA
HETATM    5  C6  UNL     1      26.113   2.901  51.639  1.00  0.00     0.140 A 
HETATM    6  C13 UNL     1      24.741   3.014  51.600  1.00  0.00     0.040 A 
ENDROOT
BRANCH   5   7
HETATM    7  N3  UNL     1      26.688   2.463  52.849  1.00  0.00    -0.340 N 
HETATM    8  H7  UNL     1      26.504   2.956  53.746  1.00  0.00     0.167 HD
BRANCH   7   9
HETATM    9  C7  UNL     1      27.551   1.364  53.094  1.00  0.00     0.035 A 
HETATM   10  C8  UNL     1      28.836   1.450  53.642  1.00  0.00     0.032 A 
HETATM   11  C9  UNL     1      29.639   0.380  53.864  1.00  0.00     0.046 A 
HETATM   12  C10 UNL     1      29.220  -0.891  53.552  1.00  0.00     0.138 A 
HETATM   13  F1  UNL     1      30.105  -1.877  53.818  1.00  0.00    -0.204 F 
HETATM   14  C11 UNL     1      27.966  -1.046  53.009  1.00  0.00     0.074 A 
HETATM   15 CL1  UNL     1      27.496  -2.685  52.636  1.00  0.00    -0.081 Cl
HETATM   16  C12 UNL     1      27.186   0.068  52.802  1.00  0.00     0.056 A 
ENDBRANCH   7   9
ENDBRANCH   5   7
BRANCH   6  17
HETATM   17  C14 UNL     1      23.766   2.737  52.700  1.00  0.00     0.212 C 
BRANCH  17  18
HETATM   18  O2  UNL     1      24.017   1.489  53.254  1.00  0.00    -0.384 OA
BRANCH  18  19
HETATM   19  C15 UNL     1      23.366   0.458  52.605  1.00  0.00     0.203 C 
BRANCH  19  20
HETATM   20  C16 UNL     1      21.884   0.538  52.608  1.00  0.00     0.244 C 
HETATM   21  C17 UNL     1      21.232  -0.504  53.466  1.00  0.00     0.038 C 
HETATM   22  C18 UNL     1      19.748  -0.449  53.404  1.00  0.00     0.004 C 
HETATM   23  C19 UNL     1      19.152  -0.065  52.092  1.00  0.00     0.030 C 
HETATM   24  C20 UNL     1      20.054   0.758  51.211  1.00  0.00     0.270 C 
HETATM   25  N4  UNL     1      21.419   0.258  51.234  1.00  0.00     0.090 N 
HETATM   26  H24 UNL     1      21.969   0.789  50.532  1.00  0.00     0.316 HD
ENDBRANCH  19  20
ENDBRANCH  18  19
ENDBRANCH  17  18
ENDBRANCH   6  17
BRANCH   1  27
HETATM   27  C3  UNL     1      22.673   3.572  50.319  1.00  0.00     0.056 C 
BRANCH  27  28
HETATM   28  C2  UNL     1      22.135   4.737  50.122  1.00  0.00     0.136 C 
BRANCH  28  29
HETATM   29  O1  UNL     1      21.301   5.820  50.278  1.00  0.00    -0.368 OA
HETATM   30  C1  UNL     1      21.779   7.063  50.759  1.00  0.00     0.208 C 
ENDBRANCH  28  29
ENDBRANCH  27  28
ENDBRANCH   1  27
TORSDOF 9
ENDMDL
MODEL 6
REMARK VINA RESULT:      -7.4      2.225      6.583
REMARK  9 active torsions:
REMARK  status: ('A' for Active; 'I' for Inactive)
REMARK    1  A    between atoms: O1_2  and  C2_3 
REMARK    2  A    between atoms: C2_3  and  C3_4 
REMARK    3  A    between atoms: C3_4  and  C4_5 
REMARK    4  A    between atoms: C6_9  and  N3_10 
REMARK    5  A    between atoms: N3_10  and  C7_11 
REMARK    6  A    between atoms: C13_19  and  C14_20 
REMARK    7  A    between atoms: C14_20  and  O2_21 
REMARK    8  A    between atoms: O2_21  and  C15_22 
REMARK    9  A    between atoms: C15_22  and  C16_23 
ROOT
HETATM    1  C4  UNL     1      25.616   5.855  49.658  1.00  0.00     0.072 A 
HETATM    2  N1  UNL     1      26.688   5.921  48.852  1.00  0.00    -0.241 NA
HETATM    3  C5  UNL     1      27.486   4.857  48.674  1.00  0.00     0.235 A 
HETATM    4  N2  UNL     1      27.187   3.729  49.320  1.00  0.00    -0.224 NA
HETATM    5  C6  UNL     1      26.151   3.574  50.133  1.00  0.00     0.140 A 
HETATM    6  C13 UNL     1      25.342   4.675  50.305  1.00  0.00     0.040 A 
ENDROOT
BRANCH   5   7
HETATM    7  N3  UNL     1      25.797   2.401  50.829  1.00  0.00    -0.340 N 
HETATM    8  H7  UNL     1      24.847   1.985  50.743  1.00  0.00     0.167 HD
BRANCH   7   9
HETATM    9  C7  UNL     1      26.573   1.603  51.708  1.00  0.00     0.035 A 
HETATM   10  C8  UNL     1      26.489   0.211  51.826  1.00  0.00     0.032 A 
HETATM   11  C9  UNL     1      27.245  -0.526  52.678  1.00  0.00     0.046 A 
HETATM   12  C10 UNL     1      28.167   0.075  53.500  1.00  0.00     0.138 A 
HETATM   13  F1  UNL     1      28.861  -0.759  54.304  1.00  0.00    -0.204 F 
HETATM   14  C11 UNL     1      28.300   1.442  53.435  1.00  0.00     0.074 A 
HETATM   15 CL1  UNL     1      29.487   2.143  54.505  1.00  0.00    -0.081 Cl
HETATM   16  C12 UNL     1      27.512   2.149  52.555  1.00  0.00     0.056 A 
ENDBRANCH   7   9
ENDBRANCH   5   7
BRANCH   6  17
HETATM   17  C14 UNL     1      24.120   4.791  51.161  1.00  0.00     0.212 C 
BRANCH  17  18
HETATM   18  O2  UNL     1      23.149   3.901  50.724  1.00  0.00    -0.384 OA
BRANCH  18  19
HETATM   19  C15 UNL     1      22.082   3.780  51.594  1.00  0.00     0.203 C 
BRANCH  19  20
HETATM   20  C16 UNL     1      21.991   2.487  52.316  1.00  0.00     0.244 C 
HETATM   21  C17 UNL     1      22.627   1.347  51.580  1.00  0.00     0.038 C 
HETATM   22  C18 UNL     1      22.468   0.049  52.288  1.00  0.00     0.004 C 
HETATM   23  C19 UNL     1      21.193  -0.147  53.035  1.00  0.00     0.030 C 
HETATM   24  C20 UNL     1      20.517   1.127  53.468  1.00  0.00     0.270 C 
HETATM   25  N4  UNL     1      20.561   2.134  52.421  1.00  0.00     0.090 N 
HETATM   26  H24 UNL     1      19.991   2.945  52.728  1.00  0.00     0.316 HD
ENDBRANCH  19  20
ENDBRANCH  18  19
ENDBRANCH  17  18
ENDBRANCH   6  17
BRANCH   1  27
HETATM   27  C3  UNL     1      24.823   7.058  49.771  1.00  0.00     0.056 C 
BRANCH  27  28
HETATM   28  C2  UNL     1      25.356   8.171  50.172  1.00  0.00     0.136 C 
BRANCH  28  29
HETATM   29  O1  UNL     1      26.013   9.380  50.131  1.00  0.00    -0.368 OA
HETATM   30  C1  UNL     1      27.426   9.460  50.179  1.00  0.00     0.208 C 
ENDBRANCH  28  29
ENDBRANCH  27  28
ENDBRANCH   1  27
TORSDOF 9
ENDMDL
MODEL 7
REMARK VINA RESULT:      -7.4      3.127      6.620
REMARK  9 active torsions:
REMARK  status: ('A' for Active; 'I' for Inactive)
REMARK    1  A    between atoms: O1_2  and  C2_3 
REMARK    2  A    between atoms: C2_3  and  C3_4 
REMARK    3  A    between atoms: C3_4  and  C4_5 
REMARK    4  A    between atoms: C6_9  and  N3_10 
REMARK    5  A    between atoms: N3_10  and  C7_11 
REMARK    6  A    between atoms: C13_19  and  C14_20 
REMARK    7  A    between atoms: C14_20  and  O2_21 
REMARK    8  A    between atoms: O2_21  and  C15_22 
REMARK    9  A    between atoms: C15_22  and  C16_23 
ROOT
HETATM    1  C4  UNL     1      24.295   5.148  50.718  1.00  0.00     0.072 A 
HETATM    2  N1  UNL     1      23.244   5.820  51.216  1.00  0.00    -0.241 NA
HETATM    3  C5  UNL     1      22.178   5.172  51.710  1.00  0.00     0.235 A 
HETATM    4  N2  UNL     1      22.189   3.838  51.693  1.00  0.00    -0.224 NA
HETATM    5  C6  UNL     1      23.181   3.094  51.223  1.00  0.00     0.140 A 
HETATM    6  C13 UNL     1      24.267   3.775  50.720  1.00  0.00     0.040 A 
ENDROOT
BRANCH   5   7
HETATM    7  N3  UNL     1      23.234   1.686  51.191  1.00  0.00    -0.340 N 
HETATM    8  H7  UNL     1      23.594   1.176  50.359  1.00  0.00     0.167 HD
BRANCH   7   9
HETATM    9  C7  UNL     1      22.856   0.745  52.182  1.00  0.00     0.035 A 
HETATM   10  C8  UNL     1      21.579   0.190  52.327  1.00  0.00     0.032 A 
HETATM   11  C9  UNL     1      21.246  -0.709  53.287  1.00  0.00     0.046 A 
HETATM   12  C10 UNL     1      22.177  -1.139  54.201  1.00  0.00     0.138 A 
HETATM   13  F1  UNL     1      21.730  -2.034  55.109  1.00  0.00    -0.204 F 
HETATM   14  C11 UNL     1      23.452  -0.632  54.116  1.00  0.00     0.074 A 
HETATM   15 CL1  UNL     1      24.585  -1.218  55.307  1.00  0.00    -0.081 Cl
HETATM   16  C12 UNL     1      23.745   0.278  53.125  1.00  0.00     0.056 A 
ENDBRANCH   7   9
ENDBRANCH   5   7
BRANCH   6  17
HETATM   17  C14 UNL     1      25.513   3.202  50.124  1.00  0.00     0.212 C 
BRANCH  17  18
HETATM   18  O2  UNL     1      25.988   2.168  50.919  1.00  0.00    -0.384 OA
BRANCH  18  19
HETATM   19  C15 UNL     1      26.734   2.601  51.999  1.00  0.00     0.203 C 
BRANCH  19  20
HETATM   20  C16 UNL     1      27.669   1.600  52.570  1.00  0.00     0.244 C 
HETATM   21  C17 UNL     1      27.135   0.201  52.544  1.00  0.00     0.038 C 
HETATM   22  C18 UNL     1      28.058  -0.776  53.180  1.00  0.00     0.004 C 
HETATM   23  C19 UNL     1      28.842  -0.285  54.349  1.00  0.00     0.030 C 
HETATM   24  C20 UNL     1      29.055   1.206  54.379  1.00  0.00     0.270 C 
HETATM   25  N4  UNL     1      27.849   1.923  54.000  1.00  0.00     0.090 N 
HETATM   26  H24 UNL     1      28.018   2.937  54.142  1.00  0.00     0.316 HD
ENDBRANCH  19  20
ENDBRANCH  18  19
ENDBRANCH  17  18
ENDBRANCH   6  17
BRANCH   1  27
HETATM   27  C3  UNL     1      25.390   5.948  50.221  1.00  0.00     0.056 C 
BRANCH  27  28
HETATM   28  C2  UNL     1      25.346   7.244  50.274  1.00  0.00     0.136 C 
BRANCH  28  29
HETATM   29  O1  UNL     1      24.948   8.537  50.022  1.00  0.00    -0.368 OA
HETATM   30  C1  UNL     1      24.077   8.851  48.951  1.00  0.00     0.208 C 
ENDBRANCH  28  29
ENDBRANCH  27  28
ENDBRANCH   1  27
TORSDOF 9
ENDMDL
MODEL 8
REMARK VINA RESULT:      -7.3      2.977      5.761
REMARK  9 active torsions:
REMARK  status: ('A' for Active; 'I' for Inactive)
REMARK    1  A    between atoms: O1_2  and  C2_3 
REMARK    2  A    between atoms: C2_3  and  C3_4 
REMARK    3  A    between atoms: C3_4  and  C4_5 
REMARK    4  A    between atoms: C6_9  and  N3_10 
REMARK    5  A    between atoms: N3_10  and  C7_11 
REMARK    6  A    between atoms: C13_19  and  C14_20 
REMARK    7  A    between atoms: C14_20  and  O2_21 
REMARK    8  A    between atoms: O2_21  and  C15_22 
REMARK    9  A    between atoms: C15_22  and  C16_23 
ROOT
HETATM    1  C4  UNL     1      21.606   0.702  51.412  1.00  0.00     0.072 A 
HETATM    2  N1  UNL     1      21.009   0.637  50.211  1.00  0.00    -0.241 NA
HETATM    3  C5  UNL     1      21.516   1.282  49.149  1.00  0.00     0.235 A 
HETATM    4  N2  UNL     1      22.632   1.993  49.318  1.00  0.00    -0.224 NA
HETATM    5  C6  UNL     1      23.287   2.113  50.465  1.00  0.00     0.140 A 
HETATM    6  C13 UNL     1      22.754   1.445  51.544  1.00  0.00     0.040 A 
ENDROOT
BRANCH   5   7
HETATM    7  N3  UNL     1      24.469   2.848  50.685  1.00  0.00    -0.340 N 
HETATM    8  H7  UNL     1      25.111   2.621  51.471  1.00  0.00     0.167 HD
BRANCH   7   9
HETATM    9  C7  UNL     1      24.998   3.946  49.959  1.00  0.00     0.035 A 
HETATM   10  C8  UNL     1      24.278   5.078  49.562  1.00  0.00     0.032 A 
HETATM   11  C9  UNL     1      24.812   6.113  48.867  1.00  0.00     0.046 A 
HETATM   12  C10 UNL     1      26.137   6.107  48.503  1.00  0.00     0.138 A 
HETATM   13  F1  UNL     1      26.557   7.191  47.814  1.00  0.00    -0.204 F 
HETATM   14  C11 UNL     1      26.903   5.022  48.861  1.00  0.00     0.074 A 
HETATM   15 CL1  UNL     1      28.576   5.076  48.368  1.00  0.00    -0.081 Cl
HETATM   16  C12 UNL     1      26.318   3.995  49.567  1.00  0.00     0.056 A 
ENDBRANCH   7   9
ENDBRANCH   5   7
BRANCH   6  17
HETATM   17  C14 UNL     1      23.270   1.408  52.947  1.00  0.00     0.212 C 
BRANCH  17  18
HETATM   18  O2  UNL     1      24.583   0.957  52.958  1.00  0.00    -0.384 OA
BRANCH  18  19
HETATM   19  C15 UNL     1      24.766  -0.187  53.711  1.00  0.00     0.203 C 
BRANCH  19  20
HETATM   20  C16 UNL     1      26.179  -0.565  53.963  1.00  0.00     0.244 C 
HETATM   21  C17 UNL     1      26.972   0.509  54.644  1.00  0.00     0.038 C 
HETATM   22  C18 UNL     1      28.399   0.137  54.828  1.00  0.00     0.004 C 
HETATM   23  C19 UNL     1      29.014  -0.691  53.752  1.00  0.00     0.030 C 
HETATM   24  C20 UNL     1      28.033  -1.514  52.957  1.00  0.00     0.270 C 
HETATM   25  N4  UNL     1      26.831  -0.758  52.651  1.00  0.00     0.090 N 
HETATM   26  H24 UNL     1      26.242  -1.329  52.016  1.00  0.00     0.316 HD
ENDBRANCH  19  20
ENDBRANCH  18  19
ENDBRANCH  17  18
ENDBRANCH   6  17
BRANCH   1  27
HETATM   27  C3  UNL     1      20.977  -0.037  52.482  1.00  0.00     0.056 C 
BRANCH  27  28
HETATM   28  C2  UNL     1      19.684  -0.118  52.565  1.00  0.00     0.136 C 
BRANCH  28  29
HETATM   29  O1  UNL     1      18.437  -0.531  52.974  1.00  0.00    -0.368 OA
HETATM   30  C1  UNL     1      18.211  -1.840  53.463  1.00  0.00     0.208 C 
ENDBRANCH  28  29
ENDBRANCH  27  28
ENDBRANCH   1  27
TORSDOF 9
ENDMDL
MODEL 9
REMARK VINA RESULT:      -7.0      1.936      2.453
REMARK  9 active torsions:
REMARK  status: ('A' for Active; 'I' for Inactive)
REMARK    1  A    between atoms: O1_2  and  C2_3 
REMARK    2  A    between atoms: C2_3  and  C3_4 
REMARK    3  A    between atoms: C3_4  and  C4_5 
REMARK    4  A    between atoms: C6_9  and  N3_10 
REMARK    5  A    between atoms: N3_10  and  C7_11 
REMARK    6  A    between atoms: C13_19  and  C14_20 
REMARK    7  A    between atoms: C14_20  and  O2_21 
REMARK    8  A    between atoms: O2_21  and  C15_22 
REMARK    9  A    between atoms: C15_22  and  C16_23 
ROOT
HETATM    1  C4  UNL     1      21.822   1.024  50.703  1.00  0.00     0.072 A 
HETATM    2  N1  UNL     1      21.002   0.192  51.366  1.00  0.00    -0.241 NA
HETATM    3  C5  UNL     1      21.289  -0.217  52.611  1.00  0.00     0.235 A 
HETATM    4  N2  UNL     1      22.414   0.225  53.177  1.00  0.00    -0.224 NA
HETATM    5  C6  UNL     1      23.280   1.046  52.599  1.00  0.00     0.140 A 
HETATM    6  C13 UNL     1      22.971   1.456  51.321  1.00  0.00     0.040 A 
ENDROOT
BRANCH   5   7
HETATM    7  N3  UNL     1      24.474   1.540  53.160  1.00  0.00    -0.340 N 
HETATM    8  H7  UNL     1      24.509   2.465  53.634  1.00  0.00     0.167 HD
BRANCH   7   9
HETATM    9  C7  UNL     1      25.762   0.948  53.208  1.00  0.00     0.035 A 
HETATM   10  C8  UNL     1      26.086  -0.328  52.732  1.00  0.00     0.032 A 
HETATM   11  C9  UNL     1      27.329  -0.868  52.792  1.00  0.00     0.046 A 
HETATM   12  C10 UNL     1      28.375  -0.167  53.343  1.00  0.00     0.138 A 
HETATM   13  F1  UNL     1      29.565  -0.806  53.348  1.00  0.00    -0.204 F 
HETATM   14  C11 UNL     1      28.125   1.094  53.832  1.00  0.00     0.074 A 
HETATM   15 CL1  UNL     1      29.494   1.929  54.518  1.00  0.00    -0.081 Cl
HETATM   16  C12 UNL     1      26.848   1.601  53.749  1.00  0.00     0.056 A 
ENDBRANCH   7   9
ENDBRANCH   5   7
BRANCH   6  17
HETATM   17  C14 UNL     1      23.759   2.366  50.433  1.00  0.00     0.212 C 
BRANCH  17  18
HETATM   18  O2  UNL     1      23.620   3.681  50.857  1.00  0.00    -0.384 OA
BRANCH  18  19
HETATM   19  C15 UNL     1      24.826   4.327  51.050  1.00  0.00     0.203 C 
BRANCH  19  20
HETATM   20  C16 UNL     1      25.094   5.463  50.132  1.00  0.00     0.244 C 
HETATM   21  C17 UNL     1      26.286   5.248  49.249  1.00  0.00     0.038 C 
HETATM   22  C18 UNL     1      26.577   6.422  48.385  1.00  0.00     0.004 C 
HETATM   23  C19 UNL     1      26.302   7.764  48.973  1.00  0.00     0.030 C 
HETATM   24  C20 UNL     1      25.264   7.768  50.065  1.00  0.00     0.270 C 
HETATM   25  N4  UNL     1      25.431   6.637  50.962  1.00  0.00     0.090 N 
HETATM   26  H24 UNL     1      24.765   6.749  51.750  1.00  0.00     0.316 HD
ENDBRANCH  19  20
ENDBRANCH  18  19
ENDBRANCH  17  18
ENDBRANCH   6  17
BRANCH   1  27
HETATM   27  C3  UNL     1      21.411   1.405  49.372  1.00  0.00     0.056 C 
BRANCH  27  28
HETATM   28  C2  UNL     1      20.294   2.035  49.176  1.00  0.00     0.136 C 
BRANCH  28  29
HETATM   29  O1  UNL     1      19.024   2.307  48.720  1.00  0.00    -0.368 OA
HETATM   30  C1  UNL     1      17.875   1.954  49.468  1.00  0.00     0.208 C 
ENDBRANCH  28  29
ENDBRANCH  27  28
ENDBRANCH   1  27
TORSDOF 9
ENDMDL
