MODEL 1
REMARK VINA RESULT:      -8.3      0.000      0.000
REMARK  8 active torsions:
REMARK  status: ('A' for Active; 'I' for Inactive)
REMARK    1  A    between atoms: C2_2  and  C3_3 
REMARK    2  A    between atoms: C3_3  and  C4_4 
REMARK    3  A    between atoms: C3_3  and  C7_8 
REMARK    4  A    between atoms: C4_4  and  C5_5 
REMARK    5  A    between atoms: C5_5  and  C6_6 
REMARK    6  A    between atoms: N2_10  and  C8_11 
REMARK    7  A    between atoms: C9_13  and  O1_14 
REMARK    8  A    between atoms: C11_17  and  C12_18 
ROOT
HETATM    1  C7  UNL     1      26.011   2.789  50.878  1.00  0.00     0.075 C 
HETATM    2  N1  UNL     1      27.046   2.151  51.310  1.00  0.00    -0.173 NA
HETATM    3  N2  UNL     1      26.750   1.313  52.351  1.00  0.00    -0.236 N 
HETATM    4  C11 UNL     1      25.506   1.794  52.903  1.00  0.00     0.151 C 
HETATM    5  C18 UNL     1      24.841   2.378  51.678  1.00  0.00     0.095 C 
ENDROOT
BRANCH   1   6
HETATM    6  C3  UNL     1      26.055   3.734  49.787  1.00  0.00     0.031 C 
BRANCH   6   7
HETATM    7  C2  UNL     1      24.927   4.340  49.440  1.00  0.00    -0.141 C 
HETATM    8  C1  UNL     1      23.988   5.138  48.954  1.00  0.00     0.097 C 
ENDBRANCH   6   7
BRANCH   6   9
HETATM    9  C4  UNL     1      27.164   4.135  48.990  1.00  0.00     0.020 C 
BRANCH   9  10
HETATM   10  C5  UNL     1      27.703   5.270  48.621  1.00  0.00     0.006 C 
BRANCH  10  11
HETATM   11  C6  UNL     1      28.969   5.856  48.190  1.00  0.00     0.249 C 
HETATM   12  F1  UNL     1      29.869   4.873  47.770  1.00  0.00    -0.251 F 
ENDBRANCH  10  11
ENDBRANCH   9  10
ENDBRANCH   6   9
ENDBRANCH   1   6
BRANCH   3  13
HETATM   13  C8  UNL     1      27.561   0.223  52.735  1.00  0.00     0.192 A 
HETATM   14  N3  UNL     1      27.469  -1.079  52.569  1.00  0.00    -0.198 NA
HETATM   15  C9  UNL     1      28.464  -1.796  53.088  1.00  0.00     0.171 A 
HETATM   16  C10 UNL     1      29.612  -1.242  53.806  1.00  0.00     0.111 A 
HETATM   17  S1  UNL     1      29.113   0.559  53.669  1.00  0.00    -0.058 SA
BRANCH  15  18
HETATM   18  O1  UNL     1      28.192  -3.159  52.812  1.00  0.00    -0.344 OA
HETATM   19  H7  UNL     1      28.171  -3.867  53.516  1.00  0.00     0.219 HD
ENDBRANCH  15  18
ENDBRANCH   3  13
BRANCH   4  20
HETATM   20  C12 UNL     1      24.654   0.719  53.470  1.00  0.00    -0.033 A 
HETATM   21  C13 UNL     1      25.110   0.034  54.578  1.00  0.00     0.012 A 
HETATM   22  C14 UNL     1      24.257  -0.945  55.035  1.00  0.00     0.043 A 
HETATM   23  C15 UNL     1      23.040  -1.243  54.460  1.00  0.00     0.116 A 
HETATM   24  F2  UNL     1      22.211  -2.209  54.921  1.00  0.00    -0.206 F 
HETATM   25  C16 UNL     1      22.626  -0.529  53.349  1.00  0.00     0.043 A 
HETATM   26  C17 UNL     1      23.450   0.449  52.871  1.00  0.00     0.012 A 
ENDBRANCH   4  20
TORSDOF 8
ENDMDL
MODEL 2
REMARK VINA RESULT:      -8.1      2.799      4.192
REMARK  8 active torsions:
REMARK  status: ('A' for Active; 'I' for Inactive)
REMARK    1  A    between atoms: C2_2  and  C3_3 
REMARK    2  A    between atoms: C3_3  and  C4_4 
REMARK    3  A    between atoms: C3_3  and  C7_8 
REMARK    4  A    between atoms: C4_4  and  C5_5 
REMARK    5  A    between atoms: C5_5  and  C6_6 
REMARK    6  A    between atoms: N2_10  and  C8_11 
REMARK    7  A    between atoms: C9_13  and  O1_14 
REMARK    8  A    between atoms: C11_17  and  C12_18 
ROOT
HETATM    1  C7  UNL     1      25.111   2.582  51.405  1.00  0.00     0.075 C 
HETATM    2  N1  UNL     1      24.365   1.819  52.131  1.00  0.00    -0.173 NA
HETATM    3  N2  UNL     1      25.036   0.724  52.604  1.00  0.00    -0.236 N 
HETATM    4  C11 UNL     1      26.181   0.559  51.741  1.00  0.00     0.151 C 
HETATM    5  C18 UNL     1      26.462   1.990  51.341  1.00  0.00     0.095 C 
ENDROOT
BRANCH   1   6
HETATM    6  C3  UNL     1      24.645   3.800  50.787  1.00  0.00     0.031 C 
BRANCH   6   7
HETATM    7  C2  UNL     1      23.660   4.463  51.377  1.00  0.00    -0.141 C 
HETATM    8  C1  UNL     1      22.740   5.337  51.761  1.00  0.00     0.097 C 
ENDBRANCH   6   7
BRANCH   6   9
HETATM    9  C4  UNL     1      25.094   4.429  49.591  1.00  0.00     0.020 C 
BRANCH   9  10
HETATM   10  C5  UNL     1      26.007   5.312  49.272  1.00  0.00     0.006 C 
BRANCH  10  11
HETATM   11  C6  UNL     1      27.316   5.435  48.638  1.00  0.00     0.249 C 
HETATM   12  F1  UNL     1      27.912   4.185  48.453  1.00  0.00    -0.251 F 
ENDBRANCH  10  11
ENDBRANCH   9  10
ENDBRANCH   6   9
ENDBRANCH   1   6
BRANCH   3  13
HETATM   13  C8  UNL     1      24.613  -0.032  53.719  1.00  0.00     0.192 A 
HETATM   14  N3  UNL     1      25.207  -0.427  54.824  1.00  0.00    -0.198 NA
HETATM   15  C9  UNL     1      24.452  -1.142  55.658  1.00  0.00     0.171 A 
HETATM   16  C10 UNL     1      23.053  -1.500  55.425  1.00  0.00     0.111 A 
HETATM   17  S1  UNL     1      22.880  -0.656  53.761  1.00  0.00    -0.058 SA
BRANCH  15  18
HETATM   18  O1  UNL     1      25.255  -1.472  56.778  1.00  0.00    -0.344 OA
HETATM   19  H7  UNL     1      25.168  -2.329  57.281  1.00  0.00     0.219 HD
ENDBRANCH  15  18
ENDBRANCH   3  13
BRANCH   4  20
HETATM   20  C12 UNL     1      27.366  -0.009  52.431  1.00  0.00    -0.033 A 
HETATM   21  C13 UNL     1      27.543  -1.377  52.415  1.00  0.00     0.012 A 
HETATM   22  C14 UNL     1      28.666  -1.816  53.079  1.00  0.00     0.043 A 
HETATM   23  C15 UNL     1      29.563  -0.986  53.718  1.00  0.00     0.116 A 
HETATM   24  F2  UNL     1      30.663  -1.432  54.368  1.00  0.00    -0.206 F 
HETATM   25  C16 UNL     1      29.342   0.380  53.708  1.00  0.00     0.043 A 
HETATM   26  C17 UNL     1      28.236   0.847  53.057  1.00  0.00     0.012 A 
ENDBRANCH   4  20
TORSDOF 8
ENDMDL
MODEL 3
REMARK VINA RESULT:      -8.0      1.773      2.311
REMARK  8 active torsions:
REMARK  status: ('A' for Active; 'I' for Inactive)
REMARK    1  A    between atoms: C2_2  and  C3_3 
REMARK    2  A    between atoms: C3_3  and  C4_4 
REMARK    3  A    between atoms: C3_3  and  C7_8 
REMARK    4  A    between atoms: C4_4  and  C5_5 
REMARK    5  A    between atoms: C5_5  and  C6_6 
REMARK    6  A    between atoms: N2_10  and  C8_11 
REMARK    7  A    between atoms: C9_13  and  O1_14 
REMARK    8  A    between atoms: C11_17  and  C12_18 
ROOT
HETATM    1  C7  UNL     1      26.203   3.978  49.990  1.00  0.00     0.075 C 
HETATM    2  N1  UNL     1      26.944   3.193  50.698  1.00  0.00    -0.173 NA
HETATM    3  N2  UNL     1      26.213   2.384  51.525  1.00  0.00    -0.236 N 
HETATM    4  C11 UNL     1      24.926   3.022  51.664  1.00  0.00     0.151 C 
HETATM    5  C18 UNL     1      24.790   3.716  50.328  1.00  0.00     0.095 C 
ENDROOT
BRANCH   1   6
HETATM    6  C3  UNL     1      26.728   4.929  49.040  1.00  0.00     0.031 C 
BRANCH   6   7
HETATM    7  C2  UNL     1      25.901   5.841  48.547  1.00  0.00    -0.141 C 
HETATM    8  C1  UNL     1      25.214   6.935  48.250  1.00  0.00     0.097 C 
ENDBRANCH   6   7
BRANCH   6   9
HETATM    9  C4  UNL     1      28.050   5.048  48.525  1.00  0.00     0.020 C 
BRANCH   9  10
HETATM   10  C5  UNL     1      28.787   6.007  48.024  1.00  0.00     0.006 C 
BRANCH  10  11
HETATM   11  C6  UNL     1      29.228   7.374  48.283  1.00  0.00     0.249 C 
HETATM   12  F1  UNL     1      28.359   8.033  49.155  1.00  0.00    -0.251 F 
ENDBRANCH  10  11
ENDBRANCH   9  10
ENDBRANCH   6   9
ENDBRANCH   1   6
BRANCH   3  13
HETATM   13  C8  UNL     1      26.706   1.185  52.083  1.00  0.00     0.192 A 
HETATM   14  N3  UNL     1      26.474  -0.088  51.847  1.00  0.00    -0.198 NA
HETATM   15  C9  UNL     1      27.157  -0.947  52.604  1.00  0.00     0.171 A 
HETATM   16  C10 UNL     1      28.114  -0.571  53.643  1.00  0.00     0.111 A 
HETATM   17  S1  UNL     1      27.950   1.285  53.439  1.00  0.00    -0.058 SA
BRANCH  15  18
HETATM   18  O1  UNL     1      26.778  -2.254  52.207  1.00  0.00    -0.344 OA
HETATM   19  H7  UNL     1      26.659  -2.524  51.254  1.00  0.00     0.219 HD
ENDBRANCH  15  18
ENDBRANCH   3  13
BRANCH   4  20
HETATM   20  C12 UNL     1      23.806   2.063  51.845  1.00  0.00    -0.033 A 
HETATM   21  C13 UNL     1      23.065   1.701  50.740  1.00  0.00     0.012 A 
HETATM   22  C14 UNL     1      22.047   0.811  51.000  1.00  0.00     0.043 A 
HETATM   23  C15 UNL     1      21.765   0.301  52.250  1.00  0.00     0.116 A 
HETATM   24  F2  UNL     1      20.761  -0.574  52.491  1.00  0.00    -0.206 F 
HETATM   25  C16 UNL     1      22.536   0.695  53.329  1.00  0.00     0.043 A 
HETATM   26  C17 UNL     1      23.552   1.578  53.103  1.00  0.00     0.012 A 
ENDBRANCH   4  20
TORSDOF 8
ENDMDL
MODEL 4
REMARK VINA RESULT:      -7.8      1.784      2.602
REMARK  8 active torsions:
REMARK  status: ('A' for Active; 'I' for Inactive)
REMARK    1  A    between atoms: C2_2  and  C3_3 
REMARK    2  A    between atoms: C3_3  and  C4_4 
REMARK    3  A    between atoms: C3_3  and  C7_8 
REMARK    4  A    between atoms: C4_4  and  C5_5 
REMARK    5  A    between atoms: C5_5  and  C6_6 
REMARK    6  A    between atoms: N2_10  and  C8_11 
REMARK    7  A    between atoms: C9_13  and  O1_14 
REMARK    8  A    between atoms: C11_17  and  C12_18 
ROOT
HETATM    1  C7  UNL     1      25.506   3.159  50.640  1.00  0.00     0.075 C 
HETATM    2  N1  UNL     1      26.513   2.525  51.140  1.00  0.00    -0.173 NA
HETATM    3  N2  UNL     1      26.142   1.622  52.100  1.00  0.00    -0.236 N 
HETATM    4  C11 UNL     1      24.835   2.039  52.549  1.00  0.00     0.151 C 
HETATM    5  C18 UNL     1      24.276   2.672  51.295  1.00  0.00     0.095 C 
ENDROOT
BRANCH   1   6
HETATM    6  C3  UNL     1      25.627   4.164  49.611  1.00  0.00     0.031 C 
BRANCH   6   7
HETATM    7  C2  UNL     1      26.823   4.373  49.079  1.00  0.00    -0.141 C 
HETATM    8  C1  UNL     1      27.975   4.865  48.645  1.00  0.00     0.097 C 
ENDBRANCH   6   7
BRANCH   6   9
HETATM    9  C4  UNL     1      24.621   5.004  49.055  1.00  0.00     0.020 C 
BRANCH   9  10
HETATM   10  C5  UNL     1      23.493   4.832  48.413  1.00  0.00     0.006 C 
BRANCH  10  11
HETATM   11  C6  UNL     1      22.187   4.190  48.534  1.00  0.00     0.249 C 
HETATM   12  F1  UNL     1      22.294   2.799  48.468  1.00  0.00    -0.251 F 
ENDBRANCH  10  11
ENDBRANCH   9  10
ENDBRANCH   6   9
ENDBRANCH   1   6
BRANCH   3  13
HETATM   13  C8  UNL     1      26.946   0.535  52.505  1.00  0.00     0.192 A 
HETATM   14  N3  UNL     1      26.864  -0.767  52.334  1.00  0.00    -0.198 NA
HETATM   15  C9  UNL     1      27.847  -1.481  52.882  1.00  0.00     0.171 A 
HETATM   16  C10 UNL     1      28.971  -0.924  53.633  1.00  0.00     0.111 A 
HETATM   17  S1  UNL     1      28.469   0.876  53.486  1.00  0.00    -0.058 SA
BRANCH  15  18
HETATM   18  O1  UNL     1      27.589  -2.845  52.595  1.00  0.00    -0.344 OA
HETATM   19  H7  UNL     1      27.499  -3.202  51.668  1.00  0.00     0.219 HD
ENDBRANCH  15  18
ENDBRANCH   3  13
BRANCH   4  20
HETATM   20  C12 UNL     1      23.966   0.911  52.970  1.00  0.00    -0.033 A 
HETATM   21  C13 UNL     1      24.307   0.206  54.106  1.00  0.00     0.012 A 
HETATM   22  C14 UNL     1      23.447  -0.822  54.420  1.00  0.00     0.043 A 
HETATM   23  C15 UNL     1      22.328  -1.149  53.684  1.00  0.00     0.116 A 
HETATM   24  F2  UNL     1      21.491  -2.163  54.005  1.00  0.00    -0.206 F 
HETATM   25  C16 UNL     1      22.028  -0.413  52.550  1.00  0.00     0.043 A 
HETATM   26  C17 UNL     1      22.862   0.613  52.212  1.00  0.00     0.012 A 
ENDBRANCH   4  20
TORSDOF 8
ENDMDL
MODEL 5
REMARK VINA RESULT:      -7.6      3.486      7.091
REMARK  8 active torsions:
REMARK  status: ('A' for Active; 'I' for Inactive)
REMARK    1  A    between atoms: C2_2  and  C3_3 
REMARK    2  A    between atoms: C3_3  and  C4_4 
REMARK    3  A    between atoms: C3_3  and  C7_8 
REMARK    4  A    between atoms: C4_4  and  C5_5 
REMARK    5  A    between atoms: C5_5  and  C6_6 
REMARK    6  A    between atoms: N2_10  and  C8_11 
REMARK    7  A    between atoms: C9_13  and  O1_14 
REMARK    8  A    between atoms: C11_17  and  C12_18 
ROOT
HETATM    1  C7  UNL     1      22.571   0.842  52.350  1.00  0.00     0.075 C 
HETATM    2  N1  UNL     1      22.864   1.936  51.732  1.00  0.00    -0.173 NA
HETATM    3  N2  UNL     1      24.155   2.334  51.951  1.00  0.00    -0.236 N 
HETATM    4  C11 UNL     1      24.573   1.667  53.161  1.00  0.00     0.151 C 
HETATM    5  C18 UNL     1      23.764   0.392  53.094  1.00  0.00     0.095 C 
ENDROOT
BRANCH   1   6
HETATM    6  C3  UNL     1      21.274   0.210  52.284  1.00  0.00     0.031 C 
BRANCH   6   7
HETATM    7  C2  UNL     1      20.925  -0.605  53.269  1.00  0.00    -0.141 C 
HETATM    8  C1  UNL     1      20.874  -1.476  54.267  1.00  0.00     0.097 C 
ENDBRANCH   6   7
BRANCH   6   9
HETATM    9  C4  UNL     1      20.269   0.328  51.283  1.00  0.00     0.020 C 
BRANCH   9  10
HETATM   10  C5  UNL     1      18.978   0.548  51.260  1.00  0.00     0.006 C 
BRANCH  10  11
HETATM   11  C6  UNL     1      17.702  -0.052  51.638  1.00  0.00     0.249 C 
HETATM   12  F1  UNL     1      17.880  -1.320  52.196  1.00  0.00    -0.251 F 
ENDBRANCH  10  11
ENDBRANCH   9  10
ENDBRANCH   6   9
ENDBRANCH   1   6
BRANCH   3  13
HETATM   13  C8  UNL     1      24.854   3.225  51.108  1.00  0.00     0.192 A 
HETATM   14  N3  UNL     1      25.937   3.114  50.369  1.00  0.00    -0.198 NA
HETATM   15  C9  UNL     1      26.288   4.208  49.696  1.00  0.00     0.171 A 
HETATM   16  C10 UNL     1      25.567   5.480  49.728  1.00  0.00     0.111 A 
HETATM   17  S1  UNL     1      24.216   4.942  50.910  1.00  0.00    -0.058 SA
BRANCH  15  18
HETATM   18  O1  UNL     1      27.462   3.898  48.966  1.00  0.00    -0.344 OA
HETATM   19  H7  UNL     1      27.507   3.908  47.969  1.00  0.00     0.219 HD
ENDBRANCH  15  18
ENDBRANCH   3  13
BRANCH   4  20
HETATM   20  C12 UNL     1      26.021   1.339  53.186  1.00  0.00    -0.033 A 
HETATM   21  C13 UNL     1      26.426   0.113  52.702  1.00  0.00     0.012 A 
HETATM   22  C14 UNL     1      27.785  -0.107  52.765  1.00  0.00     0.043 A 
HETATM   23  C15 UNL     1      28.694   0.802  53.264  1.00  0.00     0.116 A 
HETATM   24  F2  UNL     1      30.026   0.572  53.320  1.00  0.00    -0.206 F 
HETATM   25  C16 UNL     1      28.238   2.019  53.740  1.00  0.00     0.043 A 
HETATM   26  C17 UNL     1      26.897   2.266  53.691  1.00  0.00     0.012 A 
ENDBRANCH   4  20
TORSDOF 8
ENDMDL
MODEL 6
REMARK VINA RESULT:      -7.6      3.834      7.733
REMARK  8 active torsions:
REMARK  status: ('A' for Active; 'I' for Inactive)
REMARK    1  A    between atoms: C2_2  and  C3_3 
REMARK    2  A    between atoms: C3_3  and  C4_4 
REMARK    3  A    between atoms: C3_3  and  C7_8 
REMARK    4  A    between atoms: C4_4  and  C5_5 
REMARK    5  A    between atoms: C5_5  and  C6_6 
REMARK    6  A    between atoms: N2_10  and  C8_11 
REMARK    7  A    between atoms: C9_13  and  O1_14 
REMARK    8  A    between atoms: C11_17  and  C12_18 
ROOT
HETATM    1  C7  UNL     1      23.892   1.586  52.128  1.00  0.00     0.075 C 
HETATM    2  N1  UNL     1      22.930   2.002  51.376  1.00  0.00    -0.173 NA
HETATM    3  N2  UNL     1      23.282   3.090  50.624  1.00  0.00    -0.236 N 
HETATM    4  C11 UNL     1      24.425   3.672  51.286  1.00  0.00     0.151 C 
HETATM    5  C18 UNL     1      25.067   2.452  51.905  1.00  0.00     0.095 C 
ENDROOT
BRANCH   1   6
HETATM    6  C3  UNL     1      23.779   0.454  53.017  1.00  0.00     0.031 C 
BRANCH   6   7
HETATM    7  C2  UNL     1      22.594  -0.125  53.144  1.00  0.00    -0.141 C 
HETATM    8  C1  UNL     1      21.552  -0.875  53.475  1.00  0.00     0.097 C 
ENDBRANCH   6   7
BRANCH   6   9
HETATM    9  C4  UNL     1      24.783  -0.163  53.816  1.00  0.00     0.020 C 
BRANCH   9  10
HETATM   10  C5  UNL     1      25.923  -0.771  53.600  1.00  0.00     0.006 C 
BRANCH  10  11
HETATM   11  C6  UNL     1      26.774  -1.272  52.525  1.00  0.00     0.249 C 
HETATM   12  F1  UNL     1      26.790  -0.396  51.437  1.00  0.00    -0.251 F 
ENDBRANCH  10  11
ENDBRANCH   9  10
ENDBRANCH   6   9
ENDBRANCH   1   6
BRANCH   3  13
HETATM   13  C8  UNL     1      22.601   3.486  49.453  1.00  0.00     0.192 A 
HETATM   14  N3  UNL     1      22.701   3.144  48.186  1.00  0.00    -0.198 NA
HETATM   15  C9  UNL     1      21.856   3.755  47.358  1.00  0.00     0.171 A 
HETATM   16  C10 UNL     1      20.858   4.747  47.758  1.00  0.00     0.111 A 
HETATM   17  S1  UNL     1      21.260   4.741  49.589  1.00  0.00    -0.058 SA
BRANCH  15  18
HETATM   18  O1  UNL     1      22.111   3.263  46.053  1.00  0.00    -0.344 OA
HETATM   19  H7  UNL     1      23.028   3.187  45.667  1.00  0.00     0.219 HD
ENDBRANCH  15  18
ENDBRANCH   3  13
BRANCH   4  20
HETATM   20  C12 UNL     1      25.381   4.322  50.354  1.00  0.00    -0.033 A 
HETATM   21  C13 UNL     1      26.376   3.551  49.790  1.00  0.00     0.012 A 
HETATM   22  C14 UNL     1      27.217   4.235  48.940  1.00  0.00     0.043 A 
HETATM   23  C15 UNL     1      27.103   5.579  48.653  1.00  0.00     0.116 A 
HETATM   24  F2  UNL     1      27.937   6.238  47.816  1.00  0.00    -0.206 F 
HETATM   25  C16 UNL     1      26.088   6.311  49.245  1.00  0.00     0.043 A 
HETATM   26  C17 UNL     1      25.238   5.661  50.092  1.00  0.00     0.012 A 
ENDBRANCH   4  20
TORSDOF 8
ENDMDL
MODEL 7
REMARK VINA RESULT:      -7.6      3.608      8.124
REMARK  8 active torsions:
REMARK  status: ('A' for Active; 'I' for Inactive)
REMARK    1  A    between atoms: C2_2  and  C3_3 
REMARK    2  A    between atoms: C3_3  and  C4_4 
REMARK    3  A    between atoms: C3_3  and  C7_8 
REMARK    4  A    between atoms: C4_4  and  C5_5 
REMARK    5  A    between atoms: C5_5  and  C6_6 
REMARK    6  A    between atoms: N2_10  and  C8_11 
REMARK    7  A    between atoms: C9_13  and  O1_14 
REMARK    8  A    between atoms: C11_17  and  C12_18 
ROOT
HETATM    1  C7  UNL     1      24.470   1.190  52.140  1.00  0.00     0.075 C 
HETATM    2  N1  UNL     1      23.410   1.488  51.466  1.00  0.00    -0.173 NA
HETATM    3  N2  UNL     1      23.548   2.650  50.755  1.00  0.00    -0.236 N 
HETATM    4  C11 UNL     1      24.631   3.369  51.382  1.00  0.00     0.151 C 
HETATM    5  C18 UNL     1      25.486   2.234  51.899  1.00  0.00     0.095 C 
ENDROOT
BRANCH   1   6
HETATM    6  C3  UNL     1      24.583   0.016  52.973  1.00  0.00     0.031 C 
BRANCH   6   7
HETATM    7  C2  UNL     1      25.703  -0.691  52.906  1.00  0.00    -0.141 C 
HETATM    8  C1  UNL     1      26.859  -1.250  52.579  1.00  0.00     0.097 C 
ENDBRANCH   6   7
BRANCH   6   9
HETATM    9  C4  UNL     1      23.641  -0.527  53.892  1.00  0.00     0.020 C 
BRANCH   9  10
HETATM   10  C5  UNL     1      22.391  -0.915  53.846  1.00  0.00     0.006 C 
BRANCH  10  11
HETATM   11  C6  UNL     1      21.027  -0.423  54.017  1.00  0.00     0.249 C 
HETATM   12  F1  UNL     1      20.908   0.363  55.165  1.00  0.00    -0.251 F 
ENDBRANCH  10  11
ENDBRANCH   9  10
ENDBRANCH   6   9
ENDBRANCH   1   6
BRANCH   3  13
HETATM   13  C8  UNL     1      22.744   2.989  49.646  1.00  0.00     0.192 A 
HETATM   14  N3  UNL     1      22.886   2.850  48.346  1.00  0.00    -0.198 NA
HETATM   15  C9  UNL     1      21.877   3.306  47.605  1.00  0.00     0.171 A 
HETATM   16  C10 UNL     1      20.664   3.930  48.133  1.00  0.00     0.111 A 
HETATM   17  S1  UNL     1      21.119   3.804  49.947  1.00  0.00    -0.058 SA
BRANCH  15  18
HETATM   18  O1  UNL     1      22.209   3.071  46.248  1.00  0.00    -0.344 OA
HETATM   19  H7  UNL     1      22.794   2.320  45.949  1.00  0.00     0.219 HD
ENDBRANCH  15  18
ENDBRANCH   3  13
BRANCH   4  20
HETATM   20  C12 UNL     1      25.419   4.197  50.435  1.00  0.00    -0.033 A 
HETATM   21  C13 UNL     1      25.041   5.509  50.237  1.00  0.00     0.012 A 
HETATM   22  C14 UNL     1      25.826   6.201  49.342  1.00  0.00     0.043 A 
HETATM   23  C15 UNL     1      26.909   5.661  48.681  1.00  0.00     0.116 A 
HETATM   24  F2  UNL     1      27.671   6.353  47.804  1.00  0.00    -0.206 F 
HETATM   25  C16 UNL     1      27.248   4.339  48.912  1.00  0.00     0.043 A 
HETATM   26  C17 UNL     1      26.488   3.626  49.794  1.00  0.00     0.012 A 
ENDBRANCH   4  20
TORSDOF 8
ENDMDL
MODEL 8
REMARK VINA RESULT:      -7.6      2.504      6.819
REMARK  8 active torsions:
REMARK  status: ('A' for Active; 'I' for Inactive)
REMARK    1  A    between atoms: C2_2  and  C3_3 
REMARK    2  A    between atoms: C3_3  and  C4_4 
REMARK    3  A    between atoms: C3_3  and  C7_8 
REMARK    4  A    between atoms: C4_4  and  C5_5 
REMARK    5  A    between atoms: C5_5  and  C6_6 
REMARK    6  A    between atoms: N2_10  and  C8_11 
REMARK    7  A    between atoms: C9_13  and  O1_14 
REMARK    8  A    between atoms: C11_17  and  C12_18 
ROOT
HETATM    1  C7  UNL     1      22.254   1.106  51.971  1.00  0.00     0.075 C 
HETATM    2  N1  UNL     1      23.383   0.639  52.386  1.00  0.00    -0.173 NA
HETATM    3  N2  UNL     1      24.456   1.292  51.841  1.00  0.00    -0.236 N 
HETATM    4  C11 UNL     1      23.960   1.935  50.648  1.00  0.00     0.151 C 
HETATM    5  C18 UNL     1      22.524   2.212  51.031  1.00  0.00     0.095 C 
ENDROOT
BRANCH   1   6
HETATM    6  C3  UNL     1      20.973   0.592  52.393  1.00  0.00     0.031 C 
BRANCH   6   7
HETATM    7  C2  UNL     1      20.017   0.472  51.483  1.00  0.00    -0.141 C 
HETATM    8  C1  UNL     1      18.912   0.543  50.754  1.00  0.00     0.097 C 
ENDBRANCH   6   7
BRANCH   6   9
HETATM    9  C4  UNL     1      20.556   0.178  53.690  1.00  0.00     0.020 C 
BRANCH   9  10
HETATM   10  C5  UNL     1      21.038  -0.582  54.641  1.00  0.00     0.006 C 
BRANCH  10  11
HETATM   11  C6  UNL     1      22.027  -1.628  54.888  1.00  0.00     0.249 C 
HETATM   12  F1  UNL     1      22.992  -1.210  55.807  1.00  0.00    -0.251 F 
ENDBRANCH  10  11
ENDBRANCH   9  10
ENDBRANCH   6   9
ENDBRANCH   1   6
BRANCH   3  13
HETATM   13  C8  UNL     1      25.750   1.279  52.405  1.00  0.00     0.192 A 
HETATM   14  N3  UNL     1      26.464   2.171  53.057  1.00  0.00    -0.198 NA
HETATM   15  C9  UNL     1      27.675   1.768  53.440  1.00  0.00     0.171 A 
HETATM   16  C10 UNL     1      28.237   0.442  53.189  1.00  0.00     0.111 A 
HETATM   17  S1  UNL     1      26.759  -0.257  52.272  1.00  0.00    -0.058 SA
BRANCH  15  18
HETATM   18  O1  UNL     1      28.286   2.852  54.119  1.00  0.00    -0.344 OA
HETATM   19  H7  UNL     1      29.112   3.306  53.793  1.00  0.00     0.219 HD
ENDBRANCH  15  18
ENDBRANCH   3  13
BRANCH   4  20
HETATM   20  C12 UNL     1      24.649   3.212  50.334  1.00  0.00    -0.033 A 
HETATM   21  C13 UNL     1      24.076   4.392  50.763  1.00  0.00     0.012 A 
HETATM   22  C14 UNL     1      24.782   5.525  50.427  1.00  0.00     0.043 A 
HETATM   23  C15 UNL     1      25.967   5.520  49.722  1.00  0.00     0.116 A 
HETATM   24  F2  UNL     1      26.649   6.643  49.399  1.00  0.00    -0.206 F 
HETATM   25  C16 UNL     1      26.502   4.312  49.312  1.00  0.00     0.043 A 
HETATM   26  C17 UNL     1      25.826   3.170  49.630  1.00  0.00     0.012 A 
ENDBRANCH   4  20
TORSDOF 8
ENDMDL
MODEL 9
REMARK VINA RESULT:      -7.5      3.437      6.731
REMARK  8 active torsions:
REMARK  status: ('A' for Active; 'I' for Inactive)
REMARK    1  A    between atoms: C2_2  and  C3_3 
REMARK    2  A    between atoms: C3_3  and  C4_4 
REMARK    3  A    between atoms: C3_3  and  C7_8 
REMARK    4  A    between atoms: C4_4  and  C5_5 
REMARK    5  A    between atoms: C5_5  and  C6_6 
REMARK    6  A    between atoms: N2_10  and  C8_11 
REMARK    7  A    between atoms: C9_13  and  O1_14 
REMARK    8  A    between atoms: C11_17  and  C12_18 
ROOT
HETATM    1  C7  UNL     1      22.156   1.199  51.917  1.00  0.00     0.075 C 
HETATM    2  N1  UNL     1      22.565   2.292  51.366  1.00  0.00    -0.173 NA
HETATM    3  N2  UNL     1      23.859   2.595  51.694  1.00  0.00    -0.236 N 
HETATM    4  C11 UNL     1      24.142   1.858  52.902  1.00  0.00     0.151 C 
HETATM    5  C18 UNL     1      23.259   0.644  52.726  1.00  0.00     0.095 C 
ENDROOT
BRANCH   1   6
HETATM    6  C3  UNL     1      20.830   0.660  51.733  1.00  0.00     0.031 C 
BRANCH   6   7
HETATM    7  C2  UNL     1      20.219   0.884  50.578  1.00  0.00    -0.141 C 
HETATM    8  C1  UNL     1      19.575   1.388  49.535  1.00  0.00     0.097 C 
ENDBRANCH   6   7
BRANCH   6   9
HETATM    9  C4  UNL     1      20.040  -0.108  52.635  1.00  0.00     0.020 C 
BRANCH   9  10
HETATM   10  C5  UNL     1      20.237  -0.734  53.768  1.00  0.00     0.006 C 
BRANCH  10  11
HETATM   11  C6  UNL     1      21.175  -1.627  54.441  1.00  0.00     0.249 C 
HETATM   12  F1  UNL     1      21.992  -0.929  55.334  1.00  0.00    -0.251 F 
ENDBRANCH  10  11
ENDBRANCH   9  10
ENDBRANCH   6   9
ENDBRANCH   1   6
BRANCH   3  13
HETATM   13  C8  UNL     1      24.675   3.466  50.940  1.00  0.00     0.192 A 
HETATM   14  N3  UNL     1      25.777   3.299  50.242  1.00  0.00    -0.198 NA
HETATM   15  C9  UNL     1      26.257   4.395  49.655  1.00  0.00     0.171 A 
HETATM   16  C10 UNL     1      25.652   5.724  49.737  1.00  0.00     0.111 A 
HETATM   17  S1  UNL     1      24.203   5.243  50.825  1.00  0.00    -0.058 SA
BRANCH  15  18
HETATM   18  O1  UNL     1      27.433   4.021  48.958  1.00  0.00    -0.344 OA
HETATM   19  H7  UNL     1      27.618   3.088  48.658  1.00  0.00     0.219 HD
ENDBRANCH  15  18
ENDBRANCH   3  13
BRANCH   4  20
HETATM   20  C12 UNL     1      25.560   1.432  53.018  1.00  0.00    -0.033 A 
HETATM   21  C13 UNL     1      26.435   2.244  53.710  1.00  0.00     0.012 A 
HETATM   22  C14 UNL     1      27.728   1.772  53.766  1.00  0.00     0.043 A 
HETATM   23  C15 UNL     1      28.148   0.591  53.191  1.00  0.00     0.116 A 
HETATM   24  F2  UNL     1      29.423   0.141  53.255  1.00  0.00    -0.206 F 
HETATM   25  C16 UNL     1      27.232  -0.189  52.507  1.00  0.00     0.043 A 
HETATM   26  C17 UNL     1      25.943   0.252  52.433  1.00  0.00     0.012 A 
ENDBRANCH   4  20
TORSDOF 8
ENDMDL
