MODEL 1
REMARK VINA RESULT:      -7.7      0.000      0.000
REMARK  4 active torsions:
REMARK  status: ('A' for Active; 'I' for Inactive)
REMARK    1  A    between atoms: N1_2  and  C2_3 
REMARK    2  A    between atoms: C8_11  and  C9_12 
REMARK    3  A    between atoms: C11_14  and  N3_15 
REMARK    4  A    between atoms: N3_15  and  C12_16 
ROOT
HETATM    1  C2  UNL     1      26.113  -0.527  53.927  1.00  0.00     0.099 C 
HETATM    2  C3  UNL     1      25.120  -0.049  53.147  1.00  0.00     0.135 C 
HETATM    3  N2  UNL     1      25.766   0.722  52.217  1.00  0.00    -0.219 NA
HETATM    4  C4  UNL     1      25.648   1.840  51.672  1.00  0.00     0.260 C 
HETATM    5  O1  UNL     1      24.672   2.918  51.804  1.00  0.00    -0.316 OA
HETATM    6  C5  UNL     1      24.506   3.183  53.207  1.00  0.00     0.143 C 
HETATM    7  C6  UNL     1      23.537   2.288  53.083  1.00  0.00     0.025 C 
HETATM    8  C7  UNL     1      22.786   1.392  52.229  1.00  0.00     0.007 C 
HETATM    9  C8  UNL     1      21.811   0.456  52.188  1.00  0.00    -0.056 C 
HETATM   10  C11 UNL     1      21.514   0.177  53.596  1.00  0.00     0.128 C 
HETATM   11  C18 UNL     1      22.513  -0.971  54.016  1.00  0.00     0.151 C 
HETATM   12  N4  UNL     1      23.842  -0.508  53.565  1.00  0.00    -0.372 N 
HETATM   13  H21 UNL     1      24.061  -1.167  52.748  1.00  0.00     0.161 HD
ENDROOT
BRANCH  10  14
HETATM   14  N3  UNL     1      20.232  -0.237  53.977  1.00  0.00    -0.380 N 
HETATM   15  H14 UNL     1      20.111  -0.145  55.047  1.00  0.00     0.160 HD
BRANCH  14  16
HETATM   16  C12 UNL     1      19.059  -0.735  53.397  1.00  0.00     0.029 A 
HETATM   17  C13 UNL     1      18.284  -0.092  52.457  1.00  0.00     0.029 A 
HETATM   18  C14 UNL     1      17.138  -0.559  51.863  1.00  0.00     0.004 A 
HETATM   19  C15 UNL     1      16.712  -1.818  52.251  1.00  0.00     0.019 A 
HETATM   20  C16 UNL     1      17.413  -2.538  53.179  1.00  0.00     0.013 A 
HETATM   21 BR1  UNL     1      16.800  -4.264  53.691  1.00  0.00    -0.051 Br
HETATM   22  C17 UNL     1      18.544  -1.984  53.714  1.00  0.00     0.048 A 
ENDBRANCH  14  16
ENDBRANCH  10  14
BRANCH   9  23
HETATM   23  C9  UNL     1      21.562  -0.041  50.865  1.00  0.00     0.032 C 
HETATM   24  C10 UNL     1      21.527   1.077  49.808  1.00  0.00     0.010 C 
ENDBRANCH   9  23
BRANCH   1  25
HETATM   25  N1  UNL     1      27.412  -0.092  53.539  1.00  0.00    -0.316 NA
HETATM   26  C1  UNL     1      28.439  -0.090  54.303  1.00  0.00     0.259 C 
ENDBRANCH   1  25
TORSDOF 4
ENDMDL
MODEL 2
REMARK VINA RESULT:      -7.4      4.322      7.767
REMARK  4 active torsions:
REMARK  status: ('A' for Active; 'I' for Inactive)
REMARK    1  A    between atoms: N1_2  and  C2_3 
REMARK    2  A    between atoms: C8_11  and  C9_12 
REMARK    3  A    between atoms: C11_14  and  N3_15 
REMARK    4  A    between atoms: N3_15  and  C12_16 
ROOT
HETATM    1  C2  UNL     1      20.481   3.900  51.738  1.00  0.00     0.099 C 
HETATM    2  C3  UNL     1      21.530   3.955  50.890  1.00  0.00     0.135 C 
HETATM    3  N2  UNL     1      20.955   4.125  49.658  1.00  0.00    -0.219 NA
HETATM    4  C4  UNL     1      21.064   3.680  48.496  1.00  0.00     0.260 C 
HETATM    5  O1  UNL     1      21.941   2.683  47.887  1.00  0.00    -0.316 OA
HETATM    6  C5  UNL     1      21.911   1.512  48.719  1.00  0.00     0.143 C 
HETATM    7  C6  UNL     1      22.947   2.107  49.293  1.00  0.00     0.025 C 
HETATM    8  C7  UNL     1      23.857   3.233  49.333  1.00  0.00     0.007 C 
HETATM    9  C8  UNL     1      24.891   3.800  49.995  1.00  0.00    -0.056 C 
HETATM   10  C11 UNL     1      25.027   2.998  51.214  1.00  0.00     0.128 C 
HETATM   11  C18 UNL     1      24.063   3.670  52.269  1.00  0.00     0.151 C 
HETATM   12  N4  UNL     1      22.773   3.825  51.565  1.00  0.00    -0.372 N 
HETATM   13  H21 UNL     1      22.703   4.887  51.424  1.00  0.00     0.161 HD
ENDROOT
BRANCH  10  14
HETATM   14  N3  UNL     1      26.276   2.860  51.832  1.00  0.00    -0.380 N 
HETATM   15  H14 UNL     1      26.813   3.798  51.806  1.00  0.00     0.160 HD
BRANCH  14  16
HETATM   16  C12 UNL     1      27.044   1.880  52.472  1.00  0.00     0.029 A 
HETATM   17  C13 UNL     1      28.068   2.108  53.365  1.00  0.00     0.029 A 
HETATM   18  C14 UNL     1      28.829   1.169  54.016  1.00  0.00     0.004 A 
HETATM   19  C15 UNL     1      28.535  -0.157  53.746  1.00  0.00     0.019 A 
HETATM   20  C16 UNL     1      27.535  -0.488  52.872  1.00  0.00     0.013 A 
HETATM   21 BR1  UNL     1      27.158  -2.319  52.523  1.00  0.00    -0.051 Br
HETATM   22  C17 UNL     1      26.833   0.523  52.274  1.00  0.00     0.048 A 
ENDBRANCH  14  16
ENDBRANCH  10  14
BRANCH   9  23
HETATM   23  C9  UNL     1      25.337   5.027  49.399  1.00  0.00     0.032 C 
HETATM   24  C10 UNL     1      24.197   5.804  48.718  1.00  0.00     0.010 C 
ENDBRANCH   9  23
BRANCH   1  25
HETATM   25  N1  UNL     1      19.214   4.029  51.101  1.00  0.00    -0.316 NA
HETATM   26  C1  UNL     1      18.110   3.590  51.578  1.00  0.00     0.259 C 
ENDBRANCH   1  25
TORSDOF 4
ENDMDL
MODEL 3
REMARK VINA RESULT:      -7.2      5.680      7.414
REMARK  4 active torsions:
REMARK  status: ('A' for Active; 'I' for Inactive)
REMARK    1  A    between atoms: N1_2  and  C2_3 
REMARK    2  A    between atoms: C8_11  and  C9_12 
REMARK    3  A    between atoms: C11_14  and  N3_15 
REMARK    4  A    between atoms: N3_15  and  C12_16 
ROOT
HETATM    1  C2  UNL     1      28.870   0.944  53.148  1.00  0.00     0.099 C 
HETATM    2  C3  UNL     1      27.582   1.323  53.285  1.00  0.00     0.135 C 
HETATM    3  N2  UNL     1      27.202   0.788  54.488  1.00  0.00    -0.219 NA
HETATM    4  C4  UNL     1      26.237   0.168  54.983  1.00  0.00     0.260 C 
HETATM    5  O1  UNL     1      24.968  -0.304  54.437  1.00  0.00    -0.316 OA
HETATM    6  C5  UNL     1      25.254  -1.001  53.213  1.00  0.00     0.143 C 
HETATM    7  C6  UNL     1      25.061   0.199  52.688  1.00  0.00     0.025 C 
HETATM    8  C7  UNL     1      24.730   1.596  52.887  1.00  0.00     0.007 C 
HETATM    9  C8  UNL     1      24.590   2.798  52.285  1.00  0.00    -0.056 C 
HETATM   10  C11 UNL     1      25.111   2.592  50.931  1.00  0.00     0.128 C 
HETATM   11  C18 UNL     1      26.659   2.888  51.027  1.00  0.00     0.151 C 
HETATM   12  N4  UNL     1      27.131   2.099  52.184  1.00  0.00    -0.372 N 
HETATM   13  H21 UNL     1      27.349   2.853  52.915  1.00  0.00     0.161 HD
ENDROOT
BRANCH  10  14
HETATM   14  N3  UNL     1      24.616   3.349  49.862  1.00  0.00    -0.380 N 
HETATM   15  H14 UNL     1      23.879   2.781  49.311  1.00  0.00     0.160 HD
BRANCH  14  16
HETATM   16  C12 UNL     1      24.784   4.614  49.287  1.00  0.00     0.029 A 
HETATM   17  C13 UNL     1      23.775   5.483  48.933  1.00  0.00     0.029 A 
HETATM   18  C14 UNL     1      23.908   6.732  48.380  1.00  0.00     0.004 A 
HETATM   19  C15 UNL     1      25.202   7.169  48.152  1.00  0.00     0.019 A 
HETATM   20  C16 UNL     1      26.273   6.380  48.469  1.00  0.00     0.013 A 
HETATM   21 BR1  UNL     1      28.038   7.011  48.142  1.00  0.00    -0.051 Br
HETATM   22  C17 UNL     1      26.035   5.149  49.017  1.00  0.00     0.048 A 
ENDBRANCH  14  16
ENDBRANCH  10  14
BRANCH   9  23
HETATM   23  C9  UNL     1      24.184   3.837  53.189  1.00  0.00     0.032 C 
HETATM   24  C10 UNL     1      23.017   4.677  52.641  1.00  0.00     0.010 C 
ENDBRANCH   9  23
BRANCH   1  25
HETATM   25  N1  UNL     1      29.362   0.165  54.233  1.00  0.00    -0.316 NA
HETATM   26  C1  UNL     1      30.024  -0.924  54.109  1.00  0.00     0.259 C 
ENDBRANCH   1  25
TORSDOF 4
ENDMDL
MODEL 4
REMARK VINA RESULT:      -7.1      5.062      7.994
REMARK  4 active torsions:
REMARK  status: ('A' for Active; 'I' for Inactive)
REMARK    1  A    between atoms: N1_2  and  C2_3 
REMARK    2  A    between atoms: C8_11  and  C9_12 
REMARK    3  A    between atoms: C11_14  and  N3_15 
REMARK    4  A    between atoms: N3_15  and  C12_16 
ROOT
HETATM    1  C2  UNL     1      21.275   7.591  50.448  1.00  0.00     0.099 C 
HETATM    2  C3  UNL     1      22.308   7.001  49.810  1.00  0.00     0.135 C 
HETATM    3  N2  UNL     1      22.169   7.402  48.507  1.00  0.00    -0.219 NA
HETATM    4  C4  UNL     1      22.222   6.914  47.359  1.00  0.00     0.260 C 
HETATM    5  O1  UNL     1      22.481   5.567  46.858  1.00  0.00    -0.316 OA
HETATM    6  C5  UNL     1      21.644   4.661  47.595  1.00  0.00     0.143 C 
HETATM    7  C6  UNL     1      22.707   4.597  48.384  1.00  0.00     0.025 C 
HETATM    8  C7  UNL     1      24.066   5.014  48.660  1.00  0.00     0.007 C 
HETATM    9  C8  UNL     1      25.095   4.933  49.533  1.00  0.00    -0.056 C 
HETATM   10  C11 UNL     1      24.528   4.258  50.704  1.00  0.00     0.128 C 
HETATM   11  C18 UNL     1      23.933   5.409  51.606  1.00  0.00     0.151 C 
HETATM   12  N4  UNL     1      23.112   6.229  50.690  1.00  0.00    -0.372 N 
HETATM   13  H21 UNL     1      23.678   7.136  50.607  1.00  0.00     0.161 HD
ENDROOT
BRANCH  10  14
HETATM   14  N3  UNL     1      25.342   3.472  51.529  1.00  0.00    -0.380 N 
HETATM   15  H14 UNL     1      26.111   4.080  51.984  1.00  0.00     0.160 HD
BRANCH  14  16
HETATM   16  C12 UNL     1      25.466   2.140  51.943  1.00  0.00     0.029 A 
HETATM   17  C13 UNL     1      26.573   1.338  51.769  1.00  0.00     0.029 A 
HETATM   18  C14 UNL     1      26.728   0.036  52.174  1.00  0.00     0.004 A 
HETATM   19  C15 UNL     1      25.653  -0.537  52.831  1.00  0.00     0.019 A 
HETATM   20  C16 UNL     1      24.507   0.177  53.052  1.00  0.00     0.013 A 
HETATM   21 BR1  UNL     1      23.047  -0.641  53.956  1.00  0.00    -0.051 Br
HETATM   22  C17 UNL     1      24.451   1.471  52.609  1.00  0.00     0.048 A 
ENDBRANCH  14  16
ENDBRANCH  10  14
BRANCH   9  23
HETATM   23  C9  UNL     1      26.255   5.662  49.108  1.00  0.00     0.032 C 
HETATM   24  C10 UNL     1      27.434   4.742  48.744  1.00  0.00     0.010 C 
ENDBRANCH   9  23
BRANCH   1  25
HETATM   25  N1  UNL     1      20.445   8.379  49.600  1.00  0.00    -0.316 NA
HETATM   26  C1  UNL     1      19.588   9.237  50.011  1.00  0.00     0.259 C 
ENDBRANCH   1  25
TORSDOF 4
ENDMDL
MODEL 5
REMARK VINA RESULT:      -7.1      4.175      5.581
REMARK  4 active torsions:
REMARK  status: ('A' for Active; 'I' for Inactive)
REMARK    1  A    between atoms: N1_2  and  C2_3 
REMARK    2  A    between atoms: C8_11  and  C9_12 
REMARK    3  A    between atoms: C11_14  and  N3_15 
REMARK    4  A    between atoms: N3_15  and  C12_16 
ROOT
HETATM    1  C2  UNL     1      28.616   2.510  53.617  1.00  0.00     0.099 C 
HETATM    2  C3  UNL     1      27.353   2.050  53.490  1.00  0.00     0.135 C 
HETATM    3  N2  UNL     1      27.214   1.164  54.526  1.00  0.00    -0.219 NA
HETATM    4  C4  UNL     1      26.758   0.020  54.735  1.00  0.00     0.260 C 
HETATM    5  O1  UNL     1      26.109  -0.968  53.877  1.00  0.00    -0.316 OA
HETATM    6  C5  UNL     1      26.913  -1.112  52.695  1.00  0.00     0.143 C 
HETATM    7  C6  UNL     1      26.112  -0.158  52.244  1.00  0.00     0.025 C 
HETATM    8  C7  UNL     1      24.988   0.725  52.481  1.00  0.00     0.007 C 
HETATM    9  C8  UNL     1      24.237   1.726  51.969  1.00  0.00    -0.056 C 
HETATM   10  C11 UNL     1      24.951   2.133  50.755  1.00  0.00     0.128 C 
HETATM   11  C18 UNL     1      25.985   3.231  51.224  1.00  0.00     0.151 C 
HETATM   12  N4  UNL     1      26.677   2.635  52.386  1.00  0.00    -0.372 N 
HETATM   13  H21 UNL     1      26.303   3.212  53.210  1.00  0.00     0.161 HD
ENDROOT
BRANCH  10  14
HETATM   14  N3  UNL     1      24.248   2.671  49.671  1.00  0.00    -0.380 N 
HETATM   15  H14 UNL     1      24.899   3.292  49.072  1.00  0.00     0.160 HD
BRANCH  14  16
HETATM   16  C12 UNL     1      22.958   2.652  49.125  1.00  0.00     0.029 A 
HETATM   17  C13 UNL     1      22.052   1.619  49.224  1.00  0.00     0.029 A 
HETATM   18  C14 UNL     1      20.780   1.576  48.711  1.00  0.00     0.004 A 
HETATM   19  C15 UNL     1      20.359   2.696  48.015  1.00  0.00     0.019 A 
HETATM   20  C16 UNL     1      21.185   3.776  47.860  1.00  0.00     0.013 A 
HETATM   21 BR1  UNL     1      20.575   5.298  46.897  1.00  0.00    -0.051 Br
HETATM   22  C17 UNL     1      22.437   3.720  48.410  1.00  0.00     0.048 A 
ENDBRANCH  14  16
ENDBRANCH  10  14
BRANCH   9  23
HETATM   23  C9  UNL     1      23.176   2.138  52.843  1.00  0.00     0.032 C 
HETATM   24  C10 UNL     1      22.204   0.993  53.176  1.00  0.00     0.010 C 
ENDBRANCH   9  23
BRANCH   1  25
HETATM   25  N1  UNL     1      29.328   1.949  54.715  1.00  0.00    -0.316 NA
HETATM   26  C1  UNL     1      30.443   2.391  55.162  1.00  0.00     0.259 C 
ENDBRANCH   1  25
TORSDOF 4
ENDMDL
MODEL 6
REMARK VINA RESULT:      -7.1      3.797      7.699
REMARK  4 active torsions:
REMARK  status: ('A' for Active; 'I' for Inactive)
REMARK    1  A    between atoms: N1_2  and  C2_3 
REMARK    2  A    between atoms: C8_11  and  C9_12 
REMARK    3  A    between atoms: C11_14  and  N3_15 
REMARK    4  A    between atoms: N3_15  and  C12_16 
ROOT
HETATM    1  C2  UNL     1      17.333   3.800  51.568  1.00  0.00     0.099 C 
HETATM    2  C3  UNL     1      18.172   2.841  51.121  1.00  0.00     0.135 C 
HETATM    3  N2  UNL     1      17.412   2.116  50.241  1.00  0.00    -0.219 NA
HETATM    4  C4  UNL     1      17.179   0.922  49.957  1.00  0.00     0.260 C 
HETATM    5  O1  UNL     1      17.665  -0.346  50.495  1.00  0.00    -0.316 OA
HETATM    6  C5  UNL     1      17.541  -0.286  51.926  1.00  0.00     0.143 C 
HETATM    7  C6  UNL     1      18.779   0.179  51.839  1.00  0.00     0.025 C 
HETATM    8  C7  UNL     1      19.909   0.532  51.005  1.00  0.00     0.007 C 
HETATM    9  C8  UNL     1      21.157   1.053  50.992  1.00  0.00    -0.056 C 
HETATM   10  C11 UNL     1      21.353   1.566  52.350  1.00  0.00     0.128 C 
HETATM   11  C18 UNL     1      20.801   3.046  52.324  1.00  0.00     0.151 C 
HETATM   12  N4  UNL     1      19.464   2.946  51.702  1.00  0.00    -0.372 N 
HETATM   13  H21 UNL     1      19.609   3.410  50.745  1.00  0.00     0.161 HD
ENDROOT
BRANCH  10  14
HETATM   14  N3  UNL     1      22.637   1.619  52.906  1.00  0.00    -0.380 N 
HETATM   15  H14 UNL     1      22.579   1.825  53.966  1.00  0.00     0.160 HD
BRANCH  14  16
HETATM   16  C12 UNL     1      23.973   1.489  52.509  1.00  0.00     0.029 A 
HETATM   17  C13 UNL     1      24.727   2.453  51.876  1.00  0.00     0.029 A 
HETATM   18  C14 UNL     1      26.040   2.360  51.486  1.00  0.00     0.004 A 
HETATM   19  C15 UNL     1      26.679   1.163  51.759  1.00  0.00     0.019 A 
HETATM   20  C16 UNL     1      26.017   0.142  52.385  1.00  0.00     0.013 A 
HETATM   21 BR1  UNL     1      26.925  -1.490  52.744  1.00  0.00    -0.051 Br
HETATM   22  C17 UNL     1      24.707   0.334  52.734  1.00  0.00     0.048 A 
ENDBRANCH  14  16
ENDBRANCH  10  14
BRANCH   9  23
HETATM   23  C9  UNL     1      21.739   1.088  49.680  1.00  0.00     0.032 C 
HETATM   24  C10 UNL     1      20.813   1.741  48.639  1.00  0.00     0.010 C 
ENDBRANCH   9  23
BRANCH   1  25
HETATM   25  N1  UNL     1      16.026   3.732  51.007  1.00  0.00    -0.316 NA
HETATM   26  C1  UNL     1      14.950   4.049  51.624  1.00  0.00     0.259 C 
ENDBRANCH   1  25
TORSDOF 4
ENDMDL
MODEL 7
REMARK VINA RESULT:      -7.0      5.236      7.853
REMARK  4 active torsions:
REMARK  status: ('A' for Active; 'I' for Inactive)
REMARK    1  A    between atoms: N1_2  and  C2_3 
REMARK    2  A    between atoms: C8_11  and  C9_12 
REMARK    3  A    between atoms: C11_14  and  N3_15 
REMARK    4  A    between atoms: N3_15  and  C12_16 
ROOT
HETATM    1  C2  UNL     1      21.792   6.939  50.824  1.00  0.00     0.099 C 
HETATM    2  C3  UNL     1      22.642   5.999  50.359  1.00  0.00     0.135 C 
HETATM    3  N2  UNL     1      22.708   6.244  49.013  1.00  0.00    -0.219 NA
HETATM    4  C4  UNL     1      22.685   5.612  47.936  1.00  0.00     0.260 C 
HETATM    5  O1  UNL     1      22.565   4.192  47.614  1.00  0.00    -0.316 OA
HETATM    6  C5  UNL     1      21.454   3.670  48.361  1.00  0.00     0.143 C 
HETATM    7  C6  UNL     1      22.400   3.412  49.253  1.00  0.00     0.025 C 
HETATM    8  C7  UNL     1      23.802   3.457  49.613  1.00  0.00     0.007 C 
HETATM    9  C8  UNL     1      24.706   3.203  50.587  1.00  0.00    -0.056 C 
HETATM   10  C11 UNL     1      23.893   2.881  51.763  1.00  0.00     0.128 C 
HETATM   11  C18 UNL     1      23.611   4.265  52.470  1.00  0.00     0.151 C 
HETATM   12  N4  UNL     1      23.126   5.154  51.394  1.00  0.00    -0.372 N 
HETATM   13  H21 UNL     1      23.940   5.842  51.267  1.00  0.00     0.161 HD
ENDROOT
BRANCH  10  14
HETATM   14  N3  UNL     1      24.387   2.014  52.746  1.00  0.00    -0.380 N 
HETATM   15  H14 UNL     1      23.731   2.008  53.605  1.00  0.00     0.160 HD
BRANCH  14  16
HETATM   16  C12 UNL     1      25.471   1.153  52.957  1.00  0.00     0.029 A 
HETATM   17  C13 UNL     1      25.490  -0.201  52.708  1.00  0.00     0.029 A 
HETATM   18  C14 UNL     1      26.539  -1.067  52.892  1.00  0.00     0.004 A 
HETATM   19  C15 UNL     1      27.710  -0.518  53.385  1.00  0.00     0.019 A 
HETATM   20  C16 UNL     1      27.793   0.819  53.665  1.00  0.00     0.013 A 
HETATM   21 BR1  UNL     1      29.418   1.541  54.341  1.00  0.00    -0.051 Br
HETATM   22  C17 UNL     1      26.690   1.599  53.446  1.00  0.00     0.048 A 
ENDBRANCH  14  16
ENDBRANCH  10  14
BRANCH   9  23
HETATM   23  C9  UNL     1      26.053   3.507  50.199  1.00  0.00     0.032 C 
HETATM   24  C10 UNL     1      26.149   4.775  49.333  1.00  0.00     0.010 C 
ENDBRANCH   9  23
BRANCH   1  25
HETATM   25  N1  UNL     1      21.286   7.809  49.818  1.00  0.00    -0.316 NA
HETATM   26  C1  UNL     1      20.222   8.513  49.930  1.00  0.00     0.259 C 
ENDBRANCH   1  25
TORSDOF 4
ENDMDL
MODEL 8
REMARK VINA RESULT:      -7.0      4.969      7.748
REMARK  4 active torsions:
REMARK  status: ('A' for Active; 'I' for Inactive)
REMARK    1  A    between atoms: N1_2  and  C2_3 
REMARK    2  A    between atoms: C8_11  and  C9_12 
REMARK    3  A    between atoms: C11_14  and  N3_15 
REMARK    4  A    between atoms: N3_15  and  C12_16 
ROOT
HETATM    1  C2  UNL     1      22.140   0.457  53.615  1.00  0.00     0.099 C 
HETATM    2  C3  UNL     1      23.112   1.047  52.886  1.00  0.00     0.135 C 
HETATM    3  N2  UNL     1      24.015   0.043  52.659  1.00  0.00    -0.219 NA
HETATM    4  C4  UNL     1      25.251  -0.138  52.684  1.00  0.00     0.260 C 
HETATM    5  O1  UNL     1      26.381   0.731  52.998  1.00  0.00    -0.316 OA
HETATM    6  C5  UNL     1      26.090   1.390  54.241  1.00  0.00     0.143 C 
HETATM    7  C6  UNL     1      25.578   2.308  53.434  1.00  0.00     0.025 C 
HETATM    8  C7  UNL     1      25.307   2.749  52.082  1.00  0.00     0.007 C 
HETATM    9  C8  UNL     1      24.727   3.706  51.323  1.00  0.00    -0.056 C 
HETATM   10  C11 UNL     1      23.983   4.530  52.280  1.00  0.00     0.128 C 
HETATM   11  C18 UNL     1      22.562   3.851  52.403  1.00  0.00     0.151 C 
HETATM   12  N4  UNL     1      22.839   2.419  52.639  1.00  0.00    -0.372 N 
HETATM   13  H21 UNL     1      22.534   1.960  51.719  1.00  0.00     0.161 HD
ENDROOT
BRANCH  10  14
HETATM   14  N3  UNL     1      23.766   5.889  52.023  1.00  0.00    -0.380 N 
HETATM   15  H14 UNL     1      23.258   6.352  52.857  1.00  0.00     0.160 HD
BRANCH  14  16
HETATM   16  C12 UNL     1      24.003   6.831  51.015  1.00  0.00     0.029 A 
HETATM   17  C13 UNL     1      23.045   7.440  50.234  1.00  0.00     0.029 A 
HETATM   18  C14 UNL     1      23.246   8.374  49.248  1.00  0.00     0.004 A 
HETATM   19  C15 UNL     1      24.558   8.747  49.011  1.00  0.00     0.019 A 
HETATM   20  C16 UNL     1      25.583   8.199  49.734  1.00  0.00     0.013 A 
HETATM   21 BR1  UNL     1      27.374   8.733  49.382  1.00  0.00    -0.051 Br
HETATM   22  C17 UNL     1      25.278   7.274  50.696  1.00  0.00     0.048 A 
ENDBRANCH  14  16
ENDBRANCH  10  14
BRANCH   9  23
HETATM   23  C9  UNL     1      24.879   3.479  49.914  1.00  0.00     0.032 C 
HETATM   24  C10 UNL     1      26.240   3.959  49.380  1.00  0.00     0.010 C 
ENDBRANCH   9  23
BRANCH   1  25
HETATM   25  N1  UNL     1      22.374  -0.921  53.882  1.00  0.00    -0.316 NA
HETATM   26  C1  UNL     1      21.513  -1.722  54.389  1.00  0.00     0.259 C 
ENDBRANCH   1  25
TORSDOF 4
ENDMDL
MODEL 9
REMARK VINA RESULT:      -6.9      4.184      6.292
REMARK  4 active torsions:
REMARK  status: ('A' for Active; 'I' for Inactive)
REMARK    1  A    between atoms: N1_2  and  C2_3 
REMARK    2  A    between atoms: C8_11  and  C9_12 
REMARK    3  A    between atoms: C11_14  and  N3_15 
REMARK    4  A    between atoms: N3_15  and  C12_16 
ROOT
HETATM    1  C2  UNL     1      21.612   6.873  50.749  1.00  0.00     0.099 C 
HETATM    2  C3  UNL     1      22.441   5.963  50.195  1.00  0.00     0.135 C 
HETATM    3  N2  UNL     1      22.724   6.478  48.957  1.00  0.00    -0.219 NA
HETATM    4  C4  UNL     1      22.806   6.093  47.771  1.00  0.00     0.260 C 
HETATM    5  O1  UNL     1      22.618   4.797  47.127  1.00  0.00    -0.316 OA
HETATM    6  C5  UNL     1      21.371   4.257  47.593  1.00  0.00     0.143 C 
HETATM    7  C6  UNL     1      22.151   3.712  48.515  1.00  0.00     0.025 C 
HETATM    8  C7  UNL     1      23.485   3.521  49.048  1.00  0.00     0.007 C 
HETATM    9  C8  UNL     1      24.212   2.968  50.044  1.00  0.00    -0.056 C 
HETATM   10  C11 UNL     1      23.212   2.498  51.008  1.00  0.00     0.128 C 
HETATM   11  C18 UNL     1      22.944   3.724  51.966  1.00  0.00     0.151 C 
HETATM   12  N4  UNL     1      22.697   4.870  51.065  1.00  0.00    -0.372 N 
HETATM   13  H21 UNL     1      23.574   5.473  51.198  1.00  0.00     0.161 HD
ENDROOT
BRANCH  10  14
HETATM   14  N3  UNL     1      23.484   1.393  51.824  1.00  0.00    -0.380 N 
HETATM   15  H14 UNL     1      24.534   1.141  51.776  1.00  0.00     0.160 HD
BRANCH  14  16
HETATM   16  C12 UNL     1      22.811   0.514  52.681  1.00  0.00     0.029 A 
HETATM   17  C13 UNL     1      23.377  -0.197  53.717  1.00  0.00     0.029 A 
HETATM   18  C14 UNL     1      22.743  -1.055  54.580  1.00  0.00     0.004 A 
HETATM   19  C15 UNL     1      21.382  -1.227  54.390  1.00  0.00     0.019 A 
HETATM   20  C16 UNL     1      20.727  -0.565  53.387  1.00  0.00     0.013 A 
HETATM   21 BR1  UNL     1      18.858  -0.823  53.152  1.00  0.00    -0.051 Br
HETATM   22  C17 UNL     1      21.450   0.270  52.579  1.00  0.00     0.048 A 
ENDBRANCH  14  16
ENDBRANCH  10  14
BRANCH   9  23
HETATM   23  C9  UNL     1      25.622   3.194  49.906  1.00  0.00     0.032 C 
HETATM   24  C10 UNL     1      25.949   4.610  49.401  1.00  0.00     0.010 C 
ENDBRANCH   9  23
BRANCH   1  25
HETATM   25  N1  UNL     1      21.333   7.987  49.909  1.00  0.00    -0.316 NA
HETATM   26  C1  UNL     1      20.239   8.652  49.920  1.00  0.00     0.259 C 
ENDBRANCH   1  25
TORSDOF 4
ENDMDL
