MODEL 1
REMARK VINA RESULT:      -9.0      0.000      0.000
REMARK  2 active torsions:
REMARK  status: ('A' for Active; 'I' for Inactive)
REMARK    1  A    between atoms: C1_1  and  C8_9 
REMARK    2  A    between atoms: C2_2  and  C3_3 
ROOT
HETATM    1  C8  UNL     1      22.909  -0.940  54.498  1.00  0.00     0.065 C 
HETATM    2  N2  UNL     1      21.882  -1.521  54.972  1.00  0.00    -0.178 NA
HETATM    3  N3  UNL     1      20.564  -1.440  54.536  1.00  0.00    -0.278 N 
HETATM    4  C9  UNL     1      20.134  -0.606  53.441  1.00  0.00     0.055 C 
HETATM    5  C10 UNL     1      18.909  -0.530  52.936  1.00  0.00     0.031 C 
HETATM    6  C11 UNL     1      18.588  -0.226  51.632  1.00  0.00     0.002 C 
HETATM    7  C12 UNL     1      19.306   0.605  50.817  1.00  0.00     0.001 C 
HETATM    8  C13 UNL     1      19.668   1.883  50.428  1.00  0.00     0.007 C 
HETATM    9  C14 UNL     1      20.474   2.707  51.206  1.00  0.00     0.046 C 
HETATM   10  S1  UNL     1      21.793   2.381  52.216  1.00  0.00    -0.123 SA
HETATM   11  C15 UNL     1      22.407   0.894  52.686  1.00  0.00     0.074 A 
HETATM   12  C16 UNL     1      21.288  -0.019  53.110  1.00  0.00    -0.018 A 
HETATM   13  C17 UNL     1      22.683  -0.395  53.118  1.00  0.00     0.098 A 
HETATM   14  H7  UNL     1      19.855  -2.044  55.066  1.00  0.00     0.189 HD
ENDROOT
BRANCH   1  15
HETATM   15  C1  UNL     1      24.309  -0.892  54.831  1.00  0.00     0.032 C 
HETATM   16  C2  UNL     1      25.130  -0.721  53.795  1.00  0.00     0.034 C 
BRANCH  16  17
HETATM   17  C3  UNL     1      26.562  -0.645  53.885  1.00  0.00     0.056 A 
HETATM   18  C4  UNL     1      27.408  -1.316  52.985  1.00  0.00     0.031 A 
HETATM   19  C5  UNL     1      28.778  -1.258  53.052  1.00  0.00     0.004 A 
HETATM   20  C6  UNL     1      29.396  -0.520  54.030  1.00  0.00     0.019 A 
HETATM   21  C7  UNL     1      28.555   0.127  54.898  1.00  0.00     0.117 A 
HETATM   22  N1  UNL     1      27.197   0.078  54.844  1.00  0.00    -0.261 NA
ENDBRANCH  16  17
ENDBRANCH   1  15
TORSDOF 2
ENDMDL
MODEL 2
REMARK VINA RESULT:      -8.1      1.416      1.751
REMARK  2 active torsions:
REMARK  status: ('A' for Active; 'I' for Inactive)
REMARK    1  A    between atoms: C1_1  and  C8_9 
REMARK    2  A    between atoms: C2_2  and  C3_3 
ROOT
HETATM    1  C8  UNL     1      23.605   0.097  53.048  1.00  0.00     0.065 C 
HETATM    2  N2  UNL     1      22.729  -0.786  53.311  1.00  0.00    -0.178 NA
HETATM    3  N3  UNL     1      21.388  -0.810  52.943  1.00  0.00    -0.278 N 
HETATM    4  C9  UNL     1      20.744   0.243  52.198  1.00  0.00     0.055 C 
HETATM    5  C10 UNL     1      19.491   0.254  51.763  1.00  0.00     0.031 C 
HETATM    6  C11 UNL     1      19.029   0.905  50.641  1.00  0.00     0.002 C 
HETATM    7  C12 UNL     1      19.534   2.075  50.144  1.00  0.00     0.001 C 
HETATM    8  C13 UNL     1      19.645   3.454  50.204  1.00  0.00     0.007 C 
HETATM    9  C14 UNL     1      20.354   4.110  51.204  1.00  0.00     0.046 C 
HETATM   10  S1  UNL     1      21.780   3.718  52.030  1.00  0.00    -0.123 SA
HETATM   11  C15 UNL     1      22.669   2.299  51.965  1.00  0.00     0.074 A 
HETATM   12  C16 UNL     1      21.755   1.108  52.070  1.00  0.00    -0.018 A 
HETATM   13  C17 UNL     1      23.190   1.014  51.935  1.00  0.00     0.098 A 
HETATM   14  H7  UNL     1      20.832  -1.674  53.247  1.00  0.00     0.189 HD
ENDROOT
BRANCH   1  15
HETATM   15  C1  UNL     1      24.997   0.289  53.362  1.00  0.00     0.032 C 
HETATM   16  C2  UNL     1      25.805  -0.696  52.972  1.00  0.00     0.034 C 
BRANCH  16  17
HETATM   17  C3  UNL     1      27.227  -0.724  53.176  1.00  0.00     0.056 A 
HETATM   18  C4  UNL     1      27.976   0.445  53.397  1.00  0.00     0.031 A 
HETATM   19  C5  UNL     1      29.335   0.443  53.593  1.00  0.00     0.004 A 
HETATM   20  C6  UNL     1      30.038  -0.735  53.582  1.00  0.00     0.019 A 
HETATM   21  C7  UNL     1      29.290  -1.864  53.365  1.00  0.00     0.117 A 
HETATM   22  N1  UNL     1      27.945  -1.877  53.169  1.00  0.00    -0.261 NA
ENDBRANCH  16  17
ENDBRANCH   1  15
TORSDOF 2
ENDMDL
MODEL 3
REMARK VINA RESULT:      -8.1      5.450      6.588
REMARK  2 active torsions:
REMARK  status: ('A' for Active; 'I' for Inactive)
REMARK    1  A    between atoms: C1_1  and  C8_9 
REMARK    2  A    between atoms: C2_2  and  C3_3 
ROOT
HETATM    1  C8  UNL     1      24.167   3.428  50.522  1.00  0.00     0.065 C 
HETATM    2  N2  UNL     1      23.029   2.991  50.161  1.00  0.00    -0.178 NA
HETATM    3  N3  UNL     1      22.330   1.894  50.652  1.00  0.00    -0.278 N 
HETATM    4  C9  UNL     1      22.837   1.014  51.676  1.00  0.00     0.055 C 
HETATM    5  C10 UNL     1      22.199  -0.008  52.231  1.00  0.00     0.031 C 
HETATM    6  C11 UNL     1      22.383  -0.479  53.512  1.00  0.00     0.002 C 
HETATM    7  C12 UNL     1      23.564  -0.446  54.201  1.00  0.00     0.001 C 
HETATM    8  C13 UNL     1      24.827  -0.960  54.440  1.00  0.00     0.007 C 
HETATM    9  C14 UNL     1      25.880  -0.815  53.543  1.00  0.00     0.046 C 
HETATM   10  S1  UNL     1      26.325   0.447  52.506  1.00  0.00    -0.123 SA
HETATM   11  C15 UNL     1      25.490   1.859  52.160  1.00  0.00     0.074 A 
HETATM   12  C16 UNL     1      24.042   1.552  51.888  1.00  0.00    -0.018 A 
HETATM   13  C17 UNL     1      24.606   2.881  51.849  1.00  0.00     0.098 A 
HETATM   14  H7  UNL     1      21.363   1.721  50.223  1.00  0.00     0.189 HD
ENDROOT
BRANCH   1  15
HETATM   15  C1  UNL     1      25.029   4.508  50.116  1.00  0.00     0.032 C 
HETATM   16  C2  UNL     1      26.046   4.154  49.330  1.00  0.00     0.034 C 
BRANCH  16  17
HETATM   17  C3  UNL     1      27.032   5.057  48.804  1.00  0.00     0.056 A 
HETATM   18  C4  UNL     1      26.721   6.379  48.443  1.00  0.00     0.031 A 
HETATM   19  C5  UNL     1      27.646   7.259  47.937  1.00  0.00     0.004 A 
HETATM   20  C6  UNL     1      28.950   6.872  47.759  1.00  0.00     0.019 A 
HETATM   21  C7  UNL     1      29.234   5.579  48.118  1.00  0.00     0.117 A 
HETATM   22  N1  UNL     1      28.328   4.698  48.619  1.00  0.00    -0.261 NA
ENDBRANCH  16  17
ENDBRANCH   1  15
TORSDOF 2
ENDMDL
MODEL 4
REMARK VINA RESULT:      -7.9      2.666      7.939
REMARK  2 active torsions:
REMARK  status: ('A' for Active; 'I' for Inactive)
REMARK    1  A    between atoms: C1_1  and  C8_9 
REMARK    2  A    between atoms: C2_2  and  C3_3 
ROOT
HETATM    1  C8  UNL     1      25.283   1.921  52.434  1.00  0.00     0.065 C 
HETATM    2  N2  UNL     1      25.761   2.609  53.391  1.00  0.00    -0.178 NA
HETATM    3  N3  UNL     1      26.899   2.360  54.150  1.00  0.00    -0.278 N 
HETATM    4  C9  UNL     1      27.736   1.197  53.981  1.00  0.00     0.055 C 
HETATM    5  C10 UNL     1      28.864   0.932  54.625  1.00  0.00     0.031 C 
HETATM    6  C11 UNL     1      29.923   0.200  54.137  1.00  0.00     0.002 C 
HETATM    7  C12 UNL     1      29.822  -0.843  53.259  1.00  0.00     0.001 C 
HETATM    8  C13 UNL     1      29.523  -2.171  53.005  1.00  0.00     0.007 C 
HETATM    9  C14 UNL     1      28.224  -2.669  53.030  1.00  0.00     0.046 C 
HETATM   10  S1  UNL     1      26.740  -1.996  52.571  1.00  0.00    -0.123 SA
HETATM   11  C15 UNL     1      26.410  -0.426  52.086  1.00  0.00     0.074 A 
HETATM   12  C16 UNL     1      27.072   0.555  53.015  1.00  0.00    -0.018 A 
HETATM   13  C17 UNL     1      26.271   0.938  51.876  1.00  0.00     0.098 A 
HETATM   14  H7  UNL     1      27.139   3.094  54.893  1.00  0.00     0.189 HD
ENDROOT
BRANCH   1  15
HETATM   15  C1  UNL     1      24.131   2.015  51.576  1.00  0.00     0.032 C 
HETATM   16  C2  UNL     1      23.068   1.320  51.980  1.00  0.00     0.034 C 
BRANCH  16  17
HETATM   17  C3  UNL     1      21.811   1.263  51.287  1.00  0.00     0.056 A 
HETATM   18  C4  UNL     1      21.722   1.338  49.885  1.00  0.00     0.031 A 
HETATM   19  C5  UNL     1      20.533   1.287  49.202  1.00  0.00     0.004 A 
HETATM   20  C6  UNL     1      19.347   1.157  49.878  1.00  0.00     0.019 A 
HETATM   21  C7  UNL     1      19.453   1.085  51.244  1.00  0.00     0.117 A 
HETATM   22  N1  UNL     1      20.623   1.135  51.933  1.00  0.00    -0.261 NA
ENDBRANCH  16  17
ENDBRANCH   1  15
TORSDOF 2
ENDMDL
MODEL 5
REMARK VINA RESULT:      -7.6      2.417      3.172
REMARK  2 active torsions:
REMARK  status: ('A' for Active; 'I' for Inactive)
REMARK    1  A    between atoms: C1_1  and  C8_9 
REMARK    2  A    between atoms: C2_2  and  C3_3 
ROOT
HETATM    1  C8  UNL     1      23.310   1.480  51.945  1.00  0.00     0.065 C 
HETATM    2  N2  UNL     1      22.993   1.590  50.719  1.00  0.00    -0.178 NA
HETATM    3  N3  UNL     1      21.798   1.239  50.101  1.00  0.00    -0.278 N 
HETATM    4  C9  UNL     1      20.689   0.627  50.791  1.00  0.00     0.055 C 
HETATM    5  C10 UNL     1      19.504   0.327  50.278  1.00  0.00     0.031 C 
HETATM    6  C11 UNL     1      18.310   0.289  50.963  1.00  0.00     0.002 C 
HETATM    7  C12 UNL     1      18.167  -0.052  52.279  1.00  0.00     0.001 C 
HETATM    8  C13 UNL     1      18.110  -1.021  53.267  1.00  0.00     0.007 C 
HETATM    9  C14 UNL     1      19.226  -1.742  53.678  1.00  0.00     0.046 C 
HETATM   10  S1  UNL     1      20.855  -1.314  53.854  1.00  0.00    -0.123 SA
HETATM   11  C15 UNL     1      21.614   0.113  53.412  1.00  0.00     0.074 A 
HETATM   12  C16 UNL     1      21.198   0.514  52.022  1.00  0.00    -0.018 A 
HETATM   13  C17 UNL     1      22.121   1.269  52.837  1.00  0.00     0.098 A 
HETATM   14  H7  UNL     1      21.731   1.448  49.052  1.00  0.00     0.189 HD
ENDROOT
BRANCH   1  15
HETATM   15  C1  UNL     1      24.482   1.763  52.733  1.00  0.00     0.032 C 
HETATM   16  C2  UNL     1      25.523   0.962  52.505  1.00  0.00     0.034 C 
BRANCH  16  17
HETATM   17  C3  UNL     1      26.792   1.054  53.171  1.00  0.00     0.056 A 
HETATM   18  C4  UNL     1      27.597   2.205  53.097  1.00  0.00     0.031 A 
HETATM   19  C5  UNL     1      28.814   2.315  53.723  1.00  0.00     0.004 A 
HETATM   20  C6  UNL     1      29.309   1.276  54.469  1.00  0.00     0.019 A 
HETATM   21  C7  UNL     1      28.510   0.162  54.529  1.00  0.00     0.117 A 
HETATM   22  N1  UNL     1      27.304   0.040  53.914  1.00  0.00    -0.261 NA
ENDBRANCH  16  17
ENDBRANCH   1  15
TORSDOF 2
ENDMDL
MODEL 6
REMARK VINA RESULT:      -7.6      4.700      5.934
REMARK  2 active torsions:
REMARK  status: ('A' for Active; 'I' for Inactive)
REMARK    1  A    between atoms: C1_1  and  C8_9 
REMARK    2  A    between atoms: C2_2  and  C3_3 
ROOT
HETATM    1  C8  UNL     1      25.091   2.774  51.610  1.00  0.00     0.065 C 
HETATM    2  N2  UNL     1      24.378   3.436  52.429  1.00  0.00    -0.178 NA
HETATM    3  N3  UNL     1      23.879   4.727  52.292  1.00  0.00    -0.278 N 
HETATM    4  C9  UNL     1      24.141   5.570  51.152  1.00  0.00     0.055 C 
HETATM    5  C10 UNL     1      23.647   6.781  50.931  1.00  0.00     0.031 C 
HETATM    6  C11 UNL     1      23.408   7.346  49.698  1.00  0.00     0.002 C 
HETATM    7  C12 UNL     1      24.135   7.102  48.566  1.00  0.00     0.001 C 
HETATM    8  C13 UNL     1      25.275   7.306  47.806  1.00  0.00     0.007 C 
HETATM    9  C14 UNL     1      26.517   6.789  48.159  1.00  0.00     0.046 C 
HETATM   10  S1  UNL     1      26.976   5.336  48.897  1.00  0.00    -0.123 SA
HETATM   11  C15 UNL     1      25.999   4.150  49.566  1.00  0.00     0.074 A 
HETATM   12  C16 UNL     1      24.945   4.776  50.438  1.00  0.00    -0.018 A 
HETATM   13  C17 UNL     1      25.076   3.353  50.225  1.00  0.00     0.098 A 
HETATM   14  H7  UNL     1      23.268   5.083  53.098  1.00  0.00     0.189 HD
ENDROOT
BRANCH   1  15
HETATM   15  C1  UNL     1      25.701   1.470  51.600  1.00  0.00     0.032 C 
HETATM   16  C2  UNL     1      26.582   1.251  52.576  1.00  0.00     0.034 C 
BRANCH  16  17
HETATM   17  C3  UNL     1      27.313   0.029  52.765  1.00  0.00     0.056 A 
HETATM   18  C4  UNL     1      26.771  -1.228  52.441  1.00  0.00     0.031 A 
HETATM   19  C5  UNL     1      27.450  -2.409  52.615  1.00  0.00     0.004 A 
HETATM   20  C6  UNL     1      28.724  -2.410  53.125  1.00  0.00     0.019 A 
HETATM   21  C7  UNL     1      29.235  -1.176  53.435  1.00  0.00     0.117 A 
HETATM   22  N1  UNL     1      28.574   0.000  53.269  1.00  0.00    -0.261 NA
ENDBRANCH  16  17
ENDBRANCH   1  15
TORSDOF 2
ENDMDL
MODEL 7
REMARK VINA RESULT:      -7.5      5.577      6.478
REMARK  2 active torsions:
REMARK  status: ('A' for Active; 'I' for Inactive)
REMARK    1  A    between atoms: C1_1  and  C8_9 
REMARK    2  A    between atoms: C2_2  and  C3_3 
ROOT
HETATM    1  C8  UNL     1      25.241   3.100  50.465  1.00  0.00     0.065 C 
HETATM    2  N2  UNL     1      25.921   2.271  51.149  1.00  0.00    -0.178 NA
HETATM    3  N3  UNL     1      25.463   1.262  51.988  1.00  0.00    -0.278 N 
HETATM    4  C9  UNL     1      24.068   1.014  52.254  1.00  0.00     0.055 C 
HETATM    5  C10 UNL     1      23.563   0.033  52.991  1.00  0.00     0.031 C 
HETATM    6  C11 UNL     1      22.331  -0.558  52.819  1.00  0.00     0.002 C 
HETATM    7  C12 UNL     1      21.214   0.071  52.344  1.00  0.00     0.001 C 
HETATM    8  C13 UNL     1      20.143   0.925  52.545  1.00  0.00     0.007 C 
HETATM    9  C14 UNL     1      20.293   2.300  52.690  1.00  0.00     0.046 C 
HETATM   10  S1  UNL     1      21.355   3.410  51.976  1.00  0.00    -0.123 SA
HETATM   11  C15 UNL     1      22.664   3.107  50.975  1.00  0.00     0.074 A 
HETATM   12  C16 UNL     1      23.503   1.992  51.539  1.00  0.00    -0.018 A 
HETATM   13  C17 UNL     1      23.806   2.686  50.310  1.00  0.00     0.098 A 
HETATM   14  H7  UNL     1      26.216   0.653  52.446  1.00  0.00     0.189 HD
ENDROOT
BRANCH   1  15
HETATM   15  C1  UNL     1      25.542   4.199  49.584  1.00  0.00     0.032 C 
HETATM   16  C2  UNL     1      26.835   4.508  49.490  1.00  0.00     0.034 C 
BRANCH  16  17
HETATM   17  C3  UNL     1      27.371   5.564  48.676  1.00  0.00     0.056 A 
HETATM   18  C4  UNL     1      28.719   5.593  48.276  1.00  0.00     0.031 A 
HETATM   19  C5  UNL     1      29.253   6.592  47.500  1.00  0.00     0.004 A 
HETATM   20  C6  UNL     1      28.470   7.632  47.069  1.00  0.00     0.019 A 
HETATM   21  C7  UNL     1      27.159   7.586  47.469  1.00  0.00     0.117 A 
HETATM   22  N1  UNL     1      26.617   6.605  48.238  1.00  0.00    -0.261 NA
ENDBRANCH  16  17
ENDBRANCH   1  15
TORSDOF 2
ENDMDL
MODEL 8
REMARK VINA RESULT:      -7.4      5.895      7.106
REMARK  2 active torsions:
REMARK  status: ('A' for Active; 'I' for Inactive)
REMARK    1  A    between atoms: C1_1  and  C8_9 
REMARK    2  A    between atoms: C2_2  and  C3_3 
ROOT
HETATM    1  C8  UNL     1      25.582   3.849  49.787  1.00  0.00     0.065 C 
HETATM    2  N2  UNL     1      24.394   3.566  49.433  1.00  0.00    -0.178 NA
HETATM    3  N3  UNL     1      23.497   4.347  48.714  1.00  0.00    -0.278 N 
HETATM    4  C9  UNL     1      23.784   5.689  48.268  1.00  0.00     0.055 C 
HETATM    5  C10 UNL     1      23.001   6.462  47.527  1.00  0.00     0.031 C 
HETATM    6  C11 UNL     1      23.422   7.438  46.650  1.00  0.00     0.002 C 
HETATM    7  C12 UNL     1      24.548   8.198  46.799  1.00  0.00     0.001 C 
HETATM    8  C13 UNL     1      25.211   9.254  47.402  1.00  0.00     0.007 C 
HETATM    9  C14 UNL     1      25.609   9.230  48.734  1.00  0.00     0.046 C 
HETATM   10  S1  UNL     1      26.187   7.985  49.726  1.00  0.00    -0.123 SA
HETATM   11  C15 UNL     1      26.292   6.346  49.392  1.00  0.00     0.074 A 
HETATM   12  C16 UNL     1      25.010   5.860  48.772  1.00  0.00    -0.018 A 
HETATM   13  C17 UNL     1      26.152   5.014  49.032  1.00  0.00     0.098 A 
HETATM   14  H7  UNL     1      22.550   3.897  48.495  1.00  0.00     0.189 HD
ENDROOT
BRANCH   1  15
HETATM   15  C1  UNL     1      26.617   3.185  50.537  1.00  0.00     0.032 C 
HETATM   16  C2  UNL     1      26.203   2.167  51.291  1.00  0.00     0.034 C 
BRANCH  16  17
HETATM   17  C3  UNL     1      27.053   1.361  52.123  1.00  0.00     0.056 A 
HETATM   18  C4  UNL     1      26.827  -0.013  52.318  1.00  0.00     0.031 A 
HETATM   19  C5  UNL     1      27.625  -0.803  53.110  1.00  0.00     0.004 A 
HETATM   20  C6  UNL     1      28.707  -0.267  53.760  1.00  0.00     0.019 A 
HETATM   21  C7  UNL     1      28.911   1.074  53.557  1.00  0.00     0.117 A 
HETATM   22  N1  UNL     1      28.129   1.867  52.778  1.00  0.00    -0.261 NA
ENDBRANCH  16  17
ENDBRANCH   1  15
TORSDOF 2
ENDMDL
MODEL 9
REMARK VINA RESULT:      -7.3      9.097     10.593
REMARK  2 active torsions:
REMARK  status: ('A' for Active; 'I' for Inactive)
REMARK    1  A    between atoms: C1_1  and  C8_9 
REMARK    2  A    between atoms: C2_2  and  C3_3 
ROOT
HETATM    1  C8  UNL     1      29.403   5.611  48.135  1.00  0.00     0.065 C 
HETATM    2  N2  UNL     1      28.564   4.772  48.592  1.00  0.00    -0.178 NA
HETATM    3  N3  UNL     1      27.222   4.970  48.895  1.00  0.00    -0.278 N 
HETATM    4  C9  UNL     1      26.551   6.241  48.766  1.00  0.00     0.055 C 
HETATM    5  C10 UNL     1      25.265   6.484  48.977  1.00  0.00     0.031 C 
HETATM    6  C11 UNL     1      24.511   7.455  48.358  1.00  0.00     0.002 C 
HETATM    7  C12 UNL     1      24.982   8.665  47.930  1.00  0.00     0.001 C 
HETATM    8  C13 UNL     1      25.388   9.960  48.207  1.00  0.00     0.007 C 
HETATM    9  C14 UNL     1      26.575  10.251  48.870  1.00  0.00     0.046 C 
HETATM   10  S1  UNL     1      28.103   9.521  48.838  1.00  0.00    -0.123 SA
HETATM   11  C15 UNL     1      28.567   8.100  48.082  1.00  0.00     0.074 A 
HETATM   12  C16 UNL     1      27.563   7.013  48.358  1.00  0.00    -0.018 A 
HETATM   13  C17 UNL     1      28.749   6.830  47.554  1.00  0.00     0.098 A 
HETATM   14  H7  UNL     1      26.685   4.110  49.242  1.00  0.00     0.189 HD
ENDROOT
BRANCH   1  15
HETATM   15  C1  UNL     1      30.802   5.584  47.794  1.00  0.00     0.032 C 
HETATM   16  C2  UNL     1      31.241   4.425  47.302  1.00  0.00     0.034 C 
BRANCH  16  17
HETATM   17  C3  UNL     1      32.594   4.165  46.895  1.00  0.00     0.056 A 
HETATM   18  C4  UNL     1      33.049   4.425  45.591  1.00  0.00     0.031 A 
HETATM   19  C5  UNL     1      34.336   4.183  45.179  1.00  0.00     0.004 A 
HETATM   20  C6  UNL     1      35.259   3.662  46.051  1.00  0.00     0.019 A 
HETATM   21  C7  UNL     1      34.797   3.414  47.318  1.00  0.00     0.117 A 
HETATM   22  N1  UNL     1      33.526   3.649  47.739  1.00  0.00    -0.261 NA
ENDBRANCH  16  17
ENDBRANCH   1  15
TORSDOF 2
ENDMDL
