MODEL 1
REMARK VINA RESULT:      -8.5      0.000      0.000
REMARK  7 active torsions:
REMARK  status: ('A' for Active; 'I' for Inactive)
REMARK    1  A    between atoms: C6_6  and  N1_7 
REMARK    2  A    between atoms: N1_7  and  C7_8 
REMARK    3  A    between atoms: C10_13  and  C11_14 
REMARK    4  A    between atoms: N4_16  and  C13_17 
REMARK    5  A    between atoms: C13_17  and  C14_18 
REMARK    6  A    between atoms: C14_18  and  C15_19 
REMARK    7  A    between atoms: C15_19  and  N5_20 
ROOT
HETATM    1  C7  UNL     1      24.032   5.600  49.549  1.00  0.00     0.111 C 
HETATM    2  N2  UNL     1      23.893   6.021  50.792  1.00  0.00    -0.228 NA
HETATM    3  C8  UNL     1      23.344   5.135  51.775  1.00  0.00     0.235 C 
HETATM    4  N3  UNL     1      23.018   3.950  51.421  1.00  0.00    -0.246 NA
HETATM    5  C9  UNL     1      23.175   3.443  50.107  1.00  0.00     0.045 C 
HETATM    6  C10 UNL     1      22.993   2.128  50.067  1.00  0.00     0.065 C 
HETATM    7  C22 UNL     1      23.572   4.285  48.963  1.00  0.00     0.137 C 
ENDROOT
BRANCH   6   8
HETATM    8  C11 UNL     1      22.677   1.357  51.257  1.00  0.00     0.086 C 
HETATM    9  C12 UNL     1      23.564   1.113  52.178  1.00  0.00     0.122 C 
HETATM   10  N4  UNL     1      23.064   0.357  53.255  1.00  0.00    -0.385 N 
HETATM   11  C20 UNL     1      21.665   0.564  53.634  1.00  0.00     0.149 C 
HETATM   12  C21 UNL     1      20.808   0.200  52.415  1.00  0.00     0.195 C 
HETATM   13  O2  UNL     1      21.341   0.899  51.310  1.00  0.00    -0.348 OA
BRANCH  10  14
HETATM   14  C13 UNL     1      23.728  -0.647  54.082  1.00  0.00     0.124 C 
BRANCH  14  15
HETATM   15  C14 UNL     1      25.155  -0.825  53.718  1.00  0.00     0.050 C 
BRANCH  15  16
HETATM   16  C15 UNL     1      26.190  -0.175  54.544  1.00  0.00     0.274 C 
BRANCH  16  17
HETATM   17  N5  UNL     1      27.494  -0.075  53.986  1.00  0.00     0.092 N 
HETATM   18  C16 UNL     1      28.544   0.214  54.906  1.00  0.00     0.298 C 
HETATM   19  C17 UNL     1      29.253   1.490  54.479  1.00  0.00     0.198 C 
HETATM   20  O1  UNL     1      28.411   2.542  54.219  1.00  0.00    -0.388 OA
HETATM   21  C18 UNL     1      27.444   2.253  53.254  1.00  0.00     0.198 C 
HETATM   22  C19 UNL     1      27.547   0.794  52.831  1.00  0.00     0.298 C 
ENDBRANCH  16  17
ENDBRANCH  15  16
ENDBRANCH  14  15
ENDBRANCH  10  14
ENDBRANCH   6   8
BRANCH   1  23
HETATM   23  N1  UNL     1      24.613   6.609  48.689  1.00  0.00    -0.344 N 
HETATM   24  H7  UNL     1      23.944   7.328  48.333  1.00  0.00     0.167 HD
BRANCH  23  25
HETATM   25  C6  UNL     1      25.993   6.588  48.365  1.00  0.00     0.033 A 
HETATM   26  C5  UNL     1      26.809   5.512  48.732  1.00  0.00     0.029 A 
HETATM   27  C4  UNL     1      28.122   5.345  48.497  1.00  0.00     0.003 A 
HETATM   28  C3  UNL     1      28.783   6.342  47.806  1.00  0.00     0.007 A 
HETATM   29  C2  UNL     1      28.074   7.446  47.397  1.00  0.00    -0.060 A 
HETATM   30  C1  UNL     1      28.721   8.568  46.646  1.00  0.00     0.048 C 
HETATM   31  C23 UNL     1      26.733   7.514  47.691  1.00  0.00     0.036 A 
ENDBRANCH  23  25
ENDBRANCH   1  23
TORSDOF 7
ENDMDL
MODEL 2
REMARK VINA RESULT:      -7.9      1.656      2.380
REMARK  7 active torsions:
REMARK  status: ('A' for Active; 'I' for Inactive)
REMARK    1  A    between atoms: C6_6  and  N1_7 
REMARK    2  A    between atoms: N1_7  and  C7_8 
REMARK    3  A    between atoms: C10_13  and  C11_14 
REMARK    4  A    between atoms: N4_16  and  C13_17 
REMARK    5  A    between atoms: C13_17  and  C14_18 
REMARK    6  A    between atoms: C14_18  and  C15_19 
REMARK    7  A    between atoms: C15_19  and  N5_20 
ROOT
HETATM    1  C7  UNL     1      26.026   5.896  49.202  1.00  0.00     0.111 C 
HETATM    2  N2  UNL     1      26.731   4.813  48.936  1.00  0.00    -0.228 NA
HETATM    3  C8  UNL     1      26.374   3.573  49.560  1.00  0.00     0.235 C 
HETATM    4  N3  UNL     1      25.367   3.550  50.348  1.00  0.00    -0.246 NA
HETATM    5  C9  UNL     1      24.562   4.678  50.642  1.00  0.00     0.045 C 
HETATM    6  C10 UNL     1      23.452   4.332  51.281  1.00  0.00     0.065 C 
HETATM    7  C22 UNL     1      24.904   6.044  50.204  1.00  0.00     0.137 C 
ENDROOT
BRANCH   6   8
HETATM    8  C11 UNL     1      23.151   2.949  51.611  1.00  0.00     0.086 C 
HETATM    9  C12 UNL     1      23.616   2.379  52.686  1.00  0.00     0.122 C 
HETATM   10  N4  UNL     1      23.208   1.040  52.834  1.00  0.00    -0.385 N 
HETATM   11  C20 UNL     1      21.876   0.681  52.342  1.00  0.00     0.149 C 
HETATM   12  C21 UNL     1      21.856   0.975  50.836  1.00  0.00     0.195 C 
HETATM   13  O2  UNL     1      22.329   2.295  50.666  1.00  0.00    -0.348 OA
BRANCH  10  14
HETATM   14  C13 UNL     1      23.921  -0.099  53.407  1.00  0.00     0.124 C 
BRANCH  14  15
HETATM   15  C14 UNL     1      25.336  -0.158  52.965  1.00  0.00     0.050 C 
BRANCH  15  16
HETATM   16  C15 UNL     1      26.379  -0.500  53.952  1.00  0.00     0.274 C 
BRANCH  16  17
HETATM   17  N5  UNL     1      27.077   0.581  54.555  1.00  0.00     0.092 N 
HETATM   18  C16 UNL     1      27.036   1.819  53.848  1.00  0.00     0.298 C 
HETATM   19  C17 UNL     1      28.454   2.270  53.535  1.00  0.00     0.198 C 
HETATM   20  O1  UNL     1      29.238   1.304  52.956  1.00  0.00    -0.388 OA
HETATM   21  C18 UNL     1      29.324   0.132  53.712  1.00  0.00     0.198 C 
HETATM   22  C19 UNL     1      28.427   0.236  54.939  1.00  0.00     0.298 C 
ENDBRANCH  16  17
ENDBRANCH  15  16
ENDBRANCH  14  15
ENDBRANCH  10  14
ENDBRANCH   6   8
BRANCH   1  23
HETATM   23  N1  UNL     1      26.508   7.056  48.482  1.00  0.00    -0.344 N 
HETATM   24  H7  UNL     1      25.786   7.565  47.925  1.00  0.00     0.167 HD
BRANCH  23  25
HETATM   25  C6  UNL     1      27.872   7.438  48.540  1.00  0.00     0.033 A 
HETATM   26  C5  UNL     1      28.268   8.628  49.161  1.00  0.00     0.029 A 
HETATM   27  C4  UNL     1      29.510   9.123  49.299  1.00  0.00     0.003 A 
HETATM   28  C3  UNL     1      30.556   8.387  48.775  1.00  0.00     0.007 A 
HETATM   29  C2  UNL     1      30.279   7.199  48.143  1.00  0.00    -0.060 A 
HETATM   30  C1  UNL     1      31.358   6.349  47.549  1.00  0.00     0.048 C 
HETATM   31  C23 UNL     1      28.970   6.788  48.059  1.00  0.00     0.036 A 
ENDBRANCH  23  25
ENDBRANCH   1  23
TORSDOF 7
ENDMDL
MODEL 3
REMARK VINA RESULT:      -7.8      3.096      4.815
REMARK  7 active torsions:
REMARK  status: ('A' for Active; 'I' for Inactive)
REMARK    1  A    between atoms: C6_6  and  N1_7 
REMARK    2  A    between atoms: N1_7  and  C7_8 
REMARK    3  A    between atoms: C10_13  and  C11_14 
REMARK    4  A    between atoms: N4_16  and  C13_17 
REMARK    5  A    between atoms: C13_17  and  C14_18 
REMARK    6  A    between atoms: C14_18  and  C15_19 
REMARK    7  A    between atoms: C15_19  and  N5_20 
ROOT
HETATM    1  C7  UNL     1      29.263   7.915  48.306  1.00  0.00     0.111 C 
HETATM    2  N2  UNL     1      28.407   8.687  48.949  1.00  0.00    -0.228 NA
HETATM    3  C8  UNL     1      27.164   8.132  49.398  1.00  0.00     0.235 C 
HETATM    4  N3  UNL     1      26.928   6.895  49.177  1.00  0.00    -0.246 NA
HETATM    5  C9  UNL     1      27.827   6.020  48.518  1.00  0.00     0.045 C 
HETATM    6  C10 UNL     1      27.450   4.753  48.637  1.00  0.00     0.065 C 
HETATM    7  C22 UNL     1      29.064   6.485  47.862  1.00  0.00     0.137 C 
ENDROOT
BRANCH   6   8
HETATM    8  C11 UNL     1      26.254   4.369  49.367  1.00  0.00     0.086 C 
HETATM    9  C12 UNL     1      26.297   3.567  50.391  1.00  0.00     0.122 C 
HETATM   10  N4  UNL     1      25.037   3.322  50.968  1.00  0.00    -0.385 N 
HETATM   11  C20 UNL     1      24.059   4.411  50.943  1.00  0.00     0.149 C 
HETATM   12  C21 UNL     1      23.801   4.752  49.469  1.00  0.00     0.195 C 
HETATM   13  O2  UNL     1      25.062   4.934  48.860  1.00  0.00    -0.348 OA
BRANCH  10  14
HETATM   14  C13 UNL     1      24.516   2.113  51.602  1.00  0.00     0.124 C 
BRANCH  14  15
HETATM   15  C14 UNL     1      24.496   2.216  53.082  1.00  0.00     0.050 C 
BRANCH  15  16
HETATM   16  C15 UNL     1      25.776   2.208  53.816  1.00  0.00     0.274 C 
BRANCH  16  17
HETATM   17  N5  UNL     1      26.658   1.123  53.561  1.00  0.00     0.092 N 
HETATM   18  C16 UNL     1      26.959   0.290  54.679  1.00  0.00     0.298 C 
HETATM   19  C17 UNL     1      28.463   0.272  54.905  1.00  0.00     0.198 C 
HETATM   20  O1  UNL     1      29.042   1.515  54.943  1.00  0.00    -0.388 OA
HETATM   21  C18 UNL     1      28.797   2.277  53.798  1.00  0.00     0.198 C 
HETATM   22  C19 UNL     1      27.859   1.526  52.863  1.00  0.00     0.298 C 
ENDBRANCH  16  17
ENDBRANCH  15  16
ENDBRANCH  14  15
ENDBRANCH  10  14
ENDBRANCH   6   8
BRANCH   1  23
HETATM   23  N1  UNL     1      30.469   8.625  47.936  1.00  0.00    -0.344 N 
HETATM   24  H7  UNL     1      30.371   9.663  47.868  1.00  0.00     0.167 HD
BRANCH  23  25
HETATM   25  C6  UNL     1      31.677   7.929  47.679  1.00  0.00     0.033 A 
HETATM   26  C5  UNL     1      32.728   7.930  48.604  1.00  0.00     0.029 A 
HETATM   27  C4  UNL     1      33.923   7.322  48.508  1.00  0.00     0.003 A 
HETATM   28  C3  UNL     1      34.181   6.591  47.364  1.00  0.00     0.007 A 
HETATM   29  C2  UNL     1      33.215   6.522  46.390  1.00  0.00    -0.060 A 
HETATM   30  C1  UNL     1      33.423   5.751  45.123  1.00  0.00     0.048 C 
HETATM   31  C23 UNL     1      32.028   7.183  46.592  1.00  0.00     0.036 A 
ENDBRANCH  23  25
ENDBRANCH   1  23
TORSDOF 7
ENDMDL
MODEL 4
REMARK VINA RESULT:      -7.7      4.864      9.218
REMARK  7 active torsions:
REMARK  status: ('A' for Active; 'I' for Inactive)
REMARK    1  A    between atoms: C6_6  and  N1_7 
REMARK    2  A    between atoms: N1_7  and  C7_8 
REMARK    3  A    between atoms: C10_13  and  C11_14 
REMARK    4  A    between atoms: N4_16  and  C13_17 
REMARK    5  A    between atoms: C13_17  and  C14_18 
REMARK    6  A    between atoms: C14_18  and  C15_19 
REMARK    7  A    between atoms: C15_19  and  N5_20 
ROOT
HETATM    1  C7  UNL     1      24.836   2.404  52.187  1.00  0.00     0.111 C 
HETATM    2  N2  UNL     1      24.724   2.772  50.924  1.00  0.00    -0.228 NA
HETATM    3  C8  UNL     1      23.450   2.671  50.276  1.00  0.00     0.235 C 
HETATM    4  N3  UNL     1      22.451   2.241  50.948  1.00  0.00    -0.246 NA
HETATM    5  C9  UNL     1      22.515   1.863  52.312  1.00  0.00     0.045 C 
HETATM    6  C10 UNL     1      21.304   1.693  52.829  1.00  0.00     0.065 C 
HETATM    7  C22 UNL     1      23.783   1.760  53.058  1.00  0.00     0.137 C 
ENDROOT
BRANCH   6   8
HETATM    8  C11 UNL     1      20.097   1.887  52.044  1.00  0.00     0.086 C 
HETATM    9  C12 UNL     1      19.518   3.049  51.943  1.00  0.00     0.122 C 
HETATM   10  N4  UNL     1      18.367   3.037  51.134  1.00  0.00    -0.385 N 
HETATM   11  C20 UNL     1      18.352   2.120  49.992  1.00  0.00     0.149 C 
HETATM   12  C21 UNL     1      18.503   0.699  50.553  1.00  0.00     0.195 C 
HETATM   13  O2  UNL     1      19.617   0.713  51.422  1.00  0.00    -0.348 OA
BRANCH  10  14
HETATM   14  C13 UNL     1      17.130   3.806  51.253  1.00  0.00     0.124 C 
BRANCH  14  15
HETATM   15  C14 UNL     1      15.940   2.936  51.424  1.00  0.00     0.050 C 
BRANCH  15  16
HETATM   16  C15 UNL     1      15.139   3.057  52.657  1.00  0.00     0.274 C 
BRANCH  16  17
HETATM   17  N5  UNL     1      14.097   4.024  52.658  1.00  0.00     0.092 N 
HETATM   18  C16 UNL     1      13.690   4.498  53.940  1.00  0.00     0.298 C 
HETATM   19  C17 UNL     1      12.205   4.232  54.129  1.00  0.00     0.198 C 
HETATM   20  O1  UNL     1      11.823   2.945  53.846  1.00  0.00    -0.388 OA
HETATM   21  C18 UNL     1      12.164   2.537  52.554  1.00  0.00     0.198 C 
HETATM   22  C19 UNL     1      12.962   3.630  51.855  1.00  0.00     0.298 C 
ENDBRANCH  16  17
ENDBRANCH  15  16
ENDBRANCH  14  15
ENDBRANCH  10  14
ENDBRANCH   6   8
BRANCH   1  23
HETATM   23  N1  UNL     1      26.181   2.581  52.692  1.00  0.00    -0.344 N 
HETATM   24  H7  UNL     1      26.462   3.572  52.870  1.00  0.00     0.167 HD
BRANCH  23  25
HETATM   25  C6  UNL     1      27.035   1.470  52.908  1.00  0.00     0.033 A 
HETATM   26  C5  UNL     1      28.324   1.632  53.429  1.00  0.00     0.029 A 
HETATM   27  C4  UNL     1      29.242   0.686  53.690  1.00  0.00     0.003 A 
HETATM   28  C3  UNL     1      28.904  -0.627  53.425  1.00  0.00     0.007 A 
HETATM   29  C2  UNL     1      27.659  -0.900  52.912  1.00  0.00    -0.060 A 
HETATM   30  C1  UNL     1      27.222  -2.297  52.598  1.00  0.00     0.048 C 
HETATM   31  C23 UNL     1      26.798   0.146  52.683  1.00  0.00     0.036 A 
ENDBRANCH  23  25
ENDBRANCH   1  23
TORSDOF 7
ENDMDL
MODEL 5
REMARK VINA RESULT:      -7.6      3.647      8.823
REMARK  7 active torsions:
REMARK  status: ('A' for Active; 'I' for Inactive)
REMARK    1  A    between atoms: C6_6  and  N1_7 
REMARK    2  A    between atoms: N1_7  and  C7_8 
REMARK    3  A    between atoms: C10_13  and  C11_14 
REMARK    4  A    between atoms: N4_16  and  C13_17 
REMARK    5  A    between atoms: C13_17  and  C14_18 
REMARK    6  A    between atoms: C14_18  and  C15_19 
REMARK    7  A    between atoms: C15_19  and  N5_20 
ROOT
HETATM    1  C7  UNL     1      25.775   3.687  50.431  1.00  0.00     0.111 C 
HETATM    2  N2  UNL     1      26.803   3.363  49.669  1.00  0.00    -0.228 NA
HETATM    3  C8  UNL     1      27.382   4.356  48.813  1.00  0.00     0.235 C 
HETATM    4  N3  UNL     1      26.894   5.538  48.826  1.00  0.00    -0.246 NA
HETATM    5  C9  UNL     1      25.812   5.942  49.647  1.00  0.00     0.045 C 
HETATM    6  C10 UNL     1      25.668   7.261  49.648  1.00  0.00     0.065 C 
HETATM    7  C22 UNL     1      25.018   4.995  50.452  1.00  0.00     0.137 C 
ENDROOT
BRANCH   6   8
HETATM    8  C11 UNL     1      26.542   8.134  48.883  1.00  0.00     0.086 C 
HETATM    9  C12 UNL     1      27.696   8.528  49.341  1.00  0.00     0.122 C 
HETATM   10  N4  UNL     1      28.399   9.362  48.451  1.00  0.00    -0.385 N 
HETATM   11  C20 UNL     1      28.237   9.111  47.018  1.00  0.00     0.149 C 
HETATM   12  C21 UNL     1      26.747   9.291  46.695  1.00  0.00     0.195 C 
HETATM   13  O2  UNL     1      26.024   8.512  47.625  1.00  0.00    -0.348 OA
BRANCH  10  14
HETATM   14  C13 UNL     1      29.290  10.487  48.727  1.00  0.00     0.124 C 
BRANCH  14  15
HETATM   15  C14 UNL     1      30.582  10.052  49.313  1.00  0.00     0.050 C 
BRANCH  15  16
HETATM   16  C15 UNL     1      31.576   9.396  48.442  1.00  0.00     0.274 C 
BRANCH  16  17
HETATM   17  N5  UNL     1      32.210   8.230  48.952  1.00  0.00     0.092 N 
HETATM   18  C16 UNL     1      33.297   7.725  48.179  1.00  0.00     0.298 C 
HETATM   19  C17 UNL     1      33.008   6.287  47.778  1.00  0.00     0.198 C 
HETATM   20  O1  UNL     1      31.770   6.096  47.220  1.00  0.00    -0.388 OA
HETATM   21  C18 UNL     1      30.721   6.526  48.037  1.00  0.00     0.198 C 
HETATM   22  C19 UNL     1      31.273   7.183  49.294  1.00  0.00     0.298 C 
ENDBRANCH  16  17
ENDBRANCH  15  16
ENDBRANCH  14  15
ENDBRANCH  10  14
ENDBRANCH   6   8
BRANCH   1  23
HETATM   23  N1  UNL     1      25.321   2.577  51.242  1.00  0.00    -0.344 N 
HETATM   24  H7  UNL     1      24.284   2.468  51.305  1.00  0.00     0.167 HD
BRANCH  23  25
HETATM   25  C6  UNL     1      26.244   1.726  51.900  1.00  0.00     0.033 A 
HETATM   26  C5  UNL     1      27.323   2.246  52.626  1.00  0.00     0.029 A 
HETATM   27  C4  UNL     1      28.273   1.575  53.301  1.00  0.00     0.003 A 
HETATM   28  C3  UNL     1      28.207   0.195  53.301  1.00  0.00     0.007 A 
HETATM   29  C2  UNL     1      27.186  -0.420  52.619  1.00  0.00    -0.060 A 
HETATM   30  C1  UNL     1      27.050  -1.910  52.572  1.00  0.00     0.048 C 
HETATM   31  C23 UNL     1      26.267   0.364  51.962  1.00  0.00     0.036 A 
ENDBRANCH  23  25
ENDBRANCH   1  23
TORSDOF 7
ENDMDL
MODEL 6
REMARK VINA RESULT:      -7.6      3.365      8.649
REMARK  7 active torsions:
REMARK  status: ('A' for Active; 'I' for Inactive)
REMARK    1  A    between atoms: C6_6  and  N1_7 
REMARK    2  A    between atoms: N1_7  and  C7_8 
REMARK    3  A    between atoms: C10_13  and  C11_14 
REMARK    4  A    between atoms: N4_16  and  C13_17 
REMARK    5  A    between atoms: C13_17  and  C14_18 
REMARK    6  A    between atoms: C14_18  and  C15_19 
REMARK    7  A    between atoms: C15_19  and  N5_20 
ROOT
HETATM    1  C7  UNL     1      25.724   3.270  50.508  1.00  0.00     0.111 C 
HETATM    2  N2  UNL     1      26.749   3.177  49.682  1.00  0.00    -0.228 NA
HETATM    3  C8  UNL     1      27.160   4.334  48.943  1.00  0.00     0.235 C 
HETATM    4  N3  UNL     1      26.529   5.432  49.119  1.00  0.00    -0.246 NA
HETATM    5  C9  UNL     1      25.443   5.589  50.016  1.00  0.00     0.045 C 
HETATM    6  C10 UNL     1      25.134   6.868  50.190  1.00  0.00     0.065 C 
HETATM    7  C22 UNL     1      24.811   4.456  50.717  1.00  0.00     0.137 C 
ENDROOT
BRANCH   6   8
HETATM    8  C11 UNL     1      25.857   7.934  49.517  1.00  0.00     0.086 C 
HETATM    9  C12 UNL     1      25.487   8.395  48.357  1.00  0.00     0.122 C 
HETATM   10  N4  UNL     1      26.309   9.430  47.873  1.00  0.00    -0.385 N 
HETATM   11  C20 UNL     1      26.900  10.339  48.857  1.00  0.00     0.149 C 
HETATM   12  C21 UNL     1      27.776   9.489  49.787  1.00  0.00     0.195 C 
HETATM   13  O2  UNL     1      26.984   8.406  50.227  1.00  0.00    -0.348 OA
BRANCH  10  14
HETATM   14  C13 UNL     1      26.696   9.756  46.503  1.00  0.00     0.124 C 
BRANCH  14  15
HETATM   15  C14 UNL     1      27.653   8.772  45.938  1.00  0.00     0.050 C 
BRANCH  15  16
HETATM   16  C15 UNL     1      29.095   8.955  46.186  1.00  0.00     0.274 C 
BRANCH  16  17
HETATM   17  N5  UNL     1      29.855   7.788  46.470  1.00  0.00     0.092 N 
HETATM   18  C16 UNL     1      29.317   6.924  47.468  1.00  0.00     0.298 C 
HETATM   19  C17 UNL     1      30.331   6.751  48.588  1.00  0.00     0.198 C 
HETATM   20  O1  UNL     1      30.848   7.929  49.066  1.00  0.00    -0.388 OA
HETATM   21  C18 UNL     1      31.441   8.717  48.076  1.00  0.00     0.198 C 
HETATM   22  C19 UNL     1      31.252   8.069  46.711  1.00  0.00     0.298 C 
ENDBRANCH  16  17
ENDBRANCH  15  16
ENDBRANCH  14  15
ENDBRANCH  10  14
ENDBRANCH   6   8
BRANCH   1  23
HETATM   23  N1  UNL     1      25.450   2.020  51.185  1.00  0.00    -0.344 N 
HETATM   24  H7  UNL     1      24.487   1.640  51.044  1.00  0.00     0.167 HD
BRANCH  23  25
HETATM   25  C6  UNL     1      26.437   1.388  51.983  1.00  0.00     0.033 A 
HETATM   26  C5  UNL     1      26.523  -0.007  52.065  1.00  0.00     0.029 A 
HETATM   27  C4  UNL     1      27.396  -0.748  52.770  1.00  0.00     0.003 A 
HETATM   28  C3  UNL     1      28.347  -0.081  53.518  1.00  0.00     0.007 A 
HETATM   29  C2  UNL     1      28.354   1.293  53.507  1.00  0.00    -0.060 A 
HETATM   30  C1  UNL     1      29.352   2.085  54.294  1.00  0.00     0.048 C 
HETATM   31  C23 UNL     1      27.414   1.951  52.751  1.00  0.00     0.036 A 
ENDBRANCH  23  25
ENDBRANCH   1  23
TORSDOF 7
ENDMDL
MODEL 7
REMARK VINA RESULT:      -7.5      3.710      8.824
REMARK  7 active torsions:
REMARK  status: ('A' for Active; 'I' for Inactive)
REMARK    1  A    between atoms: C6_6  and  N1_7 
REMARK    2  A    between atoms: N1_7  and  C7_8 
REMARK    3  A    between atoms: C10_13  and  C11_14 
REMARK    4  A    between atoms: N4_16  and  C13_17 
REMARK    5  A    between atoms: C13_17  and  C14_18 
REMARK    6  A    between atoms: C14_18  and  C15_19 
REMARK    7  A    between atoms: C15_19  and  N5_20 
ROOT
HETATM    1  C7  UNL     1      24.380   3.764  50.523  1.00  0.00     0.111 C 
HETATM    2  N2  UNL     1      23.923   4.888  51.042  1.00  0.00    -0.228 NA
HETATM    3  C8  UNL     1      24.627   6.111  50.795  1.00  0.00     0.235 C 
HETATM    4  N3  UNL     1      25.674   6.080  50.061  1.00  0.00    -0.246 NA
HETATM    5  C9  UNL     1      26.186   4.905  49.458  1.00  0.00     0.045 C 
HETATM    6  C10 UNL     1      27.122   5.186  48.559  1.00  0.00     0.065 C 
HETATM    7  C22 UNL     1      25.664   3.557  49.753  1.00  0.00     0.137 C 
ENDROOT
BRANCH   6   8
HETATM    8  C11 UNL     1      27.529   6.550  48.271  1.00  0.00     0.086 C 
HETATM    9  C12 UNL     1      28.713   6.997  48.577  1.00  0.00     0.122 C 
HETATM   10  N4  UNL     1      28.920   8.340  48.211  1.00  0.00    -0.385 N 
HETATM   11  C20 UNL     1      28.259   8.819  46.995  1.00  0.00     0.149 C 
HETATM   12  C21 UNL     1      26.748   8.657  47.210  1.00  0.00     0.195 C 
HETATM   13  O2  UNL     1      26.531   7.331  47.645  1.00  0.00    -0.348 OA
BRANCH  10  14
HETATM   14  C13 UNL     1      29.705   9.381  48.871  1.00  0.00     0.124 C 
BRANCH  14  15
HETATM   15  C14 UNL     1      31.069   8.919  49.226  1.00  0.00     0.050 C 
BRANCH  15  16
HETATM   16  C15 UNL     1      32.122   8.940  48.192  1.00  0.00     0.274 C 
BRANCH  16  17
HETATM   17  N5  UNL     1      32.494   7.691  47.624  1.00  0.00     0.092 N 
HETATM   18  C16 UNL     1      32.412   6.564  48.493  1.00  0.00     0.298 C 
HETATM   19  C17 UNL     1      33.775   5.895  48.584  1.00  0.00     0.198 C 
HETATM   20  O1  UNL     1      34.807   6.757  48.857  1.00  0.00    -0.388 OA
HETATM   21  C18 UNL     1      34.912   7.806  47.941  1.00  0.00     0.198 C 
HETATM   22  C19 UNL     1      33.766   7.740  46.940  1.00  0.00     0.298 C 
ENDBRANCH  16  17
ENDBRANCH  15  16
ENDBRANCH  14  15
ENDBRANCH  10  14
ENDBRANCH   6   8
BRANCH   1  23
HETATM   23  N1  UNL     1      23.547   2.627  50.855  1.00  0.00    -0.344 N 
HETATM   24  H7  UNL     1      22.588   2.642  50.440  1.00  0.00     0.167 HD
BRANCH  23  25
HETATM   25  C6  UNL     1      24.025   1.591  51.696  1.00  0.00     0.033 A 
HETATM   26  C5  UNL     1      23.152   0.835  52.487  1.00  0.00     0.029 A 
HETATM   27  C4  UNL     1      23.449  -0.173  53.326  1.00  0.00     0.003 A 
HETATM   28  C3  UNL     1      24.776  -0.537  53.447  1.00  0.00     0.007 A 
HETATM   29  C2  UNL     1      25.719   0.141  52.713  1.00  0.00    -0.060 A 
HETATM   30  C1  UNL     1      27.176  -0.195  52.794  1.00  0.00     0.048 C 
HETATM   31  C23 UNL     1      25.304   1.156  51.885  1.00  0.00     0.036 A 
ENDBRANCH  23  25
ENDBRANCH   1  23
TORSDOF 7
ENDMDL
MODEL 8
REMARK VINA RESULT:      -7.5      2.694      7.823
REMARK  7 active torsions:
REMARK  status: ('A' for Active; 'I' for Inactive)
REMARK    1  A    between atoms: C6_6  and  N1_7 
REMARK    2  A    between atoms: N1_7  and  C7_8 
REMARK    3  A    between atoms: C10_13  and  C11_14 
REMARK    4  A    between atoms: N4_16  and  C13_17 
REMARK    5  A    between atoms: C13_17  and  C14_18 
REMARK    6  A    between atoms: C14_18  and  C15_19 
REMARK    7  A    between atoms: C15_19  and  N5_20 
ROOT
HETATM    1  C7  UNL     1      24.444   1.757  52.797  1.00  0.00     0.111 C 
HETATM    2  N2  UNL     1      23.959   1.163  51.723  1.00  0.00    -0.228 NA
HETATM    3  C8  UNL     1      23.213   1.934  50.773  1.00  0.00     0.235 C 
HETATM    4  N3  UNL     1      23.055   3.185  50.985  1.00  0.00    -0.246 NA
HETATM    5  C9  UNL     1      23.581   3.872  52.107  1.00  0.00     0.045 C 
HETATM    6  C10 UNL     1      23.485   5.188  51.961  1.00  0.00     0.065 C 
HETATM    7  C22 UNL     1      24.225   3.184  53.241  1.00  0.00     0.137 C 
ENDROOT
BRANCH   6   8
HETATM    8  C11 UNL     1      22.903   5.792  50.775  1.00  0.00     0.086 C 
HETATM    9  C12 UNL     1      23.619   6.090  49.729  1.00  0.00     0.122 C 
HETATM   10  N4  UNL     1      22.874   6.660  48.680  1.00  0.00    -0.385 N 
HETATM   11  C20 UNL     1      21.494   6.203  48.505  1.00  0.00     0.149 C 
HETATM   12  C21 UNL     1      20.741   6.535  49.800  1.00  0.00     0.195 C 
HETATM   13  O2  UNL     1      21.513   6.028  50.869  1.00  0.00    -0.348 OA
BRANCH  10  14
HETATM   14  C13 UNL     1      23.256   7.679  47.705  1.00  0.00     0.124 C 
BRANCH  14  15
HETATM   15  C14 UNL     1      24.473   8.424  48.115  1.00  0.00     0.050 C 
BRANCH  15  16
HETATM   16  C15 UNL     1      25.750   8.133  47.436  1.00  0.00     0.274 C 
BRANCH  16  17
HETATM   17  N5  UNL     1      26.913   8.062  48.251  1.00  0.00     0.092 N 
HETATM   18  C16 UNL     1      26.691   8.138  49.658  1.00  0.00     0.298 C 
HETATM   19  C17 UNL     1      27.471   9.312  50.230  1.00  0.00     0.198 C 
HETATM   20  O1  UNL     1      27.288  10.492  49.555  1.00  0.00    -0.388 OA
HETATM   21  C18 UNL     1      27.591  10.407  48.194  1.00  0.00     0.198 C 
HETATM   22  C19 UNL     1      27.953   8.973  47.829  1.00  0.00     0.298 C 
ENDBRANCH  16  17
ENDBRANCH  15  16
ENDBRANCH  14  15
ENDBRANCH  10  14
ENDBRANCH   6   8
BRANCH   1  23
HETATM   23  N1  UNL     1      25.181   0.842  53.644  1.00  0.00    -0.344 N 
HETATM   24  H7  UNL     1      24.593   0.234  54.258  1.00  0.00     0.167 HD
BRANCH  23  25
HETATM   25  C6  UNL     1      26.598   0.808  53.625  1.00  0.00     0.033 A 
HETATM   26  C5  UNL     1      27.355   1.983  53.690  1.00  0.00     0.029 A 
HETATM   27  C4  UNL     1      28.693   2.114  53.685  1.00  0.00     0.003 A 
HETATM   28  C3  UNL     1      29.450   0.961  53.609  1.00  0.00     0.007 A 
HETATM   29  C2  UNL     1      28.807  -0.251  53.542  1.00  0.00    -0.060 A 
HETATM   30  C1  UNL     1      29.559  -1.542  53.456  1.00  0.00     0.048 C 
HETATM   31  C23 UNL     1      27.433  -0.269  53.554  1.00  0.00     0.036 A 
ENDBRANCH  23  25
ENDBRANCH   1  23
TORSDOF 7
ENDMDL
MODEL 9
REMARK VINA RESULT:      -7.4      2.790      8.066
REMARK  7 active torsions:
REMARK  status: ('A' for Active; 'I' for Inactive)
REMARK    1  A    between atoms: C6_6  and  N1_7 
REMARK    2  A    between atoms: N1_7  and  C7_8 
REMARK    3  A    between atoms: C10_13  and  C11_14 
REMARK    4  A    between atoms: N4_16  and  C13_17 
REMARK    5  A    between atoms: C13_17  and  C14_18 
REMARK    6  A    between atoms: C14_18  and  C15_19 
REMARK    7  A    between atoms: C15_19  and  N5_20 
ROOT
HETATM    1  C7  UNL     1      25.016   1.787  52.805  1.00  0.00     0.111 C 
HETATM    2  N2  UNL     1      24.269   2.671  53.440  1.00  0.00    -0.228 NA
HETATM    3  C8  UNL     1      23.916   3.893  52.779  1.00  0.00     0.235 C 
HETATM    4  N3  UNL     1      24.323   4.084  51.582  1.00  0.00    -0.246 NA
HETATM    5  C9  UNL     1      25.101   3.153  50.850  1.00  0.00     0.045 C 
HETATM    6  C10 UNL     1      25.177   3.484  49.566  1.00  0.00     0.065 C 
HETATM    7  C22 UNL     1      25.672   1.934  51.452  1.00  0.00     0.137 C 
ENDROOT
BRANCH   6   8
HETATM    8  C11 UNL     1      24.521   4.667  49.035  1.00  0.00     0.086 C 
HETATM    9  C12 UNL     1      25.147   5.799  48.894  1.00  0.00     0.122 C 
HETATM   10  N4  UNL     1      24.345   6.823  48.357  1.00  0.00    -0.385 N 
HETATM   11  C20 UNL     1      23.319   6.438  47.386  1.00  0.00     0.149 C 
HETATM   12  C21 UNL     1      22.365   5.470  48.098  1.00  0.00     0.195 C 
HETATM   13  O2  UNL     1      23.162   4.472  48.701  1.00  0.00    -0.348 OA
BRANCH  10  14
HETATM   14  C13 UNL     1      24.356   8.260  48.623  1.00  0.00     0.124 C 
BRANCH  14  15
HETATM   15  C14 UNL     1      25.050   8.592  49.892  1.00  0.00     0.050 C 
BRANCH  15  16
HETATM   16  C15 UNL     1      26.380   9.227  49.833  1.00  0.00     0.274 C 
BRANCH  16  17
HETATM   17  N5  UNL     1      27.133   9.039  48.642  1.00  0.00     0.092 N 
HETATM   18  C16 UNL     1      28.143   8.035  48.696  1.00  0.00     0.298 C 
HETATM   19  C17 UNL     1      29.492   8.655  48.368  1.00  0.00     0.198 C 
HETATM   20  O1  UNL     1      29.776   9.794  49.079  1.00  0.00    -0.388 OA
HETATM   21  C18 UNL     1      28.807  10.791  48.940  1.00  0.00     0.198 C 
HETATM   22  C19 UNL     1      27.646  10.277  48.099  1.00  0.00     0.298 C 
ENDBRANCH  16  17
ENDBRANCH  15  16
ENDBRANCH  14  15
ENDBRANCH  10  14
ENDBRANCH   6   8
BRANCH   1  23
HETATM   23  N1  UNL     1      25.267   0.606  53.605  1.00  0.00    -0.344 N 
HETATM   24  H7  UNL     1      24.557   0.412  54.346  1.00  0.00     0.167 HD
BRANCH  23  25
HETATM   25  C6  UNL     1      26.412  -0.199  53.380  1.00  0.00     0.033 A 
HETATM   26  C5  UNL     1      26.307  -1.466  52.792  1.00  0.00     0.029 A 
HETATM   27  C4  UNL     1      27.290  -2.339  52.513  1.00  0.00     0.003 A 
HETATM   28  C3  UNL     1      28.583  -1.973  52.831  1.00  0.00     0.007 A 
HETATM   29  C2  UNL     1      28.801  -0.747  53.412  1.00  0.00    -0.060 A 
HETATM   30  C1  UNL     1      30.173  -0.282  53.787  1.00  0.00     0.048 C 
HETATM   31  C23 UNL     1      27.721   0.068  53.653  1.00  0.00     0.036 A 
ENDBRANCH  23  25
ENDBRANCH   1  23
TORSDOF 7
ENDMDL
