MODEL 1
REMARK VINA RESULT:      -9.0      0.000      0.000
REMARK  3 active torsions:
REMARK  status: ('A' for Active; 'I' for Inactive)
REMARK    1  A    between atoms: N1_1  and  C1_2 
REMARK    2  A    between atoms: C9_14  and  N6_15 
REMARK    3  A    between atoms: N6_15  and  C10_16 
ROOT
HETATM    1  C1  UNL     1      29.320   0.659  54.199  1.00  0.00     0.220 C 
HETATM    2  C2  UNL     1      28.838   2.121  54.207  1.00  0.00     0.065 C 
HETATM    3  C3  UNL     1      27.967   2.093  53.090  1.00  0.00     0.272 C 
HETATM    4  N2  UNL     1      27.194   2.835  52.245  1.00  0.00     0.087 N 
HETATM    5  C4  UNL     1      26.526   1.719  51.483  1.00  0.00     0.311 C 
HETATM    6  C5  UNL     1      25.681   0.875  52.316  1.00  0.00     0.010 A 
HETATM    7  C6  UNL     1      26.106  -0.213  53.028  1.00  0.00    -0.030 A 
HETATM    8  C7  UNL     1      24.951  -0.721  53.695  1.00  0.00     0.126 A 
HETATM    9  N3  UNL     1      23.847   0.025  53.411  1.00  0.00    -0.239 N 
HETATM   10  N4  UNL     1      22.613  -0.116  53.825  1.00  0.00    -0.161 NA
HETATM   11  C8  UNL     1      21.661   0.738  53.424  1.00  0.00     0.258 A 
HETATM   12  N5  UNL     1      22.042   1.720  52.596  1.00  0.00    -0.220 NA
HETATM   13  C9  UNL     1      23.314   1.839  52.189  1.00  0.00     0.159 A 
HETATM   14  C16 UNL     1      24.315   0.977  52.580  1.00  0.00     0.112 A 
HETATM   15  C17 UNL     1      27.400  -0.846  53.197  1.00  0.00     0.043 C 
HETATM   16  C18 UNL     1      28.395  -0.462  54.190  1.00  0.00     0.040 C 
HETATM   17  H8  UNL     1      26.463   3.472  52.607  1.00  0.00     0.316 HD
ENDROOT
BRANCH  13  18
HETATM   18  N6  UNL     1      23.583   2.928  51.327  1.00  0.00    -0.339 N 
HETATM   19  H13 UNL     1      24.064   3.828  51.313  1.00  0.00     0.167 HD
BRANCH  18  20
HETATM   20  C10 UNL     1      23.069   2.942  50.003  1.00  0.00     0.036 A 
HETATM   21  C11 UNL     1      22.467   1.787  49.527  1.00  0.00     0.029 A 
HETATM   22  C12 UNL     1      21.955   1.665  48.239  1.00  0.00     0.005 A 
HETATM   23  C13 UNL     1      22.055   2.762  47.398  1.00  0.00     0.042 A 
HETATM   24  C14 UNL     1      22.637   3.940  47.801  1.00  0.00     0.118 A 
HETATM   25  F1  UNL     1      22.760   5.046  47.013  1.00  0.00    -0.206 F 
HETATM   26  C15 UNL     1      23.124   3.998  49.083  1.00  0.00     0.071 A 
ENDBRANCH  18  20
ENDBRANCH  13  18
BRANCH   1  27
HETATM   27  N1  UNL     1      30.173   0.495  52.995  1.00  0.00     0.083 N 
HETATM   28  H1  UNL     1      29.926   1.196  52.268  1.00  0.00     0.313 HD
HETATM   29  H2  UNL     1      30.099  -0.495  52.693  1.00  0.00     0.313 HD
ENDBRANCH   1  27
TORSDOF 3
ENDMDL
MODEL 2
REMARK VINA RESULT:      -9.0      1.692      2.062
REMARK  3 active torsions:
REMARK  status: ('A' for Active; 'I' for Inactive)
REMARK    1  A    between atoms: N1_1  and  C1_2 
REMARK    2  A    between atoms: C9_14  and  N6_15 
REMARK    3  A    between atoms: N6_15  and  C10_16 
ROOT
HETATM    1  C1  UNL     1      29.172   1.100  54.312  1.00  0.00     0.220 C 
HETATM    2  C2  UNL     1      28.603   2.479  53.932  1.00  0.00     0.065 C 
HETATM    3  C3  UNL     1      27.776   2.106  52.844  1.00  0.00     0.272 C 
HETATM    4  N2  UNL     1      26.990   2.552  51.821  1.00  0.00     0.087 N 
HETATM    5  C4  UNL     1      26.419   1.236  51.361  1.00  0.00     0.311 C 
HETATM    6  C5  UNL     1      25.596   0.579  52.369  1.00  0.00     0.010 A 
HETATM    7  C6  UNL     1      26.061  -0.257  53.346  1.00  0.00    -0.030 A 
HETATM    8  C7  UNL     1      24.915  -0.653  54.100  1.00  0.00     0.126 A 
HETATM    9  N3  UNL     1      23.779  -0.082  53.612  1.00  0.00    -0.239 N 
HETATM   10  N4  UNL     1      22.541  -0.194  54.025  1.00  0.00    -0.161 NA
HETATM   11  C8  UNL     1      21.555   0.462  53.398  1.00  0.00     0.258 A 
HETATM   12  N5  UNL     1      21.905   1.221  52.351  1.00  0.00    -0.220 NA
HETATM   13  C9  UNL     1      23.181   1.316  51.952  1.00  0.00     0.159 A 
HETATM   14  C16 UNL     1      24.218   0.654  52.572  1.00  0.00     0.112 A 
HETATM   15  C17 UNL     1      27.383  -0.737  53.698  1.00  0.00     0.043 C 
HETATM   16  C18 UNL     1      28.317  -0.045  54.577  1.00  0.00     0.040 C 
HETATM   17  H8  UNL     1      26.210   3.210  51.992  1.00  0.00     0.316 HD
ENDROOT
BRANCH  13  18
HETATM   18  N6  UNL     1      23.415   2.163  50.843  1.00  0.00    -0.339 N 
HETATM   19  H13 UNL     1      23.796   2.142  49.895  1.00  0.00     0.167 HD
BRANCH  18  20
HETATM   20  C10 UNL     1      23.082   3.542  50.906  1.00  0.00     0.036 A 
HETATM   21  C11 UNL     1      21.841   3.934  50.427  1.00  0.00     0.029 A 
HETATM   22  C12 UNL     1      21.412   5.257  50.405  1.00  0.00     0.005 A 
HETATM   23  C13 UNL     1      22.276   6.224  50.892  1.00  0.00     0.042 A 
HETATM   24  C14 UNL     1      23.520   5.911  51.384  1.00  0.00     0.118 A 
HETATM   25  F1  UNL     1      24.406   6.824  51.873  1.00  0.00    -0.206 F 
HETATM   26  C15 UNL     1      23.887   4.589  51.378  1.00  0.00     0.071 A 
ENDBRANCH  18  20
ENDBRANCH  13  18
BRANCH   1  27
HETATM   27  N1  UNL     1      30.076   0.690  53.208  1.00  0.00     0.083 N 
HETATM   28  H1  UNL     1      30.629  -0.149  53.474  1.00  0.00     0.313 HD
HETATM   29  H2  UNL     1      30.638   1.520  52.942  1.00  0.00     0.313 HD
ENDBRANCH   1  27
TORSDOF 3
ENDMDL
MODEL 3
REMARK VINA RESULT:      -8.7      3.022      7.038
REMARK  3 active torsions:
REMARK  status: ('A' for Active; 'I' for Inactive)
REMARK    1  A    between atoms: N1_1  and  C1_2 
REMARK    2  A    between atoms: C9_14  and  N6_15 
REMARK    3  A    between atoms: N6_15  and  C10_16 
ROOT
HETATM    1  C1  UNL     1      19.799   1.628  49.654  1.00  0.00     0.220 C 
HETATM    2  C2  UNL     1      21.118   1.047  49.112  1.00  0.00     0.065 C 
HETATM    3  C3  UNL     1      22.019   1.555  50.079  1.00  0.00     0.272 C 
HETATM    4  N2  UNL     1      23.330   1.709  50.427  1.00  0.00     0.087 N 
HETATM    5  C4  UNL     1      23.150   2.270  51.814  1.00  0.00     0.311 C 
HETATM    6  C5  UNL     1      22.497   1.345  52.731  1.00  0.00     0.010 A 
HETATM    7  C6  UNL     1      21.146   1.210  52.889  1.00  0.00    -0.030 A 
HETATM    8  C7  UNL     1      20.966   0.192  53.875  1.00  0.00     0.126 A 
HETATM    9  N3  UNL     1      22.163  -0.289  54.313  1.00  0.00    -0.239 N 
HETATM   10  N4  UNL     1      22.416  -1.217  55.202  1.00  0.00    -0.161 NA
HETATM   11  C8  UNL     1      23.681  -1.550  55.492  1.00  0.00     0.258 A 
HETATM   12  N5  UNL     1      24.645  -0.892  54.834  1.00  0.00    -0.220 NA
HETATM   13  C9  UNL     1      24.354   0.054  53.929  1.00  0.00     0.159 A 
HETATM   14  C16 UNL     1      23.065   0.421  53.609  1.00  0.00     0.112 A 
HETATM   15  C17 UNL     1      20.003   1.856  52.273  1.00  0.00     0.043 C 
HETATM   16  C18 UNL     1      19.373   1.431  51.029  1.00  0.00     0.040 C 
HETATM   17  H8  UNL     1      23.970   0.897  50.479  1.00  0.00     0.316 HD
ENDROOT
BRANCH  13  18
HETATM   18  N6  UNL     1      25.465   0.660  53.297  1.00  0.00    -0.339 N 
HETATM   19  H13 UNL     1      25.697   1.432  52.669  1.00  0.00     0.167 HD
BRANCH  18  20
HETATM   20  C10 UNL     1      26.771   0.132  53.476  1.00  0.00     0.036 A 
HETATM   21  C11 UNL     1      27.712   0.926  54.114  1.00  0.00     0.029 A 
HETATM   22  C12 UNL     1      29.031   0.535  54.320  1.00  0.00     0.005 A 
HETATM   23  C13 UNL     1      29.413  -0.715  53.860  1.00  0.00     0.042 A 
HETATM   24  C14 UNL     1      28.536  -1.557  53.219  1.00  0.00     0.118 A 
HETATM   25  F1  UNL     1      28.862  -2.793  52.748  1.00  0.00    -0.206 F 
HETATM   26  C15 UNL     1      27.249  -1.114  53.045  1.00  0.00     0.071 A 
ENDBRANCH  18  20
ENDBRANCH  13  18
BRANCH   1  27
HETATM   27  N1  UNL     1      19.861   3.097  49.450  1.00  0.00     0.083 N 
HETATM   28  H1  UNL     1      20.686   3.356  48.873  1.00  0.00     0.313 HD
HETATM   29  H2  UNL     1      19.823   3.543  50.386  1.00  0.00     0.313 HD
ENDBRANCH   1  27
TORSDOF 3
ENDMDL
MODEL 4
REMARK VINA RESULT:      -8.3      2.827      7.194
REMARK  3 active torsions:
REMARK  status: ('A' for Active; 'I' for Inactive)
REMARK    1  A    between atoms: N1_1  and  C1_2 
REMARK    2  A    between atoms: C9_14  and  N6_15 
REMARK    3  A    between atoms: N6_15  and  C10_16 
ROOT
HETATM    1  C1  UNL     1      18.760   1.579  50.850  1.00  0.00     0.220 C 
HETATM    2  C2  UNL     1      19.268   2.161  52.181  1.00  0.00     0.065 C 
HETATM    3  C3  UNL     1      20.540   1.543  52.245  1.00  0.00     0.272 C 
HETATM    4  N2  UNL     1      21.648   1.318  53.011  1.00  0.00     0.087 N 
HETATM    5  C4  UNL     1      22.522   0.645  51.983  1.00  0.00     0.311 C 
HETATM    6  C5  UNL     1      22.862   1.508  50.860  1.00  0.00     0.010 A 
HETATM    7  C6  UNL     1      22.107   1.672  49.732  1.00  0.00    -0.030 A 
HETATM    8  C7  UNL     1      22.817   2.606  48.918  1.00  0.00     0.126 A 
HETATM    9  N3  UNL     1      23.971   3.009  49.518  1.00  0.00    -0.239 N 
HETATM   10  N4  UNL     1      24.885   3.848  49.097  1.00  0.00    -0.161 NA
HETATM   11  C8  UNL     1      25.960   4.113  49.851  1.00  0.00     0.258 A 
HETATM   12  N5  UNL     1      26.041   3.484  51.031  1.00  0.00    -0.220 NA
HETATM   13  C9  UNL     1      25.089   2.630  51.435  1.00  0.00     0.159 A 
HETATM   14  C16 UNL     1      23.973   2.333  50.684  1.00  0.00     0.112 A 
HETATM   15  C17 UNL     1      20.840   1.119  49.295  1.00  0.00     0.043 C 
HETATM   16  C18 UNL     1      19.530   1.670  49.620  1.00  0.00     0.040 C 
HETATM   17  H8  UNL     1      22.176   2.101  53.433  1.00  0.00     0.316 HD
ENDROOT
BRANCH  13  18
HETATM   18  N6  UNL     1      25.290   2.045  52.707  1.00  0.00    -0.339 N 
HETATM   19  H13 UNL     1      24.960   2.110  53.671  1.00  0.00     0.167 HD
BRANCH  18  20
HETATM   20  C10 UNL     1      26.254   1.017  52.882  1.00  0.00     0.036 A 
HETATM   21  C11 UNL     1      27.467   1.354  53.464  1.00  0.00     0.029 A 
HETATM   22  C12 UNL     1      28.502   0.445  53.660  1.00  0.00     0.005 A 
HETATM   23  C13 UNL     1      28.298  -0.863  53.250  1.00  0.00     0.042 A 
HETATM   24  C14 UNL     1      27.123  -1.271  52.667  1.00  0.00     0.118 A 
HETATM   25  F1  UNL     1      26.874  -2.543  52.247  1.00  0.00    -0.206 F 
HETATM   26  C15 UNL     1      26.140  -0.328  52.500  1.00  0.00     0.071 A 
ENDBRANCH  18  20
ENDBRANCH  13  18
BRANCH   1  27
HETATM   27  N1  UNL     1      18.521   0.132  51.078  1.00  0.00     0.083 N 
HETATM   28  H1  UNL     1      18.945  -0.438  50.318  1.00  0.00     0.313 HD
HETATM   29  H2  UNL     1      17.501   0.001  51.207  1.00  0.00     0.313 HD
ENDBRANCH   1  27
TORSDOF 3
ENDMDL
MODEL 5
REMARK VINA RESULT:      -8.2      3.395      6.173
REMARK  3 active torsions:
REMARK  status: ('A' for Active; 'I' for Inactive)
REMARK    1  A    between atoms: N1_1  and  C1_2 
REMARK    2  A    between atoms: C9_14  and  N6_15 
REMARK    3  A    between atoms: N6_15  and  C10_16 
ROOT
HETATM    1  C1  UNL     1      26.772   6.515  48.391  1.00  0.00     0.220 C 
HETATM    2  C2  UNL     1      27.385   5.122  48.624  1.00  0.00     0.065 C 
HETATM    3  C3  UNL     1      26.562   4.671  49.684  1.00  0.00     0.272 C 
HETATM    4  N2  UNL     1      26.359   3.695  50.617  1.00  0.00     0.087 N 
HETATM    5  C4  UNL     1      25.018   4.138  51.144  1.00  0.00     0.311 C 
HETATM    6  C5  UNL     1      23.961   4.094  50.143  1.00  0.00     0.010 A 
HETATM    7  C6  UNL     1      23.660   5.099  49.267  1.00  0.00    -0.030 A 
HETATM    8  C7  UNL     1      22.572   4.618  48.476  1.00  0.00     0.126 A 
HETATM    9  N3  UNL     1      22.211   3.357  48.846  1.00  0.00    -0.239 N 
HETATM   10  N4  UNL     1      21.271   2.582  48.367  1.00  0.00    -0.161 NA
HETATM   11  C8  UNL     1      21.077   1.358  48.877  1.00  0.00     0.258 A 
HETATM   12  N5  UNL     1      21.884   0.987  49.880  1.00  0.00    -0.220 NA
HETATM   13  C9  UNL     1      22.838   1.803  50.349  1.00  0.00     0.159 A 
HETATM   14  C16 UNL     1      23.063   3.067  49.849  1.00  0.00     0.112 A 
HETATM   15  C17 UNL     1      24.217   6.418  49.037  1.00  0.00     0.043 C 
HETATM   16  C18 UNL     1      25.349   6.707  48.165  1.00  0.00     0.040 C 
HETATM   17  H8  UNL     1      26.296   2.699  50.347  1.00  0.00     0.316 HD
ENDROOT
BRANCH  13  18
HETATM   18  N6  UNL     1      23.629   1.282  51.400  1.00  0.00    -0.339 N 
HETATM   19  H13 UNL     1      24.606   1.150  51.667  1.00  0.00     0.167 HD
BRANCH  18  20
HETATM   20  C10 UNL     1      23.017   0.688  52.535  1.00  0.00     0.036 A 
HETATM   21  C11 UNL     1      23.723  -0.289  53.219  1.00  0.00     0.029 A 
HETATM   22  C12 UNL     1      23.220  -0.966  54.325  1.00  0.00     0.005 A 
HETATM   23  C13 UNL     1      21.945  -0.638  54.757  1.00  0.00     0.042 A 
HETATM   24  C14 UNL     1      21.185   0.320  54.130  1.00  0.00     0.118 A 
HETATM   25  F1  UNL     1      19.928   0.679  54.516  1.00  0.00    -0.206 F 
HETATM   26  C15 UNL     1      21.737   0.953  53.044  1.00  0.00     0.071 A 
ENDBRANCH  18  20
ENDBRANCH  13  18
BRANCH   1  27
HETATM   27  N1  UNL     1      27.114   7.338  49.578  1.00  0.00     0.083 N 
HETATM   28  H1  UNL     1      26.428   7.185  50.344  1.00  0.00     0.313 HD
HETATM   29  H2  UNL     1      27.205   8.321  49.260  1.00  0.00     0.313 HD
ENDBRANCH   1  27
TORSDOF 3
ENDMDL
MODEL 6
REMARK VINA RESULT:      -8.2      3.110      4.238
REMARK  3 active torsions:
REMARK  status: ('A' for Active; 'I' for Inactive)
REMARK    1  A    between atoms: N1_1  and  C1_2 
REMARK    2  A    between atoms: C9_14  and  N6_15 
REMARK    3  A    between atoms: N6_15  and  C10_16 
ROOT
HETATM    1  C1  UNL     1      26.042  -0.358  54.394  1.00  0.00     0.220 C 
HETATM    2  C2  UNL     1      26.867   0.929  54.580  1.00  0.00     0.065 C 
HETATM    3  C3  UNL     1      26.717   1.499  53.293  1.00  0.00     0.272 C 
HETATM    4  N2  UNL     1      27.114   2.495  52.447  1.00  0.00     0.087 N 
HETATM    5  C4  UNL     1      26.143   2.258  51.319  1.00  0.00     0.311 C 
HETATM    6  C5  UNL     1      24.752   2.457  51.703  1.00  0.00     0.010 A 
HETATM    7  C6  UNL     1      23.940   1.506  52.257  1.00  0.00    -0.030 A 
HETATM    8  C7  UNL     1      22.680   2.143  52.472  1.00  0.00     0.126 A 
HETATM    9  N3  UNL     1      22.708   3.444  52.068  1.00  0.00    -0.239 N 
HETATM   10  N4  UNL     1      21.763   4.350  52.101  1.00  0.00    -0.161 NA
HETATM   11  C8  UNL     1      21.997   5.590  51.650  1.00  0.00     0.258 A 
HETATM   12  N5  UNL     1      23.225   5.838  51.177  1.00  0.00    -0.220 NA
HETATM   13  C9  UNL     1      24.172   4.889  51.157  1.00  0.00     0.159 A 
HETATM   14  C16 UNL     1      23.964   3.605  51.610  1.00  0.00     0.112 A 
HETATM   15  C17 UNL     1      24.144   0.119  52.627  1.00  0.00     0.043 C 
HETATM   16  C18 UNL     1      24.673  -0.336  53.906  1.00  0.00     0.040 C 
HETATM   17  H8  UNL     1      27.059   3.489  52.728  1.00  0.00     0.316 HD
ENDROOT
BRANCH  13  18
HETATM   18  N6  UNL     1      25.429   5.289  50.645  1.00  0.00    -0.339 N 
HETATM   19  H13 UNL     1      26.415   5.021  50.663  1.00  0.00     0.167 HD
BRANCH  18  20
HETATM   20  C10 UNL     1      25.539   6.442  49.824  1.00  0.00     0.036 A 
HETATM   21  C11 UNL     1      25.135   6.340  48.502  1.00  0.00     0.029 A 
HETATM   22  C12 UNL     1      25.222   7.388  47.590  1.00  0.00     0.005 A 
HETATM   23  C13 UNL     1      25.739   8.592  48.040  1.00  0.00     0.042 A 
HETATM   24  C14 UNL     1      26.159   8.769  49.337  1.00  0.00     0.118 A 
HETATM   25  F1  UNL     1      26.675   9.931  49.827  1.00  0.00    -0.206 F 
HETATM   26  C15 UNL     1      26.048   7.697  50.187  1.00  0.00     0.071 A 
ENDBRANCH  18  20
ENDBRANCH  13  18
BRANCH   1  27
HETATM   27  N1  UNL     1      26.799  -1.220  53.453  1.00  0.00     0.083 N 
HETATM   28  H1  UNL     1      27.280  -0.648  52.732  1.00  0.00     0.313 HD
HETATM   29  H2  UNL     1      26.139  -1.931  53.083  1.00  0.00     0.313 HD
ENDBRANCH   1  27
TORSDOF 3
ENDMDL
MODEL 7
REMARK VINA RESULT:      -8.1      3.035      6.182
REMARK  3 active torsions:
REMARK  status: ('A' for Active; 'I' for Inactive)
REMARK    1  A    between atoms: N1_1  and  C1_2 
REMARK    2  A    between atoms: C9_14  and  N6_15 
REMARK    3  A    between atoms: N6_15  and  C10_16 
ROOT
HETATM    1  C1  UNL     1      19.859   1.515  50.601  1.00  0.00     0.220 C 
HETATM    2  C2  UNL     1      20.744   0.988  49.456  1.00  0.00     0.065 C 
HETATM    3  C3  UNL     1      21.692   2.037  49.382  1.00  0.00     0.272 C 
HETATM    4  N2  UNL     1      22.742   2.561  48.685  1.00  0.00     0.087 N 
HETATM    5  C4  UNL     1      23.139   3.664  49.633  1.00  0.00     0.311 C 
HETATM    6  C5  UNL     1      23.597   3.176  50.927  1.00  0.00     0.010 A 
HETATM    7  C6  UNL     1      22.792   2.897  51.996  1.00  0.00    -0.030 A 
HETATM    8  C7  UNL     1      23.662   2.443  53.034  1.00  0.00     0.126 A 
HETATM    9  N3  UNL     1      24.961   2.439  52.624  1.00  0.00    -0.239 N 
HETATM   10  N4  UNL     1      26.043   2.093  53.276  1.00  0.00    -0.161 NA
HETATM   11  C8  UNL     1      27.242   2.161  52.683  1.00  0.00     0.258 A 
HETATM   12  N5  UNL     1      27.265   2.592  51.414  1.00  0.00    -0.220 NA
HETATM   13  C9  UNL     1      26.140   2.939  50.773  1.00  0.00     0.159 A 
HETATM   14  C16 UNL     1      24.892   2.884  51.354  1.00  0.00     0.112 A 
HETATM   15  C17 UNL     1      21.359   2.970  52.209  1.00  0.00     0.043 C 
HETATM   16  C18 UNL     1      20.411   1.912  51.885  1.00  0.00     0.040 C 
HETATM   17  H8  UNL     1      23.580   1.993  48.469  1.00  0.00     0.316 HD
ENDROOT
BRANCH  13  18
HETATM   18  N6  UNL     1      26.304   3.363  49.433  1.00  0.00    -0.339 N 
HETATM   19  H13 UNL     1      26.245   3.011  48.477  1.00  0.00     0.167 HD
BRANCH  18  20
HETATM   20  C10 UNL     1      26.699   4.696  49.144  1.00  0.00     0.036 A 
HETATM   21  C11 UNL     1      27.923   4.892  48.523  1.00  0.00     0.029 A 
HETATM   22  C12 UNL     1      28.435   6.149  48.217  1.00  0.00     0.005 A 
HETATM   23  C13 UNL     1      27.672   7.255  48.553  1.00  0.00     0.042 A 
HETATM   24  C14 UNL     1      26.449   7.140  49.169  1.00  0.00     0.118 A 
HETATM   25  F1  UNL     1      25.662   8.196  49.520  1.00  0.00    -0.206 F 
HETATM   26  C15 UNL     1      25.999   5.873  49.446  1.00  0.00     0.071 A 
ENDBRANCH  18  20
ENDBRANCH  13  18
BRANCH   1  27
HETATM   27  N1  UNL     1      19.143   2.705  50.077  1.00  0.00     0.083 N 
HETATM   28  H1  UNL     1      19.560   3.023  49.180  1.00  0.00     0.313 HD
HETATM   29  H2  UNL     1      19.128   3.416  50.832  1.00  0.00     0.313 HD
ENDBRANCH   1  27
TORSDOF 3
ENDMDL
MODEL 8
REMARK VINA RESULT:      -8.0      2.623      4.041
REMARK  3 active torsions:
REMARK  status: ('A' for Active; 'I' for Inactive)
REMARK    1  A    between atoms: N1_1  and  C1_2 
REMARK    2  A    between atoms: C9_14  and  N6_15 
REMARK    3  A    between atoms: N6_15  and  C10_16 
ROOT
HETATM    1  C1  UNL     1      28.470  -0.285  53.555  1.00  0.00     0.220 C 
HETATM    2  C2  UNL     1      27.488  -1.331  52.996  1.00  0.00     0.065 C 
HETATM    3  C3  UNL     1      26.265  -0.648  53.203  1.00  0.00     0.272 C 
HETATM    4  N2  UNL     1      24.903  -0.738  53.164  1.00  0.00     0.087 N 
HETATM    5  C4  UNL     1      24.557   0.706  53.422  1.00  0.00     0.311 C 
HETATM    6  C5  UNL     1      25.025   1.608  52.379  1.00  0.00     0.010 A 
HETATM    7  C6  UNL     1      26.264   2.183  52.328  1.00  0.00    -0.030 A 
HETATM    8  C7  UNL     1      26.281   2.974  51.139  1.00  0.00     0.126 A 
HETATM    9  N3  UNL     1      25.095   2.892  50.473  1.00  0.00    -0.239 N 
HETATM   10  N4  UNL     1      24.722   3.464  49.356  1.00  0.00    -0.161 NA
HETATM   11  C8  UNL     1      23.495   3.249  48.861  1.00  0.00     0.258 A 
HETATM   12  N5  UNL     1      22.695   2.435  49.563  1.00  0.00    -0.220 NA
HETATM   13  C9  UNL     1      23.106   1.864  50.704  1.00  0.00     0.159 A 
HETATM   14  C16 UNL     1      24.359   2.065  51.241  1.00  0.00     0.112 A 
HETATM   15  C17 UNL     1      27.430   2.111  53.188  1.00  0.00     0.043 C 
HETATM   16  C18 UNL     1      28.472   1.096  53.100  1.00  0.00     0.040 C 
HETATM   17  H8  UNL     1      24.410  -1.049  52.309  1.00  0.00     0.316 HD
ENDROOT
BRANCH  13  18
HETATM   18  N6  UNL     1      22.168   1.015  51.337  1.00  0.00    -0.339 N 
HETATM   19  H13 UNL     1      22.122   0.168  51.906  1.00  0.00     0.167 HD
BRANCH  18  20
HETATM   20  C10 UNL     1      20.776   1.274  51.230  1.00  0.00     0.036 A 
HETATM   21  C11 UNL     1      20.278   2.416  51.839  1.00  0.00     0.029 A 
HETATM   22  C12 UNL     1      18.931   2.762  51.832  1.00  0.00     0.005 A 
HETATM   23  C13 UNL     1      18.050   1.915  51.179  1.00  0.00     0.042 A 
HETATM   24  C14 UNL     1      18.470   0.766  50.553  1.00  0.00     0.118 A 
HETATM   25  F1  UNL     1      17.644  -0.098  49.898  1.00  0.00    -0.206 F 
HETATM   26  C15 UNL     1      19.811   0.479  50.595  1.00  0.00     0.071 A 
ENDBRANCH  18  20
ENDBRANCH  13  18
BRANCH   1  27
HETATM   27  N1  UNL     1      28.251  -0.232  55.022  1.00  0.00     0.083 N 
HETATM   28  H1  UNL     1      29.080   0.167  55.506  1.00  0.00     0.313 HD
HETATM   29  H2  UNL     1      27.978  -1.184  55.331  1.00  0.00     0.313 HD
ENDBRANCH   1  27
TORSDOF 3
ENDMDL
MODEL 9
REMARK VINA RESULT:      -8.0      3.526      6.188
REMARK  3 active torsions:
REMARK  status: ('A' for Active; 'I' for Inactive)
REMARK    1  A    between atoms: N1_1  and  C1_2 
REMARK    2  A    between atoms: C9_14  and  N6_15 
REMARK    3  A    between atoms: N6_15  and  C10_16 
ROOT
HETATM    1  C1  UNL     1      25.118   6.654  49.443  1.00  0.00     0.220 C 
HETATM    2  C2  UNL     1      25.147   5.312  48.688  1.00  0.00     0.065 C 
HETATM    3  C3  UNL     1      25.096   4.418  49.784  1.00  0.00     0.272 C 
HETATM    4  N2  UNL     1      25.181   3.114  50.181  1.00  0.00     0.087 N 
HETATM    5  C4  UNL     1      24.784   3.273  51.626  1.00  0.00     0.311 C 
HETATM    6  C5  UNL     1      23.421   3.757  51.801  1.00  0.00     0.010 A 
HETATM    7  C6  UNL     1      23.045   5.071  51.821  1.00  0.00    -0.030 A 
HETATM    8  C7  UNL     1      21.629   5.071  52.005  1.00  0.00     0.126 A 
HETATM    9  N3  UNL     1      21.141   3.803  52.094  1.00  0.00    -0.239 N 
HETATM   10  N4  UNL     1      19.910   3.389  52.262  1.00  0.00    -0.161 NA
HETATM   11  C8  UNL     1      19.637   2.079  52.322  1.00  0.00     0.258 A 
HETATM   12  N5  UNL     1      20.675   1.240  52.203  1.00  0.00    -0.220 NA
HETATM   13  C9  UNL     1      21.924   1.694  52.032  1.00  0.00     0.159 A 
HETATM   14  C16 UNL     1      22.240   3.033  51.968  1.00  0.00     0.112 A 
HETATM   15  C17 UNL     1      23.776   6.317  51.687  1.00  0.00     0.043 C 
HETATM   16  C18 UNL     1      24.093   6.969  50.423  1.00  0.00     0.040 C 
HETATM   17  H8  UNL     1      24.587   2.384  49.753  1.00  0.00     0.316 HD
ENDROOT
BRANCH  13  18
HETATM   18  N6  UNL     1      22.925   0.701  51.906  1.00  0.00    -0.339 N 
HETATM   19  H13 UNL     1      23.457   0.197  51.195  1.00  0.00     0.167 HD
BRANCH  18  20
HETATM   20  C10 UNL     1      23.471   0.078  53.060  1.00  0.00     0.036 A 
HETATM   21  C11 UNL     1      22.609  -0.618  53.893  1.00  0.00     0.029 A 
HETATM   22  C12 UNL     1      23.015  -1.242  55.068  1.00  0.00     0.005 A 
HETATM   23  C13 UNL     1      24.355  -1.159  55.412  1.00  0.00     0.042 A 
HETATM   24  C14 UNL     1      25.268  -0.487  54.635  1.00  0.00     0.118 A 
HETATM   25  F1  UNL     1      26.594  -0.376  54.930  1.00  0.00    -0.206 F 
HETATM   26  C15 UNL     1      24.806   0.109  53.489  1.00  0.00     0.071 A 
ENDBRANCH  18  20
ENDBRANCH  13  18
BRANCH   1  27
HETATM   27  N1  UNL     1      26.415   6.774  50.154  1.00  0.00     0.083 N 
HETATM   28  H1  UNL     1      26.920   7.634  49.861  1.00  0.00     0.313 HD
HETATM   29  H2  UNL     1      26.935   5.888  50.006  1.00  0.00     0.313 HD
ENDBRANCH   1  27
TORSDOF 3
ENDMDL
