MODEL 1
REMARK VINA RESULT:      -7.4      0.000      0.000
REMARK  10 active torsions:
REMARK  status: ('A' for Active; 'I' for Inactive)
REMARK    1  A    between atoms: C2_2  and  C3_3 
REMARK    2  A    between atoms: C2_2  and  C4_5 
REMARK    3  A    between atoms: C3_3  and  O1_4 
REMARK    4  A    between atoms: C4_5  and  O2_6 
REMARK    5  A    between atoms: C6_8  and  C8_10 
REMARK    6  A    between atoms: C8_10  and  C9_11 
REMARK    7  A    between atoms: C9_11  and  C10_12 
REMARK    8  A    between atoms: C10_12  and  C11_13 
REMARK       I    between atoms: C11_13  and  N1_15 
REMARK       I    between atoms: N1_15  and  C12_16 
REMARK    9  A    between atoms: C12_16  and  C13_18 
REMARK   10  A    between atoms: C15_20  and  C16_21 
ROOT
HETATM    1  C11 UNL     1      25.627   4.208  50.290  1.00  0.00     0.227 C 
HETATM    2  O3  UNL     1      24.398   4.233  49.938  1.00  0.00    -0.273 OA
HETATM    3  N1  UNL     1      25.676   3.266  51.341  1.00  0.00    -0.293 N 
HETATM    4  C12 UNL     1      24.692   2.460  51.918  1.00  0.00     0.254 C 
HETATM    5  O4  UNL     1      23.523   2.611  51.514  1.00  0.00    -0.268 OA
HETATM    6  H16 UNL     1      26.651   3.577  51.262  1.00  0.00     0.172 HD
ENDROOT
BRANCH   1   7
HETATM    7  C10 UNL     1      25.658   5.204  49.199  1.00  0.00     0.130 C 
BRANCH   7   8
HETATM    8  C9  UNL     1      27.039   5.407  48.626  1.00  0.00    -0.021 C 
BRANCH   8   9
HETATM    9  C8  UNL     1      28.282   5.814  48.282  1.00  0.00    -0.016 C 
BRANCH   9  10
HETATM   10  C6  UNL     1      28.567   7.185  48.417  1.00  0.00     0.026 A 
HETATM   11  C4  UNL     1      29.101   8.436  48.475  1.00  0.00     0.094 A 
HETATM   12  C7  UNL     1      30.047   7.018  48.032  1.00  0.00     0.071 A 
BRANCH  11  13
HETATM   13  C2  UNL     1      27.980   9.383  48.887  1.00  0.00    -0.031 C 
HETATM   14  C1  UNL     1      27.465  10.576  48.490  1.00  0.00     0.019 C 
BRANCH  13  15
HETATM   15  C3  UNL     1      27.113   9.059  50.062  1.00  0.00     0.200 C 
BRANCH  15  16
HETATM   16  O1  UNL     1      27.674   9.535  51.257  1.00  0.00    -0.397 OA
HETATM   17  H5  UNL     1      28.586   9.899  51.016  1.00  0.00     0.209 HD
ENDBRANCH  15  16
ENDBRANCH  13  15
ENDBRANCH  11  13
BRANCH  11  18
HETATM   18  O2  UNL     1      29.697   9.596  48.506  1.00  0.00    -0.380 OA
HETATM   19  C5  UNL     1      30.707   9.889  49.480  1.00  0.00     0.203 C 
ENDBRANCH  11  18
ENDBRANCH   9  10
ENDBRANCH   8   9
ENDBRANCH   7   8
ENDBRANCH   1   7
BRANCH   4  20
HETATM   20  C13 UNL     1      25.388   1.624  52.887  1.00  0.00     0.008 A 
HETATM   21  C14 UNL     1      25.945   1.475  54.032  1.00  0.00    -0.005 A 
HETATM   22  C15 UNL     1      26.284   0.095  53.802  1.00  0.00     0.038 A 
HETATM   23  C19 UNL     1      25.640   0.240  52.483  1.00  0.00     0.056 A 
BRANCH  22  24
HETATM   24  C16 UNL     1      27.765  -0.128  53.827  1.00  0.00     0.019 C 
HETATM   25  C17 UNL     1      28.651  -1.049  53.507  1.00  0.00     0.087 C 
HETATM   26  C18 UNL     1      30.138  -0.992  53.651  1.00  0.00     0.082 C 
HETATM   27  F1  UNL     1      28.227  -2.241  52.967  1.00  0.00    -0.212 F 
ENDBRANCH  22  24
ENDBRANCH   4  20
TORSDOF 10
ENDMDL
MODEL 2
REMARK VINA RESULT:      -7.4      4.942      7.277
REMARK  10 active torsions:
REMARK  status: ('A' for Active; 'I' for Inactive)
REMARK    1  A    between atoms: C2_2  and  C3_3 
REMARK    2  A    between atoms: C2_2  and  C4_5 
REMARK    3  A    between atoms: C3_3  and  O1_4 
REMARK    4  A    between atoms: C4_5  and  O2_6 
REMARK    5  A    between atoms: C6_8  and  C8_10 
REMARK    6  A    between atoms: C8_10  and  C9_11 
REMARK    7  A    between atoms: C9_11  and  C10_12 
REMARK    8  A    between atoms: C10_12  and  C11_13 
REMARK       I    between atoms: C11_13  and  N1_15 
REMARK       I    between atoms: N1_15  and  C12_16 
REMARK    9  A    between atoms: C12_16  and  C13_18 
REMARK   10  A    between atoms: C15_20  and  C16_21 
ROOT
HETATM    1  C11 UNL     1      25.752   0.958  52.296  1.00  0.00     0.227 C 
HETATM    2  O3  UNL     1      26.739   0.353  52.838  1.00  0.00    -0.273 OA
HETATM    3  N1  UNL     1      24.610   0.381  52.893  1.00  0.00    -0.293 N 
HETATM    4  C12 UNL     1      24.467  -0.594  53.882  1.00  0.00     0.254 C 
HETATM    5  O4  UNL     1      25.507  -1.139  54.299  1.00  0.00    -0.268 OA
HETATM    6  H16 UNL     1      24.211   1.069  52.243  1.00  0.00     0.172 HD
ENDROOT
BRANCH   1   7
HETATM    7  C10 UNL     1      26.897   1.612  51.627  1.00  0.00     0.130 C 
BRANCH   7   8
HETATM    8  C9  UNL     1      26.474   2.649  50.615  1.00  0.00    -0.021 C 
BRANCH   8   9
HETATM    9  C8  UNL     1      25.895   3.638  49.897  1.00  0.00    -0.016 C 
BRANCH   9  10
HETATM   10  C6  UNL     1      24.525   3.501  49.607  1.00  0.00     0.026 A 
HETATM   11  C4  UNL     1      23.216   3.638  49.259  1.00  0.00     0.094 A 
HETATM   12  C7  UNL     1      24.368   4.967  49.168  1.00  0.00     0.071 A 
BRANCH  11  13
HETATM   13  C2  UNL     1      22.552   2.282  49.470  1.00  0.00    -0.031 C 
HETATM   14  C1  UNL     1      22.303   1.425  50.494  1.00  0.00     0.019 C 
BRANCH  13  15
HETATM   15  C3  UNL     1      21.968   1.541  48.310  1.00  0.00     0.200 C 
BRANCH  15  16
HETATM   16  O1  UNL     1      22.734   1.724  47.149  1.00  0.00    -0.397 OA
HETATM   17  H5  UNL     1      22.330   1.119  46.446  1.00  0.00     0.209 HD
ENDBRANCH  15  16
ENDBRANCH  13  15
ENDBRANCH  11  13
BRANCH  11  18
HETATM   18  O2  UNL     1      21.981   3.861  48.905  1.00  0.00    -0.380 OA
HETATM   19  C5  UNL     1      21.144   4.759  49.645  1.00  0.00     0.203 C 
ENDBRANCH  11  18
ENDBRANCH   9  10
ENDBRANCH   8   9
ENDBRANCH   7   8
ENDBRANCH   1   7
BRANCH   4  20
HETATM   20  C13 UNL     1      23.036  -0.680  54.144  1.00  0.00     0.008 A 
HETATM   21  C14 UNL     1      22.006  -1.365  54.478  1.00  0.00    -0.005 A 
HETATM   22  C15 UNL     1      21.102  -0.250  54.368  1.00  0.00     0.038 A 
HETATM   23  C19 UNL     1      22.275   0.560  53.990  1.00  0.00     0.056 A 
BRANCH  22  24
HETATM   24  C16 UNL     1      20.056  -0.480  53.320  1.00  0.00     0.019 C 
HETATM   25  C17 UNL     1      19.322   0.200  52.463  1.00  0.00     0.087 C 
HETATM   26  C18 UNL     1      18.310  -0.322  51.494  1.00  0.00     0.082 C 
HETATM   27  F1  UNL     1      19.448   1.568  52.396  1.00  0.00    -0.212 F 
ENDBRANCH  22  24
ENDBRANCH   4  20
TORSDOF 10
ENDMDL
MODEL 3
REMARK VINA RESULT:      -7.4      4.901      8.662
REMARK  10 active torsions:
REMARK  status: ('A' for Active; 'I' for Inactive)
REMARK    1  A    between atoms: C2_2  and  C3_3 
REMARK    2  A    between atoms: C2_2  and  C4_5 
REMARK    3  A    between atoms: C3_3  and  O1_4 
REMARK    4  A    between atoms: C4_5  and  O2_6 
REMARK    5  A    between atoms: C6_8  and  C8_10 
REMARK    6  A    between atoms: C8_10  and  C9_11 
REMARK    7  A    between atoms: C9_11  and  C10_12 
REMARK    8  A    between atoms: C10_12  and  C11_13 
REMARK       I    between atoms: C11_13  and  N1_15 
REMARK       I    between atoms: N1_15  and  C12_16 
REMARK    9  A    between atoms: C12_16  and  C13_18 
REMARK   10  A    between atoms: C15_20  and  C16_21 
ROOT
HETATM    1  C11 UNL     1      22.812  -0.898  54.320  1.00  0.00     0.227 C 
HETATM    2  O3  UNL     1      23.178  -1.628  55.304  1.00  0.00    -0.273 OA
HETATM    3  N1  UNL     1      23.984  -0.213  53.930  1.00  0.00    -0.293 N 
HETATM    4  C12 UNL     1      25.297  -0.269  54.402  1.00  0.00     0.254 C 
HETATM    5  O4  UNL     1      25.515  -0.989  55.396  1.00  0.00    -0.268 OA
HETATM    6  H16 UNL     1      23.277   0.141  53.274  1.00  0.00     0.172 HD
ENDROOT
BRANCH   1   7
HETATM    7  C10 UNL     1      21.545  -1.576  54.667  1.00  0.00     0.130 C 
BRANCH   7   8
HETATM    8  C9  UNL     1      20.352  -0.999  53.945  1.00  0.00    -0.021 C 
BRANCH   8   9
HETATM    9  C8  UNL     1      19.436  -0.531  53.067  1.00  0.00    -0.016 C 
BRANCH   9  10
HETATM   10  C6  UNL     1      19.900   0.329  52.054  1.00  0.00     0.026 A 
HETATM   11  C4  UNL     1      20.117   1.084  50.943  1.00  0.00     0.094 A 
HETATM   12  C7  UNL     1      18.690   0.071  51.141  1.00  0.00     0.071 A 
BRANCH  11  13
HETATM   13  C2  UNL     1      21.441   1.812  51.146  1.00  0.00    -0.031 C 
HETATM   14  C1  UNL     1      22.681   1.831  50.592  1.00  0.00     0.019 C 
BRANCH  13  15
HETATM   15  C3  UNL     1      21.587   2.818  52.243  1.00  0.00     0.200 C 
BRANCH  15  16
HETATM   16  O1  UNL     1      20.364   3.445  52.527  1.00  0.00    -0.397 OA
HETATM   17  H5  UNL     1      20.163   4.042  51.736  1.00  0.00     0.209 HD
ENDBRANCH  15  16
ENDBRANCH  13  15
ENDBRANCH  11  13
BRANCH  11  18
HETATM   18  O2  UNL     1      20.241   1.773  49.842  1.00  0.00    -0.380 OA
HETATM   19  C5  UNL     1      19.214   2.671  49.405  1.00  0.00     0.203 C 
ENDBRANCH  11  18
ENDBRANCH   9  10
ENDBRANCH   8   9
ENDBRANCH   7   8
ENDBRANCH   1   7
BRANCH   4  20
HETATM   20  C13 UNL     1      26.068   0.596  53.518  1.00  0.00     0.008 A 
HETATM   21  C14 UNL     1      26.888   1.566  53.349  1.00  0.00    -0.005 A 
HETATM   22  C15 UNL     1      26.875   1.461  51.913  1.00  0.00     0.038 A 
HETATM   23  C19 UNL     1      25.938   0.335  52.084  1.00  0.00     0.056 A 
BRANCH  22  24
HETATM   24  C16 UNL     1      26.349   2.705  51.266  1.00  0.00     0.019 C 
HETATM   25  C17 UNL     1      26.317   3.291  50.087  1.00  0.00     0.087 C 
HETATM   26  C18 UNL     1      25.688   4.598  49.720  1.00  0.00     0.082 C 
HETATM   27  F1  UNL     1      26.919   2.684  49.010  1.00  0.00    -0.212 F 
ENDBRANCH  22  24
ENDBRANCH   4  20
TORSDOF 10
ENDMDL
MODEL 4
REMARK VINA RESULT:      -7.3      3.417      8.641
REMARK  10 active torsions:
REMARK  status: ('A' for Active; 'I' for Inactive)
REMARK    1  A    between atoms: C2_2  and  C3_3 
REMARK    2  A    between atoms: C2_2  and  C4_5 
REMARK    3  A    between atoms: C3_3  and  O1_4 
REMARK    4  A    between atoms: C4_5  and  O2_6 
REMARK    5  A    between atoms: C6_8  and  C8_10 
REMARK    6  A    between atoms: C8_10  and  C9_11 
REMARK    7  A    between atoms: C9_11  and  C10_12 
REMARK    8  A    between atoms: C10_12  and  C11_13 
REMARK       I    between atoms: C11_13  and  N1_15 
REMARK       I    between atoms: N1_15  and  C12_16 
REMARK    9  A    between atoms: C12_16  and  C13_18 
REMARK   10  A    between atoms: C15_20  and  C16_21 
ROOT
HETATM    1  C11 UNL     1      23.783   1.552  51.685  1.00  0.00     0.227 C 
HETATM    2  O3  UNL     1      23.209   2.206  52.623  1.00  0.00    -0.273 OA
HETATM    3  N1  UNL     1      24.460   2.535  50.930  1.00  0.00    -0.293 N 
HETATM    4  C12 UNL     1      24.583   3.916  51.095  1.00  0.00     0.254 C 
HETATM    5  O4  UNL     1      23.939   4.439  52.024  1.00  0.00    -0.268 OA
HETATM    6  H16 UNL     1      24.683   1.664  50.434  1.00  0.00     0.172 HD
ENDROOT
BRANCH   1   7
HETATM    7  C10 UNL     1      23.103   0.466  52.424  1.00  0.00     0.130 C 
BRANCH   7   8
HETATM    8  C9  UNL     1      24.003  -0.219  53.422  1.00  0.00    -0.021 C 
BRANCH   8   9
HETATM    9  C8  UNL     1      24.930  -0.580  54.338  1.00  0.00    -0.016 C 
BRANCH   9  10
HETATM   10  C6  UNL     1      26.281  -0.388  53.992  1.00  0.00     0.026 A 
HETATM   11  C4  UNL     1      27.530   0.068  53.701  1.00  0.00     0.094 A 
HETATM   12  C7  UNL     1      26.215   1.138  54.178  1.00  0.00     0.071 A 
BRANCH  11  13
HETATM   13  C2  UNL     1      28.377  -1.146  53.339  1.00  0.00    -0.031 C 
HETATM   14  C1  UNL     1      29.684  -1.516  53.374  1.00  0.00     0.019 C 
BRANCH  13  15
HETATM   15  C3  UNL     1      27.737  -2.362  52.746  1.00  0.00     0.200 C 
BRANCH  15  16
HETATM   16  O1  UNL     1      28.438  -3.528  53.091  1.00  0.00    -0.397 OA
HETATM   17  H5  UNL     1      29.233  -3.227  53.639  1.00  0.00     0.209 HD
ENDBRANCH  15  16
ENDBRANCH  13  15
ENDBRANCH  11  13
BRANCH  11  18
HETATM   18  O2  UNL     1      28.695   0.593  53.439  1.00  0.00    -0.380 OA
HETATM   19  C5  UNL     1      29.264   1.601  54.284  1.00  0.00     0.203 C 
ENDBRANCH  11  18
ENDBRANCH   9  10
ENDBRANCH   8   9
ENDBRANCH   7   8
ENDBRANCH   1   7
BRANCH   4  20
HETATM   20  C13 UNL     1      25.501   4.354  50.051  1.00  0.00     0.008 A 
HETATM   21  C14 UNL     1      26.565   4.178  49.359  1.00  0.00    -0.005 A 
HETATM   22  C15 UNL     1      26.387   5.381  48.589  1.00  0.00     0.038 A 
HETATM   23  C19 UNL     1      25.153   5.601  49.366  1.00  0.00     0.056 A 
BRANCH  22  24
HETATM   24  C16 UNL     1      27.513   6.347  48.795  1.00  0.00     0.019 C 
HETATM   25  C17 UNL     1      28.258   7.188  48.106  1.00  0.00     0.087 C 
HETATM   26  C18 UNL     1      29.364   8.065  48.602  1.00  0.00     0.082 C 
HETATM   27  F1  UNL     1      28.049   7.331  46.754  1.00  0.00    -0.212 F 
ENDBRANCH  22  24
ENDBRANCH   4  20
TORSDOF 10
ENDMDL
MODEL 5
REMARK VINA RESULT:      -7.3      2.974      8.278
REMARK  10 active torsions:
REMARK  status: ('A' for Active; 'I' for Inactive)
REMARK    1  A    between atoms: C2_2  and  C3_3 
REMARK    2  A    between atoms: C2_2  and  C4_5 
REMARK    3  A    between atoms: C3_3  and  O1_4 
REMARK    4  A    between atoms: C4_5  and  O2_6 
REMARK    5  A    between atoms: C6_8  and  C8_10 
REMARK    6  A    between atoms: C8_10  and  C9_11 
REMARK    7  A    between atoms: C9_11  and  C10_12 
REMARK    8  A    between atoms: C10_12  and  C11_13 
REMARK       I    between atoms: C11_13  and  N1_15 
REMARK       I    between atoms: N1_15  and  C12_16 
REMARK    9  A    between atoms: C12_16  and  C13_18 
REMARK   10  A    between atoms: C15_20  and  C16_21 
ROOT
HETATM    1  C11 UNL     1      24.411   3.077  50.012  1.00  0.00     0.227 C 
HETATM    2  O3  UNL     1      23.613   3.893  50.588  1.00  0.00    -0.273 OA
HETATM    3  N1  UNL     1      25.424   3.896  49.467  1.00  0.00    -0.293 N 
HETATM    4  C12 UNL     1      25.634   5.275  49.516  1.00  0.00     0.254 C 
HETATM    5  O4  UNL     1      24.759   5.966  50.072  1.00  0.00    -0.268 OA
HETATM    6  H16 UNL     1      25.713   2.951  49.188  1.00  0.00     0.172 HD
ENDROOT
BRANCH   1   7
HETATM    7  C10 UNL     1      23.391   2.153  50.553  1.00  0.00     0.130 C 
BRANCH   7   8
HETATM    8  C9  UNL     1      23.573   1.870  52.024  1.00  0.00    -0.021 C 
BRANCH   8   9
HETATM    9  C8  UNL     1      24.008   1.670  53.288  1.00  0.00    -0.016 C 
BRANCH   9  10
HETATM   10  C6  UNL     1      25.139   0.851  53.455  1.00  0.00     0.026 A 
HETATM   11  C4  UNL     1      26.055  -0.150  53.572  1.00  0.00     0.094 A 
HETATM   12  C7  UNL     1      24.354  -0.453  53.230  1.00  0.00     0.071 A 
BRANCH  11  13
HETATM   13  C2  UNL     1      27.400   0.505  53.863  1.00  0.00    -0.031 C 
HETATM   14  C1  UNL     1      28.470   0.301  54.675  1.00  0.00     0.019 C 
BRANCH  13  15
HETATM   15  C3  UNL     1      27.803   1.752  53.142  1.00  0.00     0.200 C 
BRANCH  15  16
HETATM   16  O1  UNL     1      27.992   2.819  54.034  1.00  0.00    -0.397 OA
HETATM   17  H5  UNL     1      27.658   2.498  54.933  1.00  0.00     0.209 HD
ENDBRANCH  15  16
ENDBRANCH  13  15
ENDBRANCH  11  13
BRANCH  11  18
HETATM   18  O2  UNL     1      26.861  -1.171  53.667  1.00  0.00    -0.380 OA
HETATM   19  C5  UNL     1      27.032  -2.090  52.580  1.00  0.00     0.203 C 
ENDBRANCH  11  18
ENDBRANCH   9  10
ENDBRANCH   8   9
ENDBRANCH   7   8
ENDBRANCH   1   7
BRANCH   4  20
HETATM   20  C13 UNL     1      26.913   5.501  48.854  1.00  0.00     0.008 A 
HETATM   21  C14 UNL     1      28.067   5.079  48.491  1.00  0.00    -0.005 A 
HETATM   22  C15 UNL     1      28.436   6.320  47.861  1.00  0.00     0.038 A 
HETATM   23  C19 UNL     1      27.109   6.824  48.260  1.00  0.00     0.056 A 
BRANCH  22  24
HETATM   24  C16 UNL     1      29.634   6.941  48.510  1.00  0.00     0.019 C 
HETATM   25  C17 UNL     1      30.908   6.685  48.731  1.00  0.00     0.087 C 
HETATM   26  C18 UNL     1      31.913   7.534  49.443  1.00  0.00     0.082 C 
HETATM   27  F1  UNL     1      31.452   5.506  48.277  1.00  0.00    -0.212 F 
ENDBRANCH  22  24
ENDBRANCH   4  20
TORSDOF 10
ENDMDL
MODEL 6
REMARK VINA RESULT:      -7.2      3.196      4.711
REMARK  10 active torsions:
REMARK  status: ('A' for Active; 'I' for Inactive)
REMARK    1  A    between atoms: C2_2  and  C3_3 
REMARK    2  A    between atoms: C2_2  and  C4_5 
REMARK    3  A    between atoms: C3_3  and  O1_4 
REMARK    4  A    between atoms: C4_5  and  O2_6 
REMARK    5  A    between atoms: C6_8  and  C8_10 
REMARK    6  A    between atoms: C8_10  and  C9_11 
REMARK    7  A    between atoms: C9_11  and  C10_12 
REMARK    8  A    between atoms: C10_12  and  C11_13 
REMARK       I    between atoms: C11_13  and  N1_15 
REMARK       I    between atoms: N1_15  and  C12_16 
REMARK    9  A    between atoms: C12_16  and  C13_18 
REMARK   10  A    between atoms: C15_20  and  C16_21 
ROOT
HETATM    1  C11 UNL     1      22.315   1.465  51.148  1.00  0.00     0.227 C 
HETATM    2  O3  UNL     1      21.535   0.454  51.214  1.00  0.00    -0.273 OA
HETATM    3  N1  UNL     1      23.325   1.196  52.098  1.00  0.00    -0.293 N 
HETATM    4  C12 UNL     1      23.548   0.101  52.937  1.00  0.00     0.254 C 
HETATM    5  O4  UNL     1      22.689  -0.801  52.937  1.00  0.00    -0.268 OA
HETATM    6  H16 UNL     1      23.601   2.108  51.717  1.00  0.00     0.172 HD
ENDROOT
BRANCH   1   7
HETATM    7  C10 UNL     1      21.297   1.818  50.136  1.00  0.00     0.130 C 
BRANCH   7   8
HETATM    8  C9  UNL     1      21.860   2.623  48.991  1.00  0.00    -0.021 C 
BRANCH   8   9
HETATM    9  C8  UNL     1      22.605   3.330  48.111  1.00  0.00    -0.016 C 
BRANCH   9  10
HETATM   10  C6  UNL     1      23.666   4.091  48.636  1.00  0.00     0.026 A 
HETATM   11  C4  UNL     1      24.516   5.040  49.115  1.00  0.00     0.094 A 
HETATM   12  C7  UNL     1      22.879   5.411  48.585  1.00  0.00     0.071 A 
BRANCH  11  13
HETATM   13  C2  UNL     1      25.821   4.336  49.468  1.00  0.00    -0.031 C 
HETATM   14  C1  UNL     1      27.122   4.361  49.078  1.00  0.00     0.019 C 
BRANCH  13  15
HETATM   15  C3  UNL     1      25.843   3.269  50.516  1.00  0.00     0.200 C 
BRANCH  15  16
HETATM   16  O1  UNL     1      25.164   3.679  51.675  1.00  0.00    -0.397 OA
HETATM   17  H5  UNL     1      25.598   4.545  51.964  1.00  0.00     0.209 HD
ENDBRANCH  15  16
ENDBRANCH  13  15
ENDBRANCH  11  13
BRANCH  11  18
HETATM   18  O2  UNL     1      25.261   6.014  49.560  1.00  0.00    -0.380 OA
HETATM   19  C5  UNL     1      24.822   6.859  50.631  1.00  0.00     0.203 C 
ENDBRANCH  11  18
ENDBRANCH   9  10
ENDBRANCH   8   9
ENDBRANCH   7   8
ENDBRANCH   1   7
BRANCH   4  20
HETATM   20  C13 UNL     1      24.816   0.371  53.603  1.00  0.00     0.008 A 
HETATM   21  C14 UNL     1      25.808   1.149  53.835  1.00  0.00    -0.005 A 
HETATM   22  C15 UNL     1      26.462   0.219  54.718  1.00  0.00     0.038 A 
HETATM   23  C19 UNL     1      25.327  -0.690  54.473  1.00  0.00     0.056 A 
BRANCH  22  24
HETATM   24  C16 UNL     1      27.804  -0.197  54.197  1.00  0.00     0.019 C 
HETATM   25  C17 UNL     1      29.057   0.211  54.199  1.00  0.00     0.087 C 
HETATM   26  C18 UNL     1      30.243  -0.441  53.563  1.00  0.00     0.082 C 
HETATM   27  F1  UNL     1      29.390   1.377  54.848  1.00  0.00    -0.212 F 
ENDBRANCH  22  24
ENDBRANCH   4  20
TORSDOF 10
ENDMDL
MODEL 7
REMARK VINA RESULT:      -7.1      3.917      8.223
REMARK  10 active torsions:
REMARK  status: ('A' for Active; 'I' for Inactive)
REMARK    1  A    between atoms: C2_2  and  C3_3 
REMARK    2  A    between atoms: C2_2  and  C4_5 
REMARK    3  A    between atoms: C3_3  and  O1_4 
REMARK    4  A    between atoms: C4_5  and  O2_6 
REMARK    5  A    between atoms: C6_8  and  C8_10 
REMARK    6  A    between atoms: C8_10  and  C9_11 
REMARK    7  A    between atoms: C9_11  and  C10_12 
REMARK    8  A    between atoms: C10_12  and  C11_13 
REMARK       I    between atoms: C11_13  and  N1_15 
REMARK       I    between atoms: N1_15  and  C12_16 
REMARK    9  A    between atoms: C12_16  and  C13_18 
REMARK   10  A    between atoms: C15_20  and  C16_21 
ROOT
HETATM    1  C11 UNL     1      22.191   1.165  51.109  1.00  0.00     0.227 C 
HETATM    2  O3  UNL     1      21.555   0.500  50.221  1.00  0.00    -0.273 OA
HETATM    3  N1  UNL     1      22.743   2.259  50.407  1.00  0.00    -0.293 N 
HETATM    4  C12 UNL     1      22.650   2.650  49.070  1.00  0.00     0.254 C 
HETATM    5  O4  UNL     1      22.036   1.892  48.295  1.00  0.00    -0.268 OA
HETATM    6  H16 UNL     1      23.068   2.411  51.369  1.00  0.00     0.172 HD
ENDROOT
BRANCH   1   7
HETATM    7  C10 UNL     1      21.647   0.050  51.914  1.00  0.00     0.130 C 
BRANCH   7   8
HETATM    8  C9  UNL     1      22.590  -0.406  53.000  1.00  0.00    -0.021 C 
BRANCH   8   9
HETATM    9  C8  UNL     1      23.581  -0.585  53.902  1.00  0.00    -0.016 C 
BRANCH   9  10
HETATM   10  C6  UNL     1      24.895  -0.330  53.468  1.00  0.00     0.026 A 
HETATM   11  C4  UNL     1      26.086   0.184  53.057  1.00  0.00     0.094 A 
HETATM   12  C7  UNL     1      24.698   1.196  53.443  1.00  0.00     0.071 A 
BRANCH  11  13
HETATM   13  C2  UNL     1      27.027  -0.993  52.826  1.00  0.00    -0.031 C 
HETATM   14  C1  UNL     1      26.984  -2.229  52.264  1.00  0.00     0.019 C 
BRANCH  13  15
HETATM   15  C3  UNL     1      28.440  -0.936  53.316  1.00  0.00     0.200 C 
BRANCH  15  16
HETATM   16  O1  UNL     1      28.494  -0.622  54.683  1.00  0.00    -0.397 OA
HETATM   17  H5  UNL     1      29.302  -1.106  55.051  1.00  0.00     0.209 HD
ENDBRANCH  15  16
ENDBRANCH  13  15
ENDBRANCH  11  13
BRANCH  11  18
HETATM   18  O2  UNL     1      27.189   0.764  52.669  1.00  0.00    -0.380 OA
HETATM   19  C5  UNL     1      27.209   2.144  52.282  1.00  0.00     0.203 C 
ENDBRANCH  11  18
ENDBRANCH   9  10
ENDBRANCH   8   9
ENDBRANCH   7   8
ENDBRANCH   1   7
BRANCH   4  20
HETATM   20  C13 UNL     1      23.352   3.925  48.986  1.00  0.00     0.008 A 
HETATM   21  C14 UNL     1      23.660   4.984  48.333  1.00  0.00    -0.005 A 
HETATM   22  C15 UNL     1      24.475   5.522  49.391  1.00  0.00     0.038 A 
HETATM   23  C19 UNL     1      24.127   4.316  50.165  1.00  0.00     0.056 A 
BRANCH  22  24
HETATM   24  C16 UNL     1      25.904   5.682  48.970  1.00  0.00     0.019 C 
HETATM   25  C17 UNL     1      26.996   4.961  48.813  1.00  0.00     0.087 C 
HETATM   26  C18 UNL     1      28.346   5.414  48.356  1.00  0.00     0.082 C 
HETATM   27  F1  UNL     1      26.965   3.614  49.086  1.00  0.00    -0.212 F 
ENDBRANCH  22  24
ENDBRANCH   4  20
TORSDOF 10
ENDMDL
MODEL 8
REMARK VINA RESULT:      -6.9      4.350      6.494
REMARK  10 active torsions:
REMARK  status: ('A' for Active; 'I' for Inactive)
REMARK    1  A    between atoms: C2_2  and  C3_3 
REMARK    2  A    between atoms: C2_2  and  C4_5 
REMARK    3  A    between atoms: C3_3  and  O1_4 
REMARK    4  A    between atoms: C4_5  and  O2_6 
REMARK    5  A    between atoms: C6_8  and  C8_10 
REMARK    6  A    between atoms: C8_10  and  C9_11 
REMARK    7  A    between atoms: C9_11  and  C10_12 
REMARK    8  A    between atoms: C10_12  and  C11_13 
REMARK       I    between atoms: C11_13  and  N1_15 
REMARK       I    between atoms: N1_15  and  C12_16 
REMARK    9  A    between atoms: C12_16  and  C13_18 
REMARK   10  A    between atoms: C15_20  and  C16_21 
ROOT
HETATM    1  C11 UNL     1      25.421   1.260  52.031  1.00  0.00     0.227 C 
HETATM    2  O3  UNL     1      26.239   0.373  52.455  1.00  0.00    -0.273 OA
HETATM    3  N1  UNL     1      24.172   0.877  52.568  1.00  0.00    -0.293 N 
HETATM    4  C12 UNL     1      23.803  -0.174  53.410  1.00  0.00     0.254 C 
HETATM    5  O4  UNL     1      24.687  -0.996  53.718  1.00  0.00    -0.268 OA
HETATM    6  H16 UNL     1      23.946   1.724  52.033  1.00  0.00     0.172 HD
ENDROOT
BRANCH   1   7
HETATM    7  C10 UNL     1      26.690   1.726  51.433  1.00  0.00     0.130 C 
BRANCH   7   8
HETATM    8  C9  UNL     1      26.490   2.794  50.386  1.00  0.00    -0.021 C 
BRANCH   8   9
HETATM    9  C8  UNL     1      26.163   3.880  49.650  1.00  0.00    -0.016 C 
BRANCH   9  10
HETATM   10  C6  UNL     1      25.047   4.627  50.071  1.00  0.00     0.026 A 
HETATM   11  C4  UNL     1      24.079   5.550  50.322  1.00  0.00     0.094 A 
HETATM   12  C7  UNL     1      25.454   5.876  49.271  1.00  0.00     0.071 A 
BRANCH  11  13
HETATM   13  C2  UNL     1      23.072   4.900  51.263  1.00  0.00    -0.031 C 
HETATM   14  C1  UNL     1      21.818   4.379  51.202  1.00  0.00     0.019 C 
BRANCH  13  15
HETATM   15  C3  UNL     1      23.399   4.725  52.712  1.00  0.00     0.200 C 
BRANCH  15  16
HETATM   16  O1  UNL     1      24.107   5.828  53.213  1.00  0.00    -0.397 OA
HETATM   17  H5  UNL     1      24.911   5.944  52.611  1.00  0.00     0.209 HD
ENDBRANCH  15  16
ENDBRANCH  13  15
ENDBRANCH  11  13
BRANCH  11  18
HETATM   18  O2  UNL     1      23.199   6.496  50.505  1.00  0.00    -0.380 OA
HETATM   19  C5  UNL     1      22.595   7.177  49.398  1.00  0.00     0.203 C 
ENDBRANCH  11  18
ENDBRANCH   9  10
ENDBRANCH   8   9
ENDBRANCH   7   8
ENDBRANCH   1   7
BRANCH   4  20
HETATM   20  C13 UNL     1      22.388   0.030  53.694  1.00  0.00     0.008 A 
HETATM   21  C14 UNL     1      21.432   0.183  54.534  1.00  0.00    -0.005 A 
HETATM   22  C15 UNL     1      20.420   0.298  53.518  1.00  0.00     0.038 A 
HETATM   23  C19 UNL     1      21.504   0.133  52.532  1.00  0.00     0.056 A 
BRANCH  22  24
HETATM   24  C16 UNL     1      19.403  -0.797  53.615  1.00  0.00     0.019 C 
HETATM   25  C17 UNL     1      18.385  -1.291  52.940  1.00  0.00     0.087 C 
HETATM   26  C18 UNL     1      17.510  -2.449  53.300  1.00  0.00     0.082 C 
HETATM   27  F1  UNL     1      18.023  -0.720  51.742  1.00  0.00    -0.212 F 
ENDBRANCH  22  24
ENDBRANCH   4  20
TORSDOF 10
ENDMDL
MODEL 9
REMARK VINA RESULT:      -6.8      4.197      6.358
REMARK  10 active torsions:
REMARK  status: ('A' for Active; 'I' for Inactive)
REMARK    1  A    between atoms: C2_2  and  C3_3 
REMARK    2  A    between atoms: C2_2  and  C4_5 
REMARK    3  A    between atoms: C3_3  and  O1_4 
REMARK    4  A    between atoms: C4_5  and  O2_6 
REMARK    5  A    between atoms: C6_8  and  C8_10 
REMARK    6  A    between atoms: C8_10  and  C9_11 
REMARK    7  A    between atoms: C9_11  and  C10_12 
REMARK    8  A    between atoms: C10_12  and  C11_13 
REMARK       I    between atoms: C11_13  and  N1_15 
REMARK       I    between atoms: N1_15  and  C12_16 
REMARK    9  A    between atoms: C12_16  and  C13_18 
REMARK   10  A    between atoms: C15_20  and  C16_21 
ROOT
HETATM    1  C11 UNL     1      25.603   0.761  52.323  1.00  0.00     0.227 C 
HETATM    2  O3  UNL     1      26.482   0.531  53.223  1.00  0.00    -0.273 OA
HETATM    3  N1  UNL     1      24.425   0.156  52.815  1.00  0.00    -0.293 N 
HETATM    4  C12 UNL     1      24.153  -0.521  54.006  1.00  0.00     0.254 C 
HETATM    5  O4  UNL     1      25.108  -0.718  54.781  1.00  0.00    -0.268 OA
HETATM    6  H16 UNL     1      24.127   0.549  51.915  1.00  0.00     0.172 HD
ENDROOT
BRANCH   1   7
HETATM    7  C10 UNL     1      26.792   1.418  51.741  1.00  0.00     0.130 C 
BRANCH   7   8
HETATM    8  C9  UNL     1      26.441   2.528  50.781  1.00  0.00    -0.021 C 
BRANCH   8   9
HETATM    9  C8  UNL     1      26.388   3.484  49.827  1.00  0.00    -0.016 C 
BRANCH   9  10
HETATM   10  C6  UNL     1      25.306   4.382  49.878  1.00  0.00     0.026 A 
HETATM   11  C4  UNL     1      24.108   5.027  49.860  1.00  0.00     0.094 A 
HETATM   12  C7  UNL     1      24.266   3.306  49.523  1.00  0.00     0.071 A 
BRANCH  11  13
HETATM   13  C2  UNL     1      24.379   6.488  50.201  1.00  0.00    -0.031 C 
HETATM   14  C1  UNL     1      23.734   7.526  50.793  1.00  0.00     0.019 C 
BRANCH  13  15
HETATM   15  C3  UNL     1      25.683   7.119  49.828  1.00  0.00     0.200 C 
BRANCH  15  16
HETATM   16  O1  UNL     1      26.327   7.662  50.950  1.00  0.00    -0.397 OA
HETATM   17  H5  UNL     1      26.797   6.892  51.406  1.00  0.00     0.209 HD
ENDBRANCH  15  16
ENDBRANCH  13  15
ENDBRANCH  11  13
BRANCH  11  18
HETATM   18  O2  UNL     1      22.918   5.562  49.820  1.00  0.00    -0.380 OA
HETATM   19  C5  UNL     1      21.754   4.820  50.206  1.00  0.00     0.203 C 
ENDBRANCH  11  18
ENDBRANCH   9  10
ENDBRANCH   8   9
ENDBRANCH   7   8
ENDBRANCH   1   7
BRANCH   4  20
HETATM   20  C13 UNL     1      22.725  -0.811  53.973  1.00  0.00     0.008 A 
HETATM   21  C14 UNL     1      21.760  -1.633  53.785  1.00  0.00    -0.005 A 
HETATM   22  C15 UNL     1      20.739  -0.661  54.072  1.00  0.00     0.038 A 
HETATM   23  C19 UNL     1      21.832   0.302  54.304  1.00  0.00     0.056 A 
BRANCH  22  24
HETATM   24  C16 UNL     1      19.847  -0.421  52.893  1.00  0.00     0.019 C 
HETATM   25  C17 UNL     1      18.574  -0.496  52.560  1.00  0.00     0.087 C 
HETATM   26  C18 UNL     1      17.943  -0.178  51.242  1.00  0.00     0.082 C 
HETATM   27  F1  UNL     1      17.652  -0.911  53.491  1.00  0.00    -0.212 F 
ENDBRANCH  22  24
ENDBRANCH   4  20
TORSDOF 10
ENDMDL
