MODEL 1
REMARK VINA RESULT:      -7.1      0.000      0.000
REMARK  5 active torsions:
REMARK  status: ('A' for Active; 'I' for Inactive)
REMARK    1  A    between atoms: C3_3  and  C4_4 
REMARK       I    between atoms: C4_4  and  N1_6 
REMARK    2  A    between atoms: N1_6  and  C5_7 
REMARK    3  A    between atoms: C5_7  and  C6_8 
REMARK    4  A    between atoms: C11_14  and  N3_15 
REMARK    5  A    between atoms: N3_15  and  C12_16 
ROOT
HETATM    1  C1  UNL     1      32.460   4.031  47.143  1.00  0.00     0.112 C 
HETATM    2  C2  UNL     1      31.232   4.728  47.520  1.00  0.00    -0.101 C 
HETATM    3  C3  UNL     1      30.215   5.292  47.839  1.00  0.00    -0.006 C 
ENDROOT
BRANCH   3   4
HETATM    4  C4  UNL     1      28.989   5.983  48.207  1.00  0.00     0.296 C 
HETATM    5  O1  UNL     1      29.081   7.228  48.356  1.00  0.00    -0.258 OA
HETATM    6  N1  UNL     1      27.805   5.211  48.365  1.00  0.00    -0.347 N 
HETATM    7  H4  UNL     1      27.863   4.168  48.210  1.00  0.00     0.163 HD
BRANCH   6   8
HETATM    8  C5  UNL     1      26.575   5.888  48.733  1.00  0.00     0.151 C 
BRANCH   8   9
HETATM    9  C6  UNL     1      25.917   5.128  49.828  1.00  0.00     0.004 C 
HETATM   10  C7  UNL     1      24.598   4.865  49.775  1.00  0.00    -0.014 A 
HETATM   11  C8  UNL     1      23.862   5.368  48.586  1.00  0.00     0.189 A 
HETATM   12  C11 UNL     1      24.012   4.116  50.881  1.00  0.00     0.041 A 
HETATM   13  N2  UNL     1      22.483   4.992  48.710  1.00  0.00    -0.297 NA
HETATM   14  C9  UNL     1      21.964   4.332  49.683  1.00  0.00     0.113 A 
HETATM   15  C10 UNL     1      22.718   3.852  50.839  1.00  0.00     0.049 A 
BRANCH  12  16
HETATM   16  N3  UNL     1      24.794   3.671  51.983  1.00  0.00    -0.356 N 
HETATM   17  H12 UNL     1      25.038   4.413  52.675  1.00  0.00     0.166 HD
BRANCH  16  18
HETATM   18  C12 UNL     1      25.245   2.337  52.196  1.00  0.00     0.034 A 
HETATM   19  C13 UNL     1      26.402   1.787  51.642  1.00  0.00     0.032 A 
HETATM   20  C14 UNL     1      26.722   0.470  51.935  1.00  0.00     0.046 A 
HETATM   21  C15 UNL     1      25.951  -0.340  52.755  1.00  0.00     0.138 A 
HETATM   22  F1  UNL     1      26.288  -1.625  53.023  1.00  0.00    -0.204 F 
HETATM   23  C16 UNL     1      24.808   0.240  53.286  1.00  0.00     0.074 A 
HETATM   24 CL1  UNL     1      23.821  -0.791  54.331  1.00  0.00    -0.081 Cl
HETATM   25  C17 UNL     1      24.451   1.552  53.020  1.00  0.00     0.056 A 
ENDBRANCH  16  18
ENDBRANCH  12  16
ENDBRANCH   8   9
ENDBRANCH   6   8
ENDBRANCH   3   4
TORSDOF 5
ENDMDL
MODEL 2
REMARK VINA RESULT:      -7.0      4.388      6.637
REMARK  5 active torsions:
REMARK  status: ('A' for Active; 'I' for Inactive)
REMARK    1  A    between atoms: C3_3  and  C4_4 
REMARK       I    between atoms: C4_4  and  N1_6 
REMARK    2  A    between atoms: N1_6  and  C5_7 
REMARK    3  A    between atoms: C5_7  and  C6_8 
REMARK    4  A    between atoms: C11_14  and  N3_15 
REMARK    5  A    between atoms: N3_15  and  C12_16 
ROOT
HETATM    1  C1  UNL     1      30.479  -0.890  53.671  1.00  0.00     0.112 C 
HETATM    2  C2  UNL     1      29.109  -0.386  53.729  1.00  0.00    -0.101 C 
HETATM    3  C3  UNL     1      27.974   0.018  53.779  1.00  0.00    -0.006 C 
ENDROOT
BRANCH   3   4
HETATM    4  C4  UNL     1      26.609   0.519  53.828  1.00  0.00     0.296 C 
HETATM    5  O1  UNL     1      25.735  -0.300  54.212  1.00  0.00    -0.258 OA
HETATM    6  N1  UNL     1      26.374   1.869  53.446  1.00  0.00    -0.347 N 
HETATM    7  H4  UNL     1      27.200   2.454  53.142  1.00  0.00     0.163 HD
BRANCH   6   8
HETATM    8  C5  UNL     1      25.017   2.380  53.490  1.00  0.00     0.151 C 
BRANCH   8   9
HETATM    9  C6  UNL     1      24.791   3.247  52.303  1.00  0.00     0.004 C 
HETATM   10  C7  UNL     1      23.995   2.831  51.301  1.00  0.00    -0.014 A 
HETATM   11  C8  UNL     1      23.374   1.489  51.451  1.00  0.00     0.189 A 
HETATM   12  C11 UNL     1      23.815   3.727  50.164  1.00  0.00     0.041 A 
HETATM   13  N2  UNL     1      22.569   1.227  50.293  1.00  0.00    -0.297 NA
HETATM   14  C9  UNL     1      22.407   2.014  49.290  1.00  0.00     0.113 A 
HETATM   15  C10 UNL     1      23.035   3.329  49.174  1.00  0.00     0.049 A 
BRANCH  12  16
HETATM   16  N3  UNL     1      24.449   4.999  50.102  1.00  0.00    -0.356 N 
HETATM   17  H12 UNL     1      23.926   5.772  50.567  1.00  0.00     0.166 HD
BRANCH  16  18
HETATM   18  C12 UNL     1      25.698   5.274  49.475  1.00  0.00     0.034 A 
HETATM   19  C13 UNL     1      26.701   4.330  49.244  1.00  0.00     0.032 A 
HETATM   20  C14 UNL     1      27.872   4.738  48.621  1.00  0.00     0.046 A 
HETATM   21  C15 UNL     1      28.105   6.042  48.212  1.00  0.00     0.138 A 
HETATM   22  F1  UNL     1      29.259   6.413  47.606  1.00  0.00    -0.204 F 
HETATM   23  C16 UNL     1      27.087   6.952  48.459  1.00  0.00     0.074 A 
HETATM   24 CL1  UNL     1      27.382   8.617  47.940  1.00  0.00    -0.081 Cl
HETATM   25  C17 UNL     1      25.902   6.587  49.078  1.00  0.00     0.056 A 
ENDBRANCH  16  18
ENDBRANCH  12  16
ENDBRANCH   8   9
ENDBRANCH   6   8
ENDBRANCH   3   4
TORSDOF 5
ENDMDL
MODEL 3
REMARK VINA RESULT:      -6.8      4.701      5.956
REMARK  5 active torsions:
REMARK  status: ('A' for Active; 'I' for Inactive)
REMARK    1  A    between atoms: C3_3  and  C4_4 
REMARK       I    between atoms: C4_4  and  N1_6 
REMARK    2  A    between atoms: N1_6  and  C5_7 
REMARK    3  A    between atoms: C5_7  and  C6_8 
REMARK    4  A    between atoms: C11_14  and  N3_15 
REMARK    5  A    between atoms: N3_15  and  C12_16 
ROOT
HETATM    1  C1  UNL     1      22.411   6.460  45.815  1.00  0.00     0.112 C 
HETATM    2  C2  UNL     1      22.301   5.173  46.498  1.00  0.00    -0.101 C 
HETATM    3  C3  UNL     1      22.210   4.117  47.074  1.00  0.00    -0.006 C 
ENDROOT
BRANCH   3   4
HETATM    4  C4  UNL     1      22.109   2.836  47.754  1.00  0.00     0.296 C 
HETATM    5  O1  UNL     1      22.725   1.878  47.220  1.00  0.00    -0.258 OA
HETATM    6  N1  UNL     1      21.338   2.767  48.947  1.00  0.00    -0.347 N 
HETATM    7  H4  UNL     1      20.869   3.648  49.291  1.00  0.00     0.163 HD
BRANCH   6   8
HETATM    8  C5  UNL     1      21.229   1.494  49.635  1.00  0.00     0.151 C 
BRANCH   8   9
HETATM    9  C6  UNL     1      22.342   1.381  50.616  1.00  0.00     0.004 C 
HETATM   10  C7  UNL     1      22.163   0.716  51.772  1.00  0.00    -0.014 A 
HETATM   11  C8  UNL     1      20.821   0.118  52.000  1.00  0.00     0.189 A 
HETATM   12  C11 UNL     1      23.292   0.642  52.692  1.00  0.00     0.041 A 
HETATM   13  N2  UNL     1      20.827  -0.542  53.274  1.00  0.00    -0.297 NA
HETATM   14  C9  UNL     1      21.820  -0.610  54.086  1.00  0.00     0.113 A 
HETATM   15  C10 UNL     1      23.128  -0.009  53.830  1.00  0.00     0.049 A 
BRANCH  12  16
HETATM   16  N3  UNL     1      24.545   1.244  52.392  1.00  0.00    -0.356 N 
HETATM   17  H12 UNL     1      24.483   2.165  51.906  1.00  0.00     0.166 HD
BRANCH  16  18
HETATM   18  C12 UNL     1      25.824   0.697  52.699  1.00  0.00     0.034 A 
HETATM   19  C13 UNL     1      26.185  -0.640  52.520  1.00  0.00     0.032 A 
HETATM   20  C14 UNL     1      27.469  -1.036  52.863  1.00  0.00     0.046 A 
HETATM   21  C15 UNL     1      28.424  -0.173  53.377  1.00  0.00     0.138 A 
HETATM   22  F1  UNL     1      29.672  -0.589  53.704  1.00  0.00    -0.204 F 
HETATM   23  C16 UNL     1      28.030   1.147  53.542  1.00  0.00     0.074 A 
HETATM   24 CL1  UNL     1      29.245   2.251  54.199  1.00  0.00    -0.081 Cl
HETATM   25  C17 UNL     1      26.757   1.586  53.213  1.00  0.00     0.056 A 
ENDBRANCH  16  18
ENDBRANCH  12  16
ENDBRANCH   8   9
ENDBRANCH   6   8
ENDBRANCH   3   4
TORSDOF 5
ENDMDL
MODEL 4
REMARK VINA RESULT:      -6.8      5.224      9.166
REMARK  5 active torsions:
REMARK  status: ('A' for Active; 'I' for Inactive)
REMARK    1  A    between atoms: C3_3  and  C4_4 
REMARK       I    between atoms: C4_4  and  N1_6 
REMARK    2  A    between atoms: N1_6  and  C5_7 
REMARK    3  A    between atoms: C5_7  and  C6_8 
REMARK    4  A    between atoms: C11_14  and  N3_15 
REMARK    5  A    between atoms: N3_15  and  C12_16 
ROOT
HETATM    1  C1  UNL     1      16.888  -2.209  53.016  1.00  0.00     0.112 C 
HETATM    2  C2  UNL     1      18.251  -1.906  53.446  1.00  0.00    -0.101 C 
HETATM    3  C3  UNL     1      19.374  -1.663  53.812  1.00  0.00    -0.006 C 
ENDROOT
BRANCH   3   4
HETATM    4  C4  UNL     1      20.728  -1.353  54.243  1.00  0.00     0.296 C 
HETATM    5  O1  UNL     1      21.258  -2.179  55.030  1.00  0.00    -0.258 OA
HETATM    6  N1  UNL     1      21.335  -0.164  53.752  1.00  0.00    -0.347 N 
HETATM    7  H4  UNL     1      20.778   0.447  53.094  1.00  0.00     0.163 HD
BRANCH   6   8
HETATM    8  C5  UNL     1      22.685   0.157  54.176  1.00  0.00     0.151 C 
BRANCH   8   9
HETATM    9  C6  UNL     1      23.385   0.856  53.065  1.00  0.00     0.004 C 
HETATM   10  C7  UNL     1      24.718   0.742  52.925  1.00  0.00    -0.014 A 
HETATM   11  C8  UNL     1      25.428  -0.103  53.921  1.00  0.00     0.189 A 
HETATM   12  C11 UNL     1      25.345   1.452  51.816  1.00  0.00     0.041 A 
HETATM   13  N2  UNL     1      26.827  -0.101  53.606  1.00  0.00    -0.297 NA
HETATM   14  C9  UNL     1      27.382   0.523  52.630  1.00  0.00     0.113 A 
HETATM   15  C10 UNL     1      26.654   1.347  51.667  1.00  0.00     0.049 A 
BRANCH  12  16
HETATM   16  N3  UNL     1      24.587   2.241  50.906  1.00  0.00    -0.356 N 
HETATM   17  H12 UNL     1      24.001   1.696  50.237  1.00  0.00     0.166 HD
BRANCH  16  18
HETATM   18  C12 UNL     1      24.576   3.664  50.851  1.00  0.00     0.034 A 
HETATM   19  C13 UNL     1      23.762   4.488  51.631  1.00  0.00     0.032 A 
HETATM   20  C14 UNL     1      23.855   5.863  51.472  1.00  0.00     0.046 A 
HETATM   21  C15 UNL     1      24.719   6.472  50.575  1.00  0.00     0.138 A 
HETATM   22  F1  UNL     1      24.788   7.819  50.441  1.00  0.00    -0.204 F 
HETATM   23  C16 UNL     1      25.511   5.622  49.816  1.00  0.00     0.074 A 
HETATM   24 CL1  UNL     1      26.613   6.396  48.669  1.00  0.00    -0.081 Cl
HETATM   25  C17 UNL     1      25.450   4.243  49.942  1.00  0.00     0.056 A 
ENDBRANCH  16  18
ENDBRANCH  12  16
ENDBRANCH   8   9
ENDBRANCH   6   8
ENDBRANCH   3   4
TORSDOF 5
ENDMDL
MODEL 5
REMARK VINA RESULT:      -6.7      4.970      6.945
REMARK  5 active torsions:
REMARK  status: ('A' for Active; 'I' for Inactive)
REMARK    1  A    between atoms: C3_3  and  C4_4 
REMARK       I    between atoms: C4_4  and  N1_6 
REMARK    2  A    between atoms: N1_6  and  C5_7 
REMARK    3  A    between atoms: C5_7  and  C6_8 
REMARK    4  A    between atoms: C11_14  and  N3_15 
REMARK    5  A    between atoms: N3_15  and  C12_16 
ROOT
HETATM    1  C1  UNL     1      30.126   2.161  54.879  1.00  0.00     0.112 C 
HETATM    2  C2  UNL     1      28.988   1.296  54.576  1.00  0.00    -0.101 C 
HETATM    3  C3  UNL     1      28.053   0.580  54.314  1.00  0.00    -0.006 C 
ENDROOT
BRANCH   3   4
HETATM    4  C4  UNL     1      26.916  -0.274  54.011  1.00  0.00     0.296 C 
HETATM    5  O1  UNL     1      27.170  -1.320  53.360  1.00  0.00    -0.258 OA
HETATM    6  N1  UNL     1      25.630   0.131  54.466  1.00  0.00    -0.347 N 
HETATM    7  H4  UNL     1      25.554   1.037  55.005  1.00  0.00     0.163 HD
BRANCH   6   8
HETATM    8  C5  UNL     1      24.488  -0.712  54.170  1.00  0.00     0.151 C 
BRANCH   8   9
HETATM    9  C6  UNL     1      23.689  -0.077  53.088  1.00  0.00     0.004 C 
HETATM   10  C7  UNL     1      22.349  -0.203  53.071  1.00  0.00    -0.014 A 
HETATM   11  C8  UNL     1      21.736  -0.995  54.168  1.00  0.00     0.189 A 
HETATM   12  C11 UNL     1      21.623   0.443  51.983  1.00  0.00     0.041 A 
HETATM   13  N2  UNL     1      20.314  -1.015  53.977  1.00  0.00    -0.297 NA
HETATM   14  C9  UNL     1      19.672  -0.446  53.021  1.00  0.00     0.113 A 
HETATM   15  C10 UNL     1      20.307   0.326  51.955  1.00  0.00     0.049 A 
BRANCH  12  16
HETATM   16  N3  UNL     1      22.292   1.185  50.971  1.00  0.00    -0.356 N 
HETATM   17  H12 UNL     1      22.416   0.681  50.067  1.00  0.00     0.166 HD
BRANCH  16  18
HETATM   18  C12 UNL     1      22.783   2.516  51.104  1.00  0.00     0.034 A 
HETATM   19  C13 UNL     1      22.306   3.455  52.020  1.00  0.00     0.032 A 
HETATM   20  C14 UNL     1      22.879   4.719  52.041  1.00  0.00     0.046 A 
HETATM   21  C15 UNL     1      23.907   5.106  51.195  1.00  0.00     0.138 A 
HETATM   22  F1  UNL     1      24.448   6.348  51.237  1.00  0.00    -0.204 F 
HETATM   23  C16 UNL     1      24.355   4.146  50.298  1.00  0.00     0.074 A 
HETATM   24 CL1  UNL     1      25.667   4.637  49.217  1.00  0.00    -0.081 Cl
HETATM   25  C17 UNL     1      23.811   2.873  50.244  1.00  0.00     0.056 A 
ENDBRANCH  16  18
ENDBRANCH  12  16
ENDBRANCH   8   9
ENDBRANCH   6   8
ENDBRANCH   3   4
TORSDOF 5
ENDMDL
MODEL 6
REMARK VINA RESULT:      -6.7      4.029      4.997
REMARK  5 active torsions:
REMARK  status: ('A' for Active; 'I' for Inactive)
REMARK    1  A    between atoms: C3_3  and  C4_4 
REMARK       I    between atoms: C4_4  and  N1_6 
REMARK    2  A    between atoms: N1_6  and  C5_7 
REMARK    3  A    between atoms: C5_7  and  C6_8 
REMARK    4  A    between atoms: C11_14  and  N3_15 
REMARK    5  A    between atoms: N3_15  and  C12_16 
ROOT
HETATM    1  C1  UNL     1      29.050  -0.305  53.416  1.00  0.00     0.112 C 
HETATM    2  C2  UNL     1      27.957   0.639  53.195  1.00  0.00    -0.101 C 
HETATM    3  C3  UNL     1      27.046   1.410  53.019  1.00  0.00    -0.006 C 
ENDROOT
BRANCH   3   4
HETATM    4  C4  UNL     1      25.957   2.346  52.791  1.00  0.00     0.296 C 
HETATM    5  O1  UNL     1      25.269   2.648  53.800  1.00  0.00    -0.258 OA
HETATM    6  N1  UNL     1      25.759   2.839  51.471  1.00  0.00    -0.347 N 
HETATM    7  H4  UNL     1      26.410   2.504  50.710  1.00  0.00     0.163 HD
BRANCH   6   8
HETATM    8  C5  UNL     1      24.675   3.774  51.231  1.00  0.00     0.151 C 
BRANCH   8   9
HETATM    9  C6  UNL     1      23.380   3.075  51.451  1.00  0.00     0.004 C 
HETATM   10  C7  UNL     1      22.678   2.603  50.405  1.00  0.00    -0.014 A 
HETATM   11  C8  UNL     1      23.260   2.818  49.055  1.00  0.00     0.189 A 
HETATM   12  C11 UNL     1      21.416   1.929  50.687  1.00  0.00     0.041 A 
HETATM   13  N2  UNL     1      22.374   2.249  48.081  1.00  0.00    -0.297 NA
HETATM   14  C9  UNL     1      21.262   1.654  48.326  1.00  0.00     0.113 A 
HETATM   15  C10 UNL     1      20.717   1.460  49.668  1.00  0.00     0.049 A 
BRANCH  12  16
HETATM   16  N3  UNL     1      20.932   1.767  52.015  1.00  0.00    -0.356 N 
HETATM   17  H12 UNL     1      20.330   2.545  52.360  1.00  0.00     0.166 HD
BRANCH  16  18
HETATM   18  C12 UNL     1      21.202   0.658  52.868  1.00  0.00     0.034 A 
HETATM   19  C13 UNL     1      20.238  -0.218  53.370  1.00  0.00     0.032 A 
HETATM   20  C14 UNL     1      20.643  -1.258  54.193  1.00  0.00     0.046 A 
HETATM   21  C15 UNL     1      21.965  -1.480  54.549  1.00  0.00     0.138 A 
HETATM   22  F1  UNL     1      22.333  -2.505  55.355  1.00  0.00    -0.204 F 
HETATM   23  C16 UNL     1      22.895  -0.590  54.032  1.00  0.00     0.074 A 
HETATM   24 CL1  UNL     1      24.582  -0.869  54.485  1.00  0.00    -0.081 Cl
HETATM   25  C17 UNL     1      22.533   0.463  53.206  1.00  0.00     0.056 A 
ENDBRANCH  16  18
ENDBRANCH  12  16
ENDBRANCH   8   9
ENDBRANCH   6   8
ENDBRANCH   3   4
TORSDOF 5
ENDMDL
MODEL 7
REMARK VINA RESULT:      -6.7      4.144      5.744
REMARK  5 active torsions:
REMARK  status: ('A' for Active; 'I' for Inactive)
REMARK    1  A    between atoms: C3_3  and  C4_4 
REMARK       I    between atoms: C4_4  and  N1_6 
REMARK    2  A    between atoms: N1_6  and  C5_7 
REMARK    3  A    between atoms: C5_7  and  C6_8 
REMARK    4  A    between atoms: C11_14  and  N3_15 
REMARK    5  A    between atoms: N3_15  and  C12_16 
ROOT
HETATM    1  C1  UNL     1      28.825  -2.674  53.058  1.00  0.00     0.112 C 
HETATM    2  C2  UNL     1      28.338  -1.303  53.189  1.00  0.00    -0.101 C 
HETATM    3  C3  UNL     1      27.932  -0.171  53.284  1.00  0.00    -0.006 C 
ENDROOT
BRANCH   3   4
HETATM    4  C4  UNL     1      27.455   1.197  53.411  1.00  0.00     0.296 C 
HETATM    5  O1  UNL     1      28.342   2.084  53.502  1.00  0.00    -0.258 OA
HETATM    6  N1  UNL     1      26.050   1.421  53.424  1.00  0.00    -0.347 N 
HETATM    7  H4  UNL     1      25.410   0.584  53.340  1.00  0.00     0.163 HD
BRANCH   6   8
HETATM    8  C5  UNL     1      25.561   2.781  53.551  1.00  0.00     0.151 C 
BRANCH   8   9
HETATM    9  C6  UNL     1      24.163   2.839  53.047  1.00  0.00     0.004 C 
HETATM   10  C7  UNL     1      23.922   3.002  51.733  1.00  0.00    -0.014 A 
HETATM   11  C8  UNL     1      25.107   3.116  50.843  1.00  0.00     0.189 A 
HETATM   12  C11 UNL     1      22.530   3.052  51.302  1.00  0.00     0.041 A 
HETATM   13  N2  UNL     1      24.649   3.282  49.494  1.00  0.00    -0.297 NA
HETATM   14  C9  UNL     1      23.424   3.326  49.111  1.00  0.00     0.113 A 
HETATM   15  C10 UNL     1      22.281   3.210  50.014  1.00  0.00     0.049 A 
BRANCH  12  16
HETATM   16  N3  UNL     1      21.454   2.933  52.225  1.00  0.00    -0.356 N 
HETATM   17  H12 UNL     1      21.252   3.795  52.775  1.00  0.00     0.166 HD
BRANCH  16  18
HETATM   18  C12 UNL     1      20.668   1.764  52.438  1.00  0.00     0.034 A 
HETATM   19  C13 UNL     1      19.402   1.543  51.891  1.00  0.00     0.032 A 
HETATM   20  C14 UNL     1      18.747   0.355  52.183  1.00  0.00     0.046 A 
HETATM   21  C15 UNL     1      19.281  -0.633  52.995  1.00  0.00     0.138 A 
HETATM   22  F1  UNL     1      18.618  -1.784  53.263  1.00  0.00    -0.204 F 
HETATM   23  C16 UNL     1      20.540  -0.377  53.521  1.00  0.00     0.074 A 
HETATM   24 CL1  UNL     1      21.225  -1.636  54.558  1.00  0.00    -0.081 Cl
HETATM   25  C17 UNL     1      21.229   0.795  53.255  1.00  0.00     0.056 A 
ENDBRANCH  16  18
ENDBRANCH  12  16
ENDBRANCH   8   9
ENDBRANCH   6   8
ENDBRANCH   3   4
TORSDOF 5
ENDMDL
MODEL 8
REMARK VINA RESULT:      -6.6      3.947      4.916
REMARK  5 active torsions:
REMARK  status: ('A' for Active; 'I' for Inactive)
REMARK    1  A    between atoms: C3_3  and  C4_4 
REMARK       I    between atoms: C4_4  and  N1_6 
REMARK    2  A    between atoms: N1_6  and  C5_7 
REMARK    3  A    between atoms: C5_7  and  C6_8 
REMARK    4  A    between atoms: C11_14  and  N3_15 
REMARK    5  A    between atoms: N3_15  and  C12_16 
ROOT
HETATM    1  C1  UNL     1      21.975   6.317  44.962  1.00  0.00     0.112 C 
HETATM    2  C2  UNL     1      22.484   6.136  46.320  1.00  0.00    -0.101 C 
HETATM    3  C3  UNL     1      22.915   5.984  47.436  1.00  0.00    -0.006 C 
ENDROOT
BRANCH   3   4
HETATM    4  C4  UNL     1      23.419   5.796  48.787  1.00  0.00     0.296 C 
HETATM    5  O1  UNL     1      24.669   5.713  48.903  1.00  0.00    -0.258 OA
HETATM    6  N1  UNL     1      22.478   5.722  49.851  1.00  0.00    -0.347 N 
HETATM    7  H4  UNL     1      21.451   5.807  49.617  1.00  0.00     0.163 HD
BRANCH   6   8
HETATM    8  C5  UNL     1      22.968   5.534  51.204  1.00  0.00     0.151 C 
BRANCH   8   9
HETATM    9  C6  UNL     1      23.277   4.093  51.407  1.00  0.00     0.004 C 
HETATM   10  C7  UNL     1      22.345   3.264  51.910  1.00  0.00    -0.014 A 
HETATM   11  C8  UNL     1      21.025   3.861  52.241  1.00  0.00     0.189 A 
HETATM   12  C11 UNL     1      22.710   1.863  52.086  1.00  0.00     0.041 A 
HETATM   13  N2  UNL     1      20.174   2.828  52.759  1.00  0.00    -0.297 NA
HETATM   14  C9  UNL     1      20.493   1.593  52.915  1.00  0.00     0.113 A 
HETATM   15  C10 UNL     1      21.803   1.038  52.579  1.00  0.00     0.049 A 
BRANCH  12  16
HETATM   16  N3  UNL     1      24.001   1.375  51.742  1.00  0.00    -0.356 N 
HETATM   17  H12 UNL     1      24.186   1.310  50.718  1.00  0.00     0.166 HD
BRANCH  16  18
HETATM   18  C12 UNL     1      25.015   0.986  52.663  1.00  0.00     0.034 A 
HETATM   19  C13 UNL     1      24.951  -0.132  53.497  1.00  0.00     0.032 A 
HETATM   20  C14 UNL     1      26.014  -0.392  54.349  1.00  0.00     0.046 A 
HETATM   21  C15 UNL     1      27.149   0.402  54.421  1.00  0.00     0.138 A 
HETATM   22  F1  UNL     1      28.173   0.123  55.263  1.00  0.00    -0.204 F 
HETATM   23  C16 UNL     1      27.177   1.504  53.578  1.00  0.00     0.074 A 
HETATM   24 CL1  UNL     1      28.622   2.520  53.667  1.00  0.00    -0.081 Cl
HETATM   25  C17 UNL     1      26.137   1.801  52.712  1.00  0.00     0.056 A 
ENDBRANCH  16  18
ENDBRANCH  12  16
ENDBRANCH   8   9
ENDBRANCH   6   8
ENDBRANCH   3   4
TORSDOF 5
ENDMDL
MODEL 9
REMARK VINA RESULT:      -6.6      4.356      6.649
REMARK  5 active torsions:
REMARK  status: ('A' for Active; 'I' for Inactive)
REMARK    1  A    between atoms: C3_3  and  C4_4 
REMARK       I    between atoms: C4_4  and  N1_6 
REMARK    2  A    between atoms: N1_6  and  C5_7 
REMARK    3  A    between atoms: C5_7  and  C6_8 
REMARK    4  A    between atoms: C11_14  and  N3_15 
REMARK    5  A    between atoms: N3_15  and  C12_16 
ROOT
HETATM    1  C1  UNL     1      32.058   0.069  46.652  1.00  0.00     0.112 C 
HETATM    2  C2  UNL     1      32.120   1.528  46.717  1.00  0.00    -0.101 C 
HETATM    3  C3  UNL     1      32.160   2.731  46.778  1.00  0.00    -0.006 C 
ENDROOT
BRANCH   3   4
HETATM    4  C4  UNL     1      32.218   4.183  46.835  1.00  0.00     0.296 C 
HETATM    5  O1  UNL     1      32.535   4.765  45.765  1.00  0.00    -0.258 OA
HETATM    6  N1  UNL     1      31.918   4.820  48.071  1.00  0.00    -0.347 N 
HETATM    7  H4  UNL     1      31.666   4.213  48.898  1.00  0.00     0.163 HD
BRANCH   6   8
HETATM    8  C5  UNL     1      31.972   6.269  48.141  1.00  0.00     0.151 C 
BRANCH   8   9
HETATM    9  C6  UNL     1      30.613   6.814  47.885  1.00  0.00     0.004 C 
HETATM   10  C7  UNL     1      30.292   8.056  48.291  1.00  0.00    -0.014 A 
HETATM   11  C8  UNL     1      31.352   8.827  48.992  1.00  0.00     0.189 A 
HETATM   12  C11 UNL     1      28.942   8.532  48.011  1.00  0.00     0.041 A 
HETATM   13  N2  UNL     1      30.824  10.114  49.342  1.00  0.00    -0.297 NA
HETATM   14  C9  UNL     1      29.636  10.536  49.096  1.00  0.00     0.113 A 
HETATM   15  C10 UNL     1      28.616   9.751  48.404  1.00  0.00     0.049 A 
BRANCH  12  16
HETATM   16  N3  UNL     1      27.988   7.725  47.331  1.00  0.00    -0.356 N 
HETATM   17  H12 UNL     1      28.113   7.675  46.298  1.00  0.00     0.166 HD
BRANCH  16  18
HETATM   18  C12 UNL     1      26.918   7.012  47.944  1.00  0.00     0.034 A 
HETATM   19  C13 UNL     1      25.605   7.474  48.048  1.00  0.00     0.032 A 
HETATM   20  C14 UNL     1      24.661   6.672  48.672  1.00  0.00     0.046 A 
HETATM   21  C15 UNL     1      24.950   5.424  49.204  1.00  0.00     0.138 A 
HETATM   22  F1  UNL     1      24.008   4.661  49.810  1.00  0.00    -0.204 F 
HETATM   23  C16 UNL     1      26.265   4.998  49.083  1.00  0.00     0.074 A 
HETATM   24 CL1  UNL     1      26.638   3.408  49.762  1.00  0.00    -0.081 Cl
HETATM   25  C17 UNL     1      27.240   5.768  48.467  1.00  0.00     0.056 A 
ENDBRANCH  16  18
ENDBRANCH  12  16
ENDBRANCH   8   9
ENDBRANCH   6   8
ENDBRANCH   3   4
TORSDOF 5
ENDMDL
