MODEL 1
REMARK VINA RESULT:      -8.2      0.000      0.000
REMARK  5 active torsions:
REMARK  status: ('A' for Active; 'I' for Inactive)
REMARK    1  A    between atoms: C2_2  and  O1_3 
REMARK    2  A    between atoms: O1_3  and  C3_4 
REMARK    3  A    between atoms: C3_4  and  C4_5 
REMARK    4  A    between atoms: C7_8  and  N1_9 
REMARK    5  A    between atoms: N1_9  and  C8_10 
ROOT
HETATM    1  C4  UNL     1      25.785  -0.425  53.259  1.00  0.00     0.001 A 
HETATM    2  C5  UNL     1      25.906   0.626  52.404  1.00  0.00     0.047 A 
HETATM    3  C6  UNL     1      26.492   1.647  51.493  1.00  0.00     0.045 C 
HETATM    4  C7  UNL     1      25.419   2.422  51.184  1.00  0.00     0.104 C 
HETATM    5  N2  UNL     1      24.147   2.501  51.616  1.00  0.00    -0.252 NA
HETATM    6  C14 UNL     1      23.077   2.142  51.910  1.00  0.00     0.091 C 
HETATM    7  C15 UNL     1      22.202   1.026  52.030  1.00  0.00     0.047 C 
HETATM    8  C16 UNL     1      22.107   0.167  53.250  1.00  0.00     0.006 C 
HETATM    9  C17 UNL     1      23.347  -0.481  53.696  1.00  0.00    -0.022 C 
HETATM   10  C18 UNL     1      24.437   0.070  53.041  1.00  0.00     0.030 A 
ENDROOT
BRANCH   4  11
HETATM   11  N1  UNL     1      25.592   3.494  50.321  1.00  0.00    -0.344 N 
HETATM   12  H10 UNL     1      24.564   3.601  50.058  1.00  0.00     0.167 HD
BRANCH  11  13
HETATM   13  C8  UNL     1      26.075   4.555  49.535  1.00  0.00     0.035 A 
HETATM   14  C9  UNL     1      25.047   5.481  49.281  1.00  0.00     0.032 A 
HETATM   15  C10 UNL     1      25.387   6.605  48.534  1.00  0.00     0.046 A 
HETATM   16  C11 UNL     1      26.703   6.691  48.120  1.00  0.00     0.138 A 
HETATM   17  F1  UNL     1      27.037   7.776  47.391  1.00  0.00    -0.204 F 
HETATM   18  C12 UNL     1      27.698   5.785  48.367  1.00  0.00     0.074 A 
HETATM   19 CL1  UNL     1      29.364   5.934  47.829  1.00  0.00    -0.081 Cl
HETATM   20  C13 UNL     1      27.382   4.657  49.114  1.00  0.00     0.056 A 
ENDBRANCH  11  13
ENDBRANCH   4  11
BRANCH   1  21
HETATM   21  C3  UNL     1      27.186  -0.936  53.484  1.00  0.00     0.178 C 
BRANCH  21  22
HETATM   22  O1  UNL     1      27.660  -0.526  54.716  1.00  0.00    -0.391 OA
BRANCH  22  23
HETATM   23  C2  UNL     1      28.930   0.030  54.595  1.00  0.00     0.163 C 
HETATM   24  C1  UNL     1      29.839  -0.577  53.590  1.00  0.00     0.033 C 
ENDBRANCH  22  23
ENDBRANCH  21  22
ENDBRANCH   1  21
TORSDOF 5
ENDMDL
MODEL 2
REMARK VINA RESULT:      -7.7      4.735      7.238
REMARK  5 active torsions:
REMARK  status: ('A' for Active; 'I' for Inactive)
REMARK    1  A    between atoms: C2_2  and  O1_3 
REMARK    2  A    between atoms: O1_3  and  C3_4 
REMARK    3  A    between atoms: C3_4  and  C4_5 
REMARK    4  A    between atoms: C7_8  and  N1_9 
REMARK    5  A    between atoms: N1_9  and  C8_10 
ROOT
HETATM    1  C4  UNL     1      26.153   0.763  53.479  1.00  0.00     0.001 A 
HETATM    2  C5  UNL     1      24.811   0.640  53.291  1.00  0.00     0.047 A 
HETATM    3  C6  UNL     1      23.390   0.235  53.468  1.00  0.00     0.045 C 
HETATM    4  C7  UNL     1      22.784   0.791  52.387  1.00  0.00     0.104 C 
HETATM    5  N2  UNL     1      23.210   1.421  51.276  1.00  0.00    -0.252 NA
HETATM    6  C14 UNL     1      23.797   2.186  50.620  1.00  0.00     0.091 C 
HETATM    7  C15 UNL     1      24.730   3.261  50.618  1.00  0.00     0.047 C 
HETATM    8  C16 UNL     1      26.212   3.081  50.563  1.00  0.00     0.006 C 
HETATM    9  C17 UNL     1      26.817   2.274  51.631  1.00  0.00    -0.022 C 
HETATM   10  C18 UNL     1      25.832   1.596  52.334  1.00  0.00     0.030 A 
ENDROOT
BRANCH   4  11
HETATM   11  N1  UNL     1      21.416   0.627  52.225  1.00  0.00    -0.344 N 
HETATM   12  H10 UNL     1      21.198   1.649  52.008  1.00  0.00     0.167 HD
BRANCH  11  13
HETATM   13  C8  UNL     1      20.098   0.151  52.116  1.00  0.00     0.035 A 
HETATM   14  C9  UNL     1      19.743  -0.569  53.272  1.00  0.00     0.032 A 
HETATM   15  C10 UNL     1      18.448  -1.079  53.319  1.00  0.00     0.046 A 
HETATM   16  C11 UNL     1      17.649  -0.824  52.221  1.00  0.00     0.138 A 
HETATM   17  F1  UNL     1      16.395  -1.322  52.259  1.00  0.00    -0.204 F 
HETATM   18  C12 UNL     1      18.001  -0.127  51.097  1.00  0.00     0.074 A 
HETATM   19 CL1  UNL     1      16.951   0.182  49.723  1.00  0.00    -0.081 Cl
HETATM   20  C13 UNL     1      19.287   0.394  51.030  1.00  0.00     0.056 A 
ENDBRANCH  11  13
ENDBRANCH   4  11
BRANCH   1  21
HETATM   21  C3  UNL     1      26.482  -0.104  54.668  1.00  0.00     0.178 C 
BRANCH  21  22
HETATM   22  O1  UNL     1      27.852  -0.243  54.802  1.00  0.00    -0.391 OA
BRANCH  22  23
HETATM   23  C2  UNL     1      28.425  -0.646  53.599  1.00  0.00     0.163 C 
HETATM   24  C1  UNL     1      29.903  -0.784  53.569  1.00  0.00     0.033 C 
ENDBRANCH  22  23
ENDBRANCH  21  22
ENDBRANCH   1  21
TORSDOF 5
ENDMDL
MODEL 3
REMARK VINA RESULT:      -7.7      4.116      6.629
REMARK  5 active torsions:
REMARK  status: ('A' for Active; 'I' for Inactive)
REMARK    1  A    between atoms: C2_2  and  O1_3 
REMARK    2  A    between atoms: O1_3  and  C3_4 
REMARK    3  A    between atoms: C3_4  and  C4_5 
REMARK    4  A    between atoms: C7_8  and  N1_9 
REMARK    5  A    between atoms: N1_9  and  C8_10 
ROOT
HETATM    1  C4  UNL     1      21.100   1.520  51.313  1.00  0.00     0.001 A 
HETATM    2  C5  UNL     1      22.354   1.241  51.762  1.00  0.00     0.047 A 
HETATM    3  C6  UNL     1      23.830   1.279  51.946  1.00  0.00     0.045 C 
HETATM    4  C7  UNL     1      24.050   0.254  52.810  1.00  0.00     0.104 C 
HETATM    5  N2  UNL     1      23.294  -0.732  53.328  1.00  0.00    -0.252 NA
HETATM    6  C14 UNL     1      22.387  -1.240  53.856  1.00  0.00     0.091 C 
HETATM    7  C15 UNL     1      21.113  -1.040  54.459  1.00  0.00     0.047 C 
HETATM    8  C16 UNL     1      19.823  -1.036  53.705  1.00  0.00     0.006 C 
HETATM    9  C17 UNL     1      19.702  -0.059  52.615  1.00  0.00    -0.022 C 
HETATM   10  C18 UNL     1      20.943   0.486  52.321  1.00  0.00     0.030 A 
ENDROOT
BRANCH   4  11
HETATM   11  N1  UNL     1      25.347  -0.005  53.229  1.00  0.00    -0.344 N 
HETATM   12  H10 UNL     1      25.094  -0.765  53.935  1.00  0.00     0.167 HD
BRANCH  11  13
HETATM   13  C8  UNL     1      26.737  -0.047  53.432  1.00  0.00     0.035 A 
HETATM   14  C9  UNL     1      27.251  -1.293  53.027  1.00  0.00     0.032 A 
HETATM   15  C10 UNL     1      28.627  -1.469  53.143  1.00  0.00     0.046 A 
HETATM   16  C11 UNL     1      29.342  -0.399  53.646  1.00  0.00     0.138 A 
HETATM   17  F1  UNL     1      30.676  -0.568  53.767  1.00  0.00    -0.204 F 
HETATM   18  C12 UNL     1      28.836   0.809  54.042  1.00  0.00     0.074 A 
HETATM   19 CL1  UNL     1      29.782   2.149  54.671  1.00  0.00    -0.081 Cl
HETATM   20  C13 UNL     1      27.466   1.009  53.932  1.00  0.00     0.056 A 
ENDBRANCH  11  13
ENDBRANCH   4  11
BRANCH   1  21
HETATM   21  C3  UNL     1      21.266   2.594  50.267  1.00  0.00     0.178 C 
BRANCH  21  22
HETATM   22  O1  UNL     1      21.726   3.764  50.843  1.00  0.00    -0.391 OA
BRANCH  22  23
HETATM   23  C2  UNL     1      22.476   4.500  49.930  1.00  0.00     0.163 C 
HETATM   24  C1  UNL     1      23.480   3.756  49.127  1.00  0.00     0.033 C 
ENDBRANCH  22  23
ENDBRANCH  21  22
ENDBRANCH   1  21
TORSDOF 5
ENDMDL
MODEL 4
REMARK VINA RESULT:      -7.7      1.980      3.683
REMARK  5 active torsions:
REMARK  status: ('A' for Active; 'I' for Inactive)
REMARK    1  A    between atoms: C2_2  and  O1_3 
REMARK    2  A    between atoms: O1_3  and  C3_4 
REMARK    3  A    between atoms: C3_4  and  C4_5 
REMARK    4  A    between atoms: C7_8  and  N1_9 
REMARK    5  A    between atoms: N1_9  and  C8_10 
ROOT
HETATM    1  C4  UNL     1      23.743   0.932  52.376  1.00  0.00     0.001 A 
HETATM    2  C5  UNL     1      24.381   1.827  51.574  1.00  0.00     0.047 A 
HETATM    3  C6  UNL     1      24.654   2.814  50.494  1.00  0.00     0.045 C 
HETATM    4  C7  UNL     1      25.982   3.062  50.644  1.00  0.00     0.104 C 
HETATM    5  N2  UNL     1      26.970   2.534  51.391  1.00  0.00    -0.252 NA
HETATM    6  C14 UNL     1      27.521   2.145  52.342  1.00  0.00     0.091 C 
HETATM    7  C15 UNL     1      27.431   1.920  53.744  1.00  0.00     0.047 C 
HETATM    8  C16 UNL     1      26.887   0.670  54.357  1.00  0.00     0.006 C 
HETATM    9  C17 UNL     1      25.513   0.302  53.991  1.00  0.00    -0.022 C 
HETATM   10  C18 UNL     1      25.087   1.059  52.910  1.00  0.00     0.030 A 
ENDROOT
BRANCH   4  11
HETATM   11  N1  UNL     1      26.596   3.970  49.794  1.00  0.00    -0.344 N 
HETATM   12  H10 UNL     1      27.353   3.307  49.440  1.00  0.00     0.167 HD
BRANCH  11  13
HETATM   13  C8  UNL     1      26.982   5.085  49.032  1.00  0.00     0.035 A 
HETATM   14  C9  UNL     1      25.890   5.955  48.852  1.00  0.00     0.032 A 
HETATM   15  C10 UNL     1      26.132   7.124  48.137  1.00  0.00     0.046 A 
HETATM   16  C11 UNL     1      27.422   7.305  47.676  1.00  0.00     0.138 A 
HETATM   17  F1  UNL     1      27.661   8.434  46.976  1.00  0.00    -0.204 F 
HETATM   18  C12 UNL     1      28.480   6.454  47.850  1.00  0.00     0.074 A 
HETATM   19 CL1  UNL     1      30.110   6.725  47.254  1.00  0.00    -0.081 Cl
HETATM   20  C13 UNL     1      28.262   5.282  48.565  1.00  0.00     0.056 A 
ENDBRANCH  11  13
ENDBRANCH   4  11
BRANCH   1  21
HETATM   21  C3  UNL     1      22.347   0.803  51.818  1.00  0.00     0.178 C 
BRANCH  21  22
HETATM   22  O1  UNL     1      21.632  -0.152  52.519  1.00  0.00    -0.391 OA
BRANCH  22  23
HETATM   23  C2  UNL     1      21.546   0.189  53.866  1.00  0.00     0.163 C 
HETATM   24  C1  UNL     1      21.768  -0.898  54.852  1.00  0.00     0.033 C 
ENDBRANCH  22  23
ENDBRANCH  21  22
ENDBRANCH   1  21
TORSDOF 5
ENDMDL
MODEL 5
REMARK VINA RESULT:      -7.5      4.478      7.116
REMARK  5 active torsions:
REMARK  status: ('A' for Active; 'I' for Inactive)
REMARK    1  A    between atoms: C2_2  and  O1_3 
REMARK    2  A    between atoms: O1_3  and  C3_4 
REMARK    3  A    between atoms: C3_4  and  C4_5 
REMARK    4  A    between atoms: C7_8  and  N1_9 
REMARK    5  A    between atoms: N1_9  and  C8_10 
ROOT
HETATM    1  C4  UNL     1      20.344   1.143  52.248  1.00  0.00     0.001 A 
HETATM    2  C5  UNL     1      21.618   0.753  52.525  1.00  0.00     0.047 A 
HETATM    3  C6  UNL     1      22.798  -0.093  52.847  1.00  0.00     0.045 C 
HETATM    4  C7  UNL     1      23.791   0.822  52.996  1.00  0.00     0.104 C 
HETATM    5  N2  UNL     1      23.846   2.167  53.044  1.00  0.00    -0.252 NA
HETATM    6  C14 UNL     1      23.658   3.272  52.723  1.00  0.00     0.091 C 
HETATM    7  C15 UNL     1      23.044   4.133  51.771  1.00  0.00     0.047 C 
HETATM    8  C16 UNL     1      21.634   4.618  51.871  1.00  0.00     0.006 C 
HETATM    9  C17 UNL     1      20.588   3.590  51.940  1.00  0.00    -0.022 C 
HETATM   10  C18 UNL     1      21.153   2.347  52.183  1.00  0.00     0.030 A 
ENDROOT
BRANCH   4  11
HETATM   11  N1  UNL     1      25.072   0.382  53.295  1.00  0.00    -0.344 N 
HETATM   12  H10 UNL     1      24.780  -0.549  53.728  1.00  0.00     0.167 HD
BRANCH  11  13
HETATM   13  C8  UNL     1      26.458   0.211  53.457  1.00  0.00     0.035 A 
HETATM   14  C9  UNL     1      26.852  -1.053  52.980  1.00  0.00     0.032 A 
HETATM   15  C10 UNL     1      28.210  -1.352  53.050  1.00  0.00     0.046 A 
HETATM   16  C11 UNL     1      29.027  -0.374  53.583  1.00  0.00     0.138 A 
HETATM   17  F1  UNL     1      30.343  -0.661  53.658  1.00  0.00    -0.204 F 
HETATM   18  C12 UNL     1      28.637   0.853  54.049  1.00  0.00     0.074 A 
HETATM   19 CL1  UNL     1      29.711   2.075  54.713  1.00  0.00    -0.081 Cl
HETATM   20  C13 UNL     1      27.287   1.175  53.986  1.00  0.00     0.056 A 
ENDBRANCH  11  13
ENDBRANCH   4  11
BRANCH   1  21
HETATM   21  C3  UNL     1      19.507  -0.110  52.316  1.00  0.00     0.178 C 
BRANCH  21  22
HETATM   22  O1  UNL     1      18.160   0.207  52.309  1.00  0.00    -0.391 OA
BRANCH  22  23
HETATM   23  C2  UNL     1      17.388  -0.923  52.565  1.00  0.00     0.163 C 
HETATM   24  C1  UNL     1      17.970  -1.947  53.468  1.00  0.00     0.033 C 
ENDBRANCH  22  23
ENDBRANCH  21  22
ENDBRANCH   1  21
TORSDOF 5
ENDMDL
MODEL 6
REMARK VINA RESULT:      -7.4      2.142      3.175
REMARK  5 active torsions:
REMARK  status: ('A' for Active; 'I' for Inactive)
REMARK    1  A    between atoms: C2_2  and  O1_3 
REMARK    2  A    between atoms: O1_3  and  C3_4 
REMARK    3  A    between atoms: C3_4  and  C4_5 
REMARK    4  A    between atoms: C7_8  and  N1_9 
REMARK    5  A    between atoms: N1_9  and  C8_10 
ROOT
HETATM    1  C4  UNL     1      23.266   1.169  51.799  1.00  0.00     0.001 A 
HETATM    2  C5  UNL     1      24.023   2.142  51.223  1.00  0.00     0.047 A 
HETATM    3  C6  UNL     1      25.097   3.145  50.989  1.00  0.00     0.045 C 
HETATM    4  C7  UNL     1      24.710   3.732  49.826  1.00  0.00     0.104 C 
HETATM    5  N2  UNL     1      23.611   3.674  49.051  1.00  0.00    -0.252 NA
HETATM    6  C14 UNL     1      22.746   3.200  48.430  1.00  0.00     0.091 C 
HETATM    7  C15 UNL     1      22.140   1.990  47.989  1.00  0.00     0.047 C 
HETATM    8  C16 UNL     1      21.104   1.243  48.766  1.00  0.00     0.006 C 
HETATM    9  C17 UNL     1      21.478   0.817  50.120  1.00  0.00    -0.022 C 
HETATM   10  C18 UNL     1      22.646   1.450  50.516  1.00  0.00     0.030 A 
ENDROOT
BRANCH   4  11
HETATM   11  N1  UNL     1      25.503   4.733  49.283  1.00  0.00    -0.344 N 
HETATM   12  H10 UNL     1      24.742   5.480  49.246  1.00  0.00     0.167 HD
BRANCH  11  13
HETATM   13  C8  UNL     1      26.537   5.524  48.755  1.00  0.00     0.035 A 
HETATM   14  C9  UNL     1      27.746   4.804  48.748  1.00  0.00     0.032 A 
HETATM   15  C10 UNL     1      28.859   5.455  48.223  1.00  0.00     0.046 A 
HETATM   16  C11 UNL     1      28.657   6.742  47.764  1.00  0.00     0.138 A 
HETATM   17  F1  UNL     1      29.734   7.380  47.259  1.00  0.00    -0.204 F 
HETATM   18  C12 UNL     1      27.479   7.439  47.777  1.00  0.00     0.074 A 
HETATM   19 CL1  UNL     1      27.261   9.076  47.176  1.00  0.00    -0.081 Cl
HETATM   20  C13 UNL     1      26.354   6.809  48.294  1.00  0.00     0.056 A 
ENDBRANCH  11  13
ENDBRANCH   4  11
BRANCH   1  21
HETATM   21  C3  UNL     1      23.914   0.879  53.130  1.00  0.00     0.178 C 
BRANCH  21  22
HETATM   22  O1  UNL     1      24.256  -0.458  53.221  1.00  0.00    -0.391 OA
BRANCH  22  23
HETATM   23  C2  UNL     1      25.615  -0.600  53.491  1.00  0.00     0.163 C 
HETATM   24  C1  UNL     1      26.541  -0.553  52.332  1.00  0.00     0.033 C 
ENDBRANCH  22  23
ENDBRANCH  21  22
ENDBRANCH   1  21
TORSDOF 5
ENDMDL
MODEL 7
REMARK VINA RESULT:      -7.4      2.047      3.925
REMARK  5 active torsions:
REMARK  status: ('A' for Active; 'I' for Inactive)
REMARK    1  A    between atoms: C2_2  and  O1_3 
REMARK    2  A    between atoms: O1_3  and  C3_4 
REMARK    3  A    between atoms: C3_4  and  C4_5 
REMARK    4  A    between atoms: C7_8  and  N1_9 
REMARK    5  A    between atoms: N1_9  and  C8_10 
ROOT
HETATM    1  C4  UNL     1      23.651   0.386  52.751  1.00  0.00     0.001 A 
HETATM    2  C5  UNL     1      24.053   1.362  51.893  1.00  0.00     0.047 A 
HETATM    3  C6  UNL     1      24.049   2.375  50.803  1.00  0.00     0.045 C 
HETATM    4  C7  UNL     1      25.335   2.813  50.797  1.00  0.00     0.104 C 
HETATM    5  N2  UNL     1      26.472   2.435  51.412  1.00  0.00    -0.252 NA
HETATM    6  C14 UNL     1      27.184   2.132  52.284  1.00  0.00     0.091 C 
HETATM    7  C15 UNL     1      27.297   1.899  53.684  1.00  0.00     0.047 C 
HETATM    8  C16 UNL     1      27.016   0.586  54.338  1.00  0.00     0.006 C 
HETATM    9  C17 UNL     1      25.676   0.022  54.134  1.00  0.00    -0.022 C 
HETATM   10  C18 UNL     1      25.018   0.707  53.123  1.00  0.00     0.030 A 
ENDROOT
BRANCH   4  11
HETATM   11  N1  UNL     1      25.705   3.798  49.893  1.00  0.00    -0.344 N 
HETATM   12  H10 UNL     1      25.076   3.471  49.096  1.00  0.00     0.167 HD
BRANCH  11  13
HETATM   13  C8  UNL     1      26.261   4.901  49.223  1.00  0.00     0.035 A 
HETATM   14  C9  UNL     1      27.610   4.651  48.908  1.00  0.00     0.032 A 
HETATM   15  C10 UNL     1      28.286   5.650  48.213  1.00  0.00     0.046 A 
HETATM   16  C11 UNL     1      27.559   6.784  47.907  1.00  0.00     0.138 A 
HETATM   17  F1  UNL     1      28.211   7.758  47.239  1.00  0.00    -0.204 F 
HETATM   18  C12 UNL     1      26.248   7.024  48.219  1.00  0.00     0.074 A 
HETATM   19 CL1  UNL     1      25.354   8.479  47.805  1.00  0.00    -0.081 Cl
HETATM   20  C13 UNL     1      25.552   6.039  48.910  1.00  0.00     0.056 A 
ENDBRANCH  11  13
ENDBRANCH   4  11
BRANCH   1  21
HETATM   21  C3  UNL     1      22.232   0.055  52.363  1.00  0.00     0.178 C 
BRANCH  21  22
HETATM   22  O1  UNL     1      21.769  -1.024  53.094  1.00  0.00    -0.391 OA
BRANCH  22  23
HETATM   23  C2  UNL     1      21.720  -0.713  54.451  1.00  0.00     0.163 C 
HETATM   24  C1  UNL     1      20.738   0.317  54.872  1.00  0.00     0.033 C 
ENDBRANCH  22  23
ENDBRANCH  21  22
ENDBRANCH   1  21
TORSDOF 5
ENDMDL
MODEL 8
REMARK VINA RESULT:      -7.3      2.788      3.315
REMARK  5 active torsions:
REMARK  status: ('A' for Active; 'I' for Inactive)
REMARK    1  A    between atoms: C2_2  and  O1_3 
REMARK    2  A    between atoms: O1_3  and  C3_4 
REMARK    3  A    between atoms: C3_4  and  C4_5 
REMARK    4  A    between atoms: C7_8  and  N1_9 
REMARK    5  A    between atoms: N1_9  and  C8_10 
ROOT
HETATM    1  C4  UNL     1      24.843  -0.439  54.170  1.00  0.00     0.001 A 
HETATM    2  C5  UNL     1      24.622   0.394  53.117  1.00  0.00     0.047 A 
HETATM    3  C6  UNL     1      24.851   1.323  51.977  1.00  0.00     0.045 C 
HETATM    4  C7  UNL     1      23.588   1.664  51.611  1.00  0.00     0.104 C 
HETATM    5  N2  UNL     1      22.360   1.454  52.121  1.00  0.00    -0.252 NA
HETATM    6  C14 UNL     1      21.456   0.868  52.567  1.00  0.00     0.091 C 
HETATM    7  C15 UNL     1      20.966  -0.404  52.977  1.00  0.00     0.047 C 
HETATM    8  C16 UNL     1      21.160  -0.973  54.345  1.00  0.00     0.006 C 
HETATM    9  C17 UNL     1      22.546  -1.117  54.807  1.00  0.00    -0.022 C 
HETATM   10  C18 UNL     1      23.405  -0.421  53.970  1.00  0.00     0.030 A 
ENDROOT
BRANCH   4  11
HETATM   11  N1  UNL     1      23.409   2.529  50.542  1.00  0.00    -0.344 N 
HETATM   12  H10 UNL     1      24.018   3.318  50.924  1.00  0.00     0.167 HD
BRANCH  11  13
HETATM   13  C8  UNL     1      23.054   3.164  49.339  1.00  0.00     0.035 A 
HETATM   14  C9  UNL     1      22.378   2.264  48.494  1.00  0.00     0.032 A 
HETATM   15  C10 UNL     1      21.938   2.763  47.272  1.00  0.00     0.046 A 
HETATM   16  C11 UNL     1      22.213   4.093  47.017  1.00  0.00     0.138 A 
HETATM   17  F1  UNL     1      21.794   4.580  45.831  1.00  0.00    -0.204 F 
HETATM   18  C12 UNL     1      22.875   4.963  47.841  1.00  0.00     0.074 A 
HETATM   19 CL1  UNL     1      23.200   6.652  47.483  1.00  0.00    -0.081 Cl
HETATM   20  C13 UNL     1      23.321   4.487  49.068  1.00  0.00     0.056 A 
ENDBRANCH  11  13
ENDBRANCH   4  11
BRANCH   1  21
HETATM   21  C3  UNL     1      26.337  -0.455  54.375  1.00  0.00     0.178 C 
BRANCH  21  22
HETATM   22  O1  UNL     1      26.922  -1.437  53.597  1.00  0.00    -0.391 OA
BRANCH  22  23
HETATM   23  C2  UNL     1      28.162  -1.016  53.123  1.00  0.00     0.163 C 
HETATM   24  C1  UNL     1      29.009  -0.231  54.056  1.00  0.00     0.033 C 
ENDBRANCH  22  23
ENDBRANCH  21  22
ENDBRANCH   1  21
TORSDOF 5
ENDMDL
MODEL 9
REMARK VINA RESULT:      -7.3      1.580      2.230
REMARK  5 active torsions:
REMARK  status: ('A' for Active; 'I' for Inactive)
REMARK    1  A    between atoms: C2_2  and  O1_3 
REMARK    2  A    between atoms: O1_3  and  C3_4 
REMARK    3  A    between atoms: C3_4  and  C4_5 
REMARK    4  A    between atoms: C7_8  and  N1_9 
REMARK    5  A    between atoms: N1_9  and  C8_10 
ROOT
HETATM    1  C4  UNL     1      24.729   1.148  52.367  1.00  0.00     0.001 A 
HETATM    2  C5  UNL     1      25.503   1.964  51.601  1.00  0.00     0.047 A 
HETATM    3  C6  UNL     1      26.674   2.720  51.078  1.00  0.00     0.045 C 
HETATM    4  C7  UNL     1      26.133   3.444  50.063  1.00  0.00     0.104 C 
HETATM    5  N2  UNL     1      24.883   3.673  49.619  1.00  0.00    -0.252 NA
HETATM    6  C14 UNL     1      23.799   3.437  49.262  1.00  0.00     0.091 C 
HETATM    7  C15 UNL     1      22.839   2.416  49.009  1.00  0.00     0.047 C 
HETATM    8  C16 UNL     1      21.908   1.871  50.043  1.00  0.00     0.006 C 
HETATM    9  C17 UNL     1      22.524   1.295  51.245  1.00  0.00    -0.022 C 
HETATM   10  C18 UNL     1      23.868   1.633  51.302  1.00  0.00     0.030 A 
ENDROOT
BRANCH   4  11
HETATM   11  N1  UNL     1      26.956   4.277  49.320  1.00  0.00    -0.344 N 
HETATM   12  H10 UNL     1      27.667   3.529  49.049  1.00  0.00     0.167 HD
BRANCH  11  13
HETATM   13  C8  UNL     1      27.569   5.343  48.639  1.00  0.00     0.035 A 
HETATM   14  C9  UNL     1      26.633   6.364  48.389  1.00  0.00     0.032 A 
HETATM   15  C10 UNL     1      27.106   7.502  47.743  1.00  0.00     0.046 A 
HETATM   16  C11 UNL     1      28.448   7.507  47.414  1.00  0.00     0.138 A 
HETATM   17  F1  UNL     1      28.911   8.606  46.781  1.00  0.00    -0.204 F 
HETATM   18  C12 UNL     1      29.353   6.509  47.655  1.00  0.00     0.074 A 
HETATM   19 CL1  UNL     1      31.056   6.557  47.227  1.00  0.00    -0.081 Cl
HETATM   20  C13 UNL     1      28.904   5.365  48.302  1.00  0.00     0.056 A 
ENDBRANCH  11  13
ENDBRANCH   4  11
BRANCH   1  21
HETATM   21  C3  UNL     1      25.626   0.647  53.470  1.00  0.00     0.178 C 
BRANCH  21  22
HETATM   22  O1  UNL     1      26.605  -0.185  52.958  1.00  0.00    -0.391 OA
BRANCH  22  23
HETATM   23  C2  UNL     1      27.754  -0.134  53.743  1.00  0.00     0.163 C 
HETATM   24  C1  UNL     1      28.892  -0.992  53.330  1.00  0.00     0.033 C 
ENDBRANCH  22  23
ENDBRANCH  21  22
ENDBRANCH   1  21
TORSDOF 5
ENDMDL
