MODEL 1
REMARK VINA RESULT:      -8.2      0.000      0.000
REMARK  5 active torsions:
REMARK  status: ('A' for Active; 'I' for Inactive)
REMARK    1  A    between atoms: O1_1  and  C1_2 
REMARK    2  A    between atoms: C1_2  and  C2_3 
REMARK    3  A    between atoms: C2_3  and  N1_4 
REMARK    4  A    between atoms: C2_3  and  C12_16 
REMARK    5  A    between atoms: N1_4  and  C3_5 
ROOT
HETATM    1  N1  UNL     1      25.979   1.668  53.349  1.00  0.00    -0.363 N 
HETATM    2  H5  UNL     1      25.744   1.674  54.387  1.00  0.00     0.162 HD
ENDROOT
BRANCH   1   3
HETATM    3  C2  UNL     1      27.322   1.400  52.876  1.00  0.00     0.140 C 
BRANCH   3   4
HETATM    4  C1  UNL     1      28.369   2.139  53.680  1.00  0.00     0.194 C 
BRANCH   4   5
HETATM    5  O1  UNL     1      29.014   3.108  52.918  1.00  0.00    -0.399 OA
HETATM    6  H1  UNL     1      28.712   3.097  51.964  1.00  0.00     0.209 HD
ENDBRANCH   4   5
ENDBRANCH   3   4
BRANCH   3   7
HETATM    7  C12 UNL     1      27.659  -0.027  52.900  1.00  0.00    -0.034 A 
HETATM    8  C13 UNL     1      26.844  -1.066  52.488  1.00  0.00     0.009 A 
HETATM    9  C14 UNL     1      27.320  -2.363  52.578  1.00  0.00     0.001 A 
HETATM   10  C15 UNL     1      28.579  -2.614  53.069  1.00  0.00     0.000 A 
HETATM   11  C16 UNL     1      29.417  -1.599  53.489  1.00  0.00     0.001 A 
HETATM   12  C17 UNL     1      28.937  -0.288  53.398  1.00  0.00     0.009 A 
ENDBRANCH   3   7
ENDBRANCH   1   3
BRANCH   1  13
HETATM   13  C3  UNL     1      24.953   1.930  52.392  1.00  0.00     0.140 A 
HETATM   14  N2  UNL     1      25.130   2.828  51.512  1.00  0.00    -0.242 NA
HETATM   15  C4  UNL     1      24.279   3.254  50.485  1.00  0.00     0.125 A 
HETATM   16  C5  UNL     1      23.071   2.816  50.186  1.00  0.00     0.059 A 
HETATM   17  S1  UNL     1      22.455   1.437  51.316  1.00  0.00    -0.153 SA
HETATM   18  C6  UNL     1      23.767   1.145  52.492  1.00  0.00     0.047 A 
HETATM   19  C11 UNL     1      21.274   0.295  51.820  1.00  0.00     0.108 A 
HETATM   20  C7  UNL     1      23.161   0.071  53.290  1.00  0.00    -0.035 A 
HETATM   21  C8  UNL     1      21.970  -0.361  52.995  1.00  0.00    -0.063 A 
HETATM   22  C10 UNL     1      23.294  -0.858  54.409  1.00  0.00     0.044 A 
HETATM   23  C9  UNL     1      21.928  -1.343  54.057  1.00  0.00     0.040 A 
ENDBRANCH   1  13
TORSDOF 5
ENDMDL
MODEL 2
REMARK VINA RESULT:      -7.9      1.616      2.259
REMARK  5 active torsions:
REMARK  status: ('A' for Active; 'I' for Inactive)
REMARK    1  A    between atoms: O1_1  and  C1_2 
REMARK    2  A    between atoms: C1_2  and  C2_3 
REMARK    3  A    between atoms: C2_3  and  N1_4 
REMARK    4  A    between atoms: C2_3  and  C12_16 
REMARK    5  A    between atoms: N1_4  and  C3_5 
ROOT
HETATM    1  N1  UNL     1      25.255   2.884  52.782  1.00  0.00    -0.363 N 
HETATM    2  H5  UNL     1      25.725   3.369  53.605  1.00  0.00     0.162 HD
ENDROOT
BRANCH   1   3
HETATM    3  C2  UNL     1      25.974   1.947  51.941  1.00  0.00     0.140 C 
BRANCH   3   4
HETATM    4  C1  UNL     1      26.502   2.597  50.681  1.00  0.00     0.194 C 
BRANCH   4   5
HETATM    5  O1  UNL     1      26.465   3.985  50.765  1.00  0.00    -0.399 OA
HETATM    6  H1  UNL     1      25.528   4.335  50.803  1.00  0.00     0.209 HD
ENDBRANCH   4   5
ENDBRANCH   3   4
BRANCH   3   7
HETATM    7  C12 UNL     1      27.103   1.316  52.631  1.00  0.00    -0.034 A 
HETATM    8  C13 UNL     1      28.115   1.969  53.310  1.00  0.00     0.009 A 
HETATM    9  C14 UNL     1      29.111   1.217  53.909  1.00  0.00     0.001 A 
HETATM   10  C15 UNL     1      29.095  -0.156  53.829  1.00  0.00     0.000 A 
HETATM   11  C16 UNL     1      28.099  -0.838  53.159  1.00  0.00     0.001 A 
HETATM   12  C17 UNL     1      27.091  -0.079  52.554  1.00  0.00     0.009 A 
ENDBRANCH   3   7
ENDBRANCH   1   3
BRANCH   1  13
HETATM   13  C3  UNL     1      23.886   3.157  52.491  1.00  0.00     0.140 A 
HETATM   14  N2  UNL     1      23.555   4.298  52.042  1.00  0.00    -0.242 NA
HETATM   15  C4  UNL     1      22.291   4.788  51.689  1.00  0.00     0.125 A 
HETATM   16  C5  UNL     1      21.127   4.170  51.742  1.00  0.00     0.059 A 
HETATM   17  S1  UNL     1      21.229   2.398  52.382  1.00  0.00    -0.153 SA
HETATM   18  C6  UNL     1      22.955   2.103  52.731  1.00  0.00     0.047 A 
HETATM   19  C11 UNL     1      20.523   0.893  52.816  1.00  0.00     0.108 A 
HETATM   20  C7  UNL     1      22.886   0.717  53.210  1.00  0.00    -0.035 A 
HETATM   21  C8  UNL     1      21.739   0.107  53.263  1.00  0.00    -0.063 A 
HETATM   22  C10 UNL     1      23.604  -0.447  53.725  1.00  0.00     0.044 A 
HETATM   23  C9  UNL     1      22.280  -1.132  53.777  1.00  0.00     0.040 A 
ENDBRANCH   1  13
TORSDOF 5
ENDMDL
MODEL 3
REMARK VINA RESULT:      -7.6      2.479      4.036
REMARK  5 active torsions:
REMARK  status: ('A' for Active; 'I' for Inactive)
REMARK    1  A    between atoms: O1_1  and  C1_2 
REMARK    2  A    between atoms: C1_2  and  C2_3 
REMARK    3  A    between atoms: C2_3  and  N1_4 
REMARK    4  A    between atoms: C2_3  and  C12_16 
REMARK    5  A    between atoms: N1_4  and  C3_5 
ROOT
HETATM    1  N1  UNL     1      23.967  -0.584  53.379  1.00  0.00    -0.363 N 
HETATM    2  H5  UNL     1      24.015  -1.488  52.818  1.00  0.00     0.162 HD
ENDROOT
BRANCH   1   3
HETATM    3  C2  UNL     1      24.803  -0.369  54.544  1.00  0.00     0.140 C 
BRANCH   3   4
HETATM    4  C1  UNL     1      24.506  -1.357  55.650  1.00  0.00     0.194 C 
BRANCH   4   5
HETATM    5  O1  UNL     1      23.143  -1.605  55.766  1.00  0.00    -0.399 OA
HETATM    6  H1  UNL     1      22.593  -0.901  55.315  1.00  0.00     0.209 HD
ENDBRANCH   4   5
ENDBRANCH   3   4
BRANCH   3   7
HETATM    7  C12 UNL     1      26.234  -0.450  54.238  1.00  0.00    -0.034 A 
HETATM    8  C13 UNL     1      27.248   0.238  54.880  1.00  0.00     0.009 A 
HETATM    9  C14 UNL     1      28.554   0.045  54.464  1.00  0.00     0.001 A 
HETATM   10  C15 UNL     1      28.839  -0.815  53.429  1.00  0.00     0.000 A 
HETATM   11  C16 UNL     1      27.850  -1.516  52.768  1.00  0.00     0.001 A 
HETATM   12  C17 UNL     1      26.530  -1.323  53.188  1.00  0.00     0.009 A 
ENDBRANCH   3   7
ENDBRANCH   1   3
BRANCH   1  13
HETATM   13  C3  UNL     1      23.063   0.445  52.983  1.00  0.00     0.140 A 
HETATM   14  N2  UNL     1      21.843   0.377  53.330  1.00  0.00    -0.242 NA
HETATM   15  C4  UNL     1      20.786   1.257  53.063  1.00  0.00     0.125 A 
HETATM   16  C5  UNL     1      20.810   2.382  52.376  1.00  0.00     0.059 A 
HETATM   17  S1  UNL     1      22.509   2.822  51.684  1.00  0.00    -0.153 SA
HETATM   18  C6  UNL     1      23.603   1.510  52.203  1.00  0.00     0.047 A 
HETATM   19  C11 UNL     1      23.576   3.837  50.799  1.00  0.00     0.108 A 
HETATM   20  C7  UNL     1      24.862   1.975  51.606  1.00  0.00    -0.035 A 
HETATM   21  C8  UNL     1      24.885   3.085  50.928  1.00  0.00    -0.063 A 
HETATM   22  C10 UNL     1      26.287   1.736  51.391  1.00  0.00     0.044 A 
HETATM   23  C9  UNL     1      26.296   3.012  50.619  1.00  0.00     0.040 A 
ENDBRANCH   1  13
TORSDOF 5
ENDMDL
MODEL 4
REMARK VINA RESULT:      -7.5      2.615      5.851
REMARK  5 active torsions:
REMARK  status: ('A' for Active; 'I' for Inactive)
REMARK    1  A    between atoms: O1_1  and  C1_2 
REMARK    2  A    between atoms: C1_2  and  C2_3 
REMARK    3  A    between atoms: C2_3  and  N1_4 
REMARK    4  A    between atoms: C2_3  and  C12_16 
REMARK    5  A    between atoms: N1_4  and  C3_5 
ROOT
HETATM    1  N1  UNL     1      24.643   3.686  52.454  1.00  0.00    -0.363 N 
HETATM    2  H5  UNL     1      25.169   4.292  53.154  1.00  0.00     0.162 HD
ENDROOT
BRANCH   1   3
HETATM    3  C2  UNL     1      24.188   4.214  51.183  1.00  0.00     0.140 C 
BRANCH   3   4
HETATM    4  C1  UNL     1      23.306   5.432  51.353  1.00  0.00     0.194 C 
BRANCH   4   5
HETATM    5  O1  UNL     1      22.861   5.565  52.664  1.00  0.00    -0.399 OA
HETATM    6  H1  UNL     1      22.018   6.102  52.722  1.00  0.00     0.209 HD
ENDBRANCH   4   5
ENDBRANCH   3   4
BRANCH   3   7
HETATM    7  C12 UNL     1      25.293   4.578  50.291  1.00  0.00    -0.034 A 
HETATM    8  C13 UNL     1      26.294   3.735  49.842  1.00  0.00     0.009 A 
HETATM    9  C14 UNL     1      27.266   4.243  48.999  1.00  0.00     0.001 A 
HETATM   10  C15 UNL     1      27.239   5.563  48.614  1.00  0.00     0.000 A 
HETATM   11  C16 UNL     1      26.254   6.430  49.044  1.00  0.00     0.001 A 
HETATM   12  C17 UNL     1      25.270   5.918  49.896  1.00  0.00     0.009 A 
ENDBRANCH   3   7
ENDBRANCH   1   3
BRANCH   1  13
HETATM   13  C3  UNL     1      24.376   2.320  52.765  1.00  0.00     0.140 A 
HETATM   14  N2  UNL     1      23.179   1.894  52.747  1.00  0.00    -0.242 NA
HETATM   15  C4  UNL     1      22.682   0.612  53.013  1.00  0.00     0.125 A 
HETATM   16  C5  UNL     1      23.350  -0.473  53.351  1.00  0.00     0.059 A 
HETATM   17  S1  UNL     1      25.215  -0.216  53.481  1.00  0.00    -0.153 SA
HETATM   18  C6  UNL     1      25.500   1.502  53.084  1.00  0.00     0.047 A 
HETATM   19  C11 UNL     1      26.811  -0.773  53.787  1.00  0.00     0.108 A 
HETATM   20  C7  UNL     1      26.961   1.557  53.222  1.00  0.00    -0.035 A 
HETATM   21  C8  UNL     1      27.621   0.487  53.556  1.00  0.00    -0.063 A 
HETATM   22  C10 UNL     1      28.176   2.364  53.149  1.00  0.00     0.044 A 
HETATM   23  C9  UNL     1      28.917   1.127  53.531  1.00  0.00     0.040 A 
ENDBRANCH   1  13
TORSDOF 5
ENDMDL
MODEL 5
REMARK VINA RESULT:      -7.5      2.879      5.363
REMARK  5 active torsions:
REMARK  status: ('A' for Active; 'I' for Inactive)
REMARK    1  A    between atoms: O1_1  and  C1_2 
REMARK    2  A    between atoms: C1_2  and  C2_3 
REMARK    3  A    between atoms: C2_3  and  N1_4 
REMARK    4  A    between atoms: C2_3  and  C12_16 
REMARK    5  A    between atoms: N1_4  and  C3_5 
ROOT
HETATM    1  N1  UNL     1      24.084   4.597  51.886  1.00  0.00    -0.363 N 
HETATM    2  H5  UNL     1      24.878   4.696  52.588  1.00  0.00     0.162 HD
ENDROOT
BRANCH   1   3
HETATM    3  C2  UNL     1      24.055   5.367  50.658  1.00  0.00     0.140 C 
BRANCH   3   4
HETATM    4  C1  UNL     1      23.754   6.828  50.906  1.00  0.00     0.194 C 
BRANCH   4   5
HETATM    5  O1  UNL     1      24.326   7.277  52.092  1.00  0.00    -0.399 OA
HETATM    6  H1  UNL     1      24.633   8.227  52.025  1.00  0.00     0.209 HD
ENDBRANCH   4   5
ENDBRANCH   3   4
BRANCH   3   7
HETATM    7  C12 UNL     1      25.312   5.286  49.907  1.00  0.00    -0.034 A 
HETATM    8  C13 UNL     1      25.936   6.325  49.243  1.00  0.00     0.009 A 
HETATM    9  C14 UNL     1      27.125   6.076  48.580  1.00  0.00     0.001 A 
HETATM   10  C15 UNL     1      27.675   4.815  48.580  1.00  0.00     0.000 A 
HETATM   11  C16 UNL     1      27.077   3.756  49.233  1.00  0.00     0.001 A 
HETATM   12  C17 UNL     1      25.875   4.008  49.905  1.00  0.00     0.009 A 
ENDBRANCH   3   7
ENDBRANCH   1   3
BRANCH   1  13
HETATM   13  C3  UNL     1      23.018   3.687  52.151  1.00  0.00     0.140 A 
HETATM   14  N2  UNL     1      21.816   4.095  52.098  1.00  0.00    -0.242 NA
HETATM   15  C4  UNL     1      20.623   3.395  52.317  1.00  0.00     0.125 A 
HETATM   16  C5  UNL     1      20.464   2.125  52.636  1.00  0.00     0.059 A 
HETATM   17  S1  UNL     1      22.082   1.170  52.808  1.00  0.00    -0.153 SA
HETATM   18  C6  UNL     1      23.382   2.345  52.467  1.00  0.00     0.047 A 
HETATM   19  C11 UNL     1      22.979  -0.260  53.127  1.00  0.00     0.108 A 
HETATM   20  C7  UNL     1      24.558   1.481  52.633  1.00  0.00    -0.035 A 
HETATM   21  C8  UNL     1      24.402   0.229  52.948  1.00  0.00    -0.063 A 
HETATM   22  C10 UNL     1      26.014   1.362  52.608  1.00  0.00     0.044 A 
HETATM   23  C9  UNL     1      25.816  -0.072  52.966  1.00  0.00     0.040 A 
ENDBRANCH   1  13
TORSDOF 5
ENDMDL
MODEL 6
REMARK VINA RESULT:      -7.4      1.872      2.278
REMARK  5 active torsions:
REMARK  status: ('A' for Active; 'I' for Inactive)
REMARK    1  A    between atoms: O1_1  and  C1_2 
REMARK    2  A    between atoms: C1_2  and  C2_3 
REMARK    3  A    between atoms: C2_3  and  N1_4 
REMARK    4  A    between atoms: C2_3  and  C12_16 
REMARK    5  A    between atoms: N1_4  and  C3_5 
ROOT
HETATM    1  N1  UNL     1      25.148   0.242  52.456  1.00  0.00    -0.363 N 
HETATM    2  H5  UNL     1      25.211  -0.542  51.739  1.00  0.00     0.162 HD
ENDROOT
BRANCH   1   3
HETATM    3  C2  UNL     1      25.813   0.152  53.741  1.00  0.00     0.140 C 
BRANCH   3   4
HETATM    4  C1  UNL     1      25.142  -0.841  54.664  1.00  0.00     0.194 C 
BRANCH   4   5
HETATM    5  O1  UNL     1      25.676  -0.793  55.947  1.00  0.00    -0.399 OA
HETATM    6  H1  UNL     1      26.665  -0.634  55.937  1.00  0.00     0.209 HD
ENDBRANCH   4   5
ENDBRANCH   3   4
BRANCH   3   7
HETATM    7  C12 UNL     1      27.226  -0.224  53.623  1.00  0.00    -0.034 A 
HETATM    8  C13 UNL     1      27.715  -1.437  53.174  1.00  0.00     0.009 A 
HETATM    9  C14 UNL     1      29.085  -1.628  53.126  1.00  0.00     0.001 A 
HETATM   10  C15 UNL     1      29.945  -0.629  53.517  1.00  0.00     0.000 A 
HETATM   11  C16 UNL     1      29.489   0.593  53.970  1.00  0.00     0.001 A 
HETATM   12  C17 UNL     1      28.104   0.787  54.019  1.00  0.00     0.009 A 
ENDBRANCH   3   7
ENDBRANCH   1   3
BRANCH   1  13
HETATM   13  C3  UNL     1      24.393   1.414  52.155  1.00  0.00     0.140 A 
HETATM   14  N2  UNL     1      24.974   2.422  51.646  1.00  0.00    -0.242 NA
HETATM   15  C4  UNL     1      24.446   3.664  51.271  1.00  0.00     0.125 A 
HETATM   16  C5  UNL     1      23.201   4.087  51.360  1.00  0.00     0.059 A 
HETATM   17  S1  UNL     1      22.012   2.819  52.094  1.00  0.00    -0.153 SA
HETATM   18  C6  UNL     1      22.998   1.374  52.454  1.00  0.00     0.047 A 
HETATM   19  C11 UNL     1      20.453   2.313  52.609  1.00  0.00     0.108 A 
HETATM   20  C7  UNL     1      21.965   0.490  53.007  1.00  0.00    -0.035 A 
HETATM   21  C8  UNL     1      20.736   0.906  53.095  1.00  0.00    -0.063 A 
HETATM   22  C10 UNL     1      21.635  -0.812  53.581  1.00  0.00     0.044 A 
HETATM   23  C9  UNL     1      20.231  -0.320  53.673  1.00  0.00     0.040 A 
ENDBRANCH   1  13
TORSDOF 5
ENDMDL
MODEL 7
REMARK VINA RESULT:      -7.3      2.648      4.789
REMARK  5 active torsions:
REMARK  status: ('A' for Active; 'I' for Inactive)
REMARK    1  A    between atoms: O1_1  and  C1_2 
REMARK    2  A    between atoms: C1_2  and  C2_3 
REMARK    3  A    between atoms: C2_3  and  N1_4 
REMARK    4  A    between atoms: C2_3  and  C12_16 
REMARK    5  A    between atoms: N1_4  and  C3_5 
ROOT
HETATM    1  N1  UNL     1      23.328   1.252  51.751  1.00  0.00    -0.363 N 
HETATM    2  H5  UNL     1      23.281   0.519  50.980  1.00  0.00     0.162 HD
ENDROOT
BRANCH   1   3
HETATM    3  C2  UNL     1      23.849   0.937  53.067  1.00  0.00     0.140 C 
BRANCH   3   4
HETATM    4  C1  UNL     1      23.463  -0.455  53.516  1.00  0.00     0.194 C 
BRANCH   4   5
HETATM    5  O1  UNL     1      22.344  -0.923  52.836  1.00  0.00    -0.399 OA
HETATM    6  H1  UNL     1      21.965  -1.749  53.257  1.00  0.00     0.209 HD
ENDBRANCH   4   5
ENDBRANCH   3   4
BRANCH   3   7
HETATM    7  C12 UNL     1      25.309   1.046  53.141  1.00  0.00    -0.034 A 
HETATM    8  C13 UNL     1      26.025   2.120  53.637  1.00  0.00     0.009 A 
HETATM    9  C14 UNL     1      27.408   2.060  53.633  1.00  0.00     0.001 A 
HETATM   10  C15 UNL     1      28.059   0.952  53.144  1.00  0.00     0.000 A 
HETATM   11  C16 UNL     1      27.374  -0.137  52.642  1.00  0.00     0.001 A 
HETATM   12  C17 UNL     1      25.976  -0.077  52.645  1.00  0.00     0.009 A 
ENDBRANCH   3   7
ENDBRANCH   1   3
BRANCH   1  13
HETATM   13  C3  UNL     1      22.871   2.578  51.493  1.00  0.00     0.140 A 
HETATM   14  N2  UNL     1      21.705   2.923  51.861  1.00  0.00    -0.242 NA
HETATM   15  C4  UNL     1      21.049   4.152  51.718  1.00  0.00     0.125 A 
HETATM   16  C5  UNL     1      21.495   5.260  51.159  1.00  0.00     0.059 A 
HETATM   17  S1  UNL     1      23.249   5.122  50.477  1.00  0.00    -0.153 SA
HETATM   18  C6  UNL     1      23.777   3.451  50.822  1.00  0.00     0.047 A 
HETATM   19  C11 UNL     1      24.629   5.767  49.684  1.00  0.00     0.108 A 
HETATM   20  C7  UNL     1      25.129   3.487  50.249  1.00  0.00    -0.035 A 
HETATM   21  C8  UNL     1      25.569   4.579  49.697  1.00  0.00    -0.063 A 
HETATM   22  C10 UNL     1      26.371   2.769  49.974  1.00  0.00     0.044 A 
HETATM   23  C9  UNL     1      26.860   4.030  49.347  1.00  0.00     0.040 A 
ENDBRANCH   1  13
TORSDOF 5
ENDMDL
MODEL 8
REMARK VINA RESULT:      -7.3      2.312      5.197
REMARK  5 active torsions:
REMARK  status: ('A' for Active; 'I' for Inactive)
REMARK    1  A    between atoms: O1_1  and  C1_2 
REMARK    2  A    between atoms: C1_2  and  C2_3 
REMARK    3  A    between atoms: C2_3  and  N1_4 
REMARK    4  A    between atoms: C2_3  and  C12_16 
REMARK    5  A    between atoms: N1_4  and  C3_5 
ROOT
HETATM    1  N1  UNL     1      26.425   1.777  51.078  1.00  0.00    -0.363 N 
HETATM    2  H5  UNL     1      26.436   1.159  50.210  1.00  0.00     0.162 HD
ENDROOT
BRANCH   1   3
HETATM    3  C2  UNL     1      25.929   3.138  51.034  1.00  0.00     0.140 C 
BRANCH   3   4
HETATM    4  C1  UNL     1      26.475   3.908  49.852  1.00  0.00     0.194 C 
BRANCH   4   5
HETATM    5  O1  UNL     1      26.324   5.281  50.018  1.00  0.00    -0.399 OA
HETATM    6  H1  UNL     1      25.881   5.508  50.886  1.00  0.00     0.209 HD
ENDBRANCH   4   5
ENDBRANCH   3   4
BRANCH   3   7
HETATM    7  C12 UNL     1      24.465   3.208  50.982  1.00  0.00    -0.034 A 
HETATM    8  C13 UNL     1      23.665   2.822  49.923  1.00  0.00     0.009 A 
HETATM    9  C14 UNL     1      22.292   2.955  50.040  1.00  0.00     0.001 A 
HETATM   10  C15 UNL     1      21.734   3.464  51.189  1.00  0.00     0.000 A 
HETATM   11  C16 UNL     1      22.505   3.859  52.264  1.00  0.00     0.001 A 
HETATM   12  C17 UNL     1      23.893   3.724  52.148  1.00  0.00     0.009 A 
ENDBRANCH   3   7
ENDBRANCH   1   3
BRANCH   1  13
HETATM   13  C3  UNL     1      26.907   1.261  52.317  1.00  0.00     0.140 A 
HETATM   14  N2  UNL     1      28.123   1.438  52.641  1.00  0.00    -0.242 NA
HETATM   15  C4  UNL     1      28.811   1.029  53.789  1.00  0.00     0.125 A 
HETATM   16  C5  UNL     1      28.352   0.351  54.823  1.00  0.00     0.059 A 
HETATM   17  S1  UNL     1      26.525  -0.102  54.692  1.00  0.00    -0.153 SA
HETATM   18  C6  UNL     1      25.967   0.562  53.131  1.00  0.00     0.047 A 
HETATM   19  C11 UNL     1      25.091  -0.833  55.293  1.00  0.00     0.108 A 
HETATM   20  C7  UNL     1      24.560   0.143  53.163  1.00  0.00    -0.035 A 
HETATM   21  C8  UNL     1      24.107  -0.525  54.183  1.00  0.00    -0.063 A 
HETATM   22  C10 UNL     1      23.264   0.125  52.490  1.00  0.00     0.044 A 
HETATM   23  C9  UNL     1      22.760  -0.639  53.668  1.00  0.00     0.040 A 
ENDBRANCH   1  13
TORSDOF 5
ENDMDL
MODEL 9
REMARK VINA RESULT:      -7.0      3.097      5.426
REMARK  5 active torsions:
REMARK  status: ('A' for Active; 'I' for Inactive)
REMARK    1  A    between atoms: O1_1  and  C1_2 
REMARK    2  A    between atoms: C1_2  and  C2_3 
REMARK    3  A    between atoms: C2_3  and  N1_4 
REMARK    4  A    between atoms: C2_3  and  C12_16 
REMARK    5  A    between atoms: N1_4  and  C3_5 
ROOT
HETATM    1  N1  UNL     1      23.464   2.436  50.954  1.00  0.00    -0.363 N 
HETATM    2  H5  UNL     1      23.610   1.851  50.077  1.00  0.00     0.162 HD
ENDROOT
BRANCH   1   3
HETATM    3  C2  UNL     1      23.478   1.840  52.275  1.00  0.00     0.140 C 
BRANCH   3   4
HETATM    4  C1  UNL     1      22.256   0.985  52.529  1.00  0.00     0.194 C 
BRANCH   4   5
HETATM    5  O1  UNL     1      21.730   0.476  51.346  1.00  0.00    -0.399 OA
HETATM    6  H1  UNL     1      20.748   0.293  51.419  1.00  0.00     0.209 HD
ENDBRANCH   4   5
ENDBRANCH   3   4
BRANCH   3   7
HETATM    7  C12 UNL     1      24.665   1.013  52.513  1.00  0.00    -0.034 A 
HETATM    8  C13 UNL     1      25.874   1.106  51.847  1.00  0.00     0.009 A 
HETATM    9  C14 UNL     1      26.898   0.244  52.198  1.00  0.00     0.001 A 
HETATM   10  C15 UNL     1      26.716  -0.690  53.191  1.00  0.00     0.000 A 
HETATM   11  C16 UNL     1      25.523  -0.809  53.875  1.00  0.00     0.001 A 
HETATM   12  C17 UNL     1      24.487   0.063  53.521  1.00  0.00     0.009 A 
ENDBRANCH   3   7
ENDBRANCH   1   3
BRANCH   1  13
HETATM   13  C3  UNL     1      23.251   3.842  50.837  1.00  0.00     0.140 A 
HETATM   14  N2  UNL     1      22.163   4.349  51.255  1.00  0.00    -0.242 NA
HETATM   15  C4  UNL     1      21.737   5.682  51.246  1.00  0.00     0.125 A 
HETATM   16  C5  UNL     1      22.374   6.744  50.794  1.00  0.00     0.059 A 
HETATM   17  S1  UNL     1      24.077   6.368  50.075  1.00  0.00    -0.153 SA
HETATM   18  C6  UNL     1      24.299   4.604  50.243  1.00  0.00     0.047 A 
HETATM   19  C11 UNL     1      25.552   6.836  49.329  1.00  0.00     0.108 A 
HETATM   20  C7  UNL     1      25.637   4.458  49.656  1.00  0.00    -0.035 A 
HETATM   21  C8  UNL     1      26.267   5.505  49.210  1.00  0.00    -0.063 A 
HETATM   22  C10 UNL     1      26.733   3.562  49.292  1.00  0.00     0.044 A 
HETATM   23  C9  UNL     1      27.441   4.774  48.787  1.00  0.00     0.040 A 
ENDBRANCH   1  13
TORSDOF 5
ENDMDL
