MODEL 1
REMARK VINA RESULT:      -8.0      0.000      0.000
REMARK  6 active torsions:
REMARK  status: ('A' for Active; 'I' for Inactive)
REMARK    1  A    between atoms: C2_2  and  O1_3 
REMARK    2  A    between atoms: O1_3  and  C3_4 
REMARK    3  A    between atoms: C6_7  and  N1_8 
REMARK    4  A    between atoms: C11_13  and  N2_14 
REMARK    5  A    between atoms: N3_15  and  N4_16 
REMARK    6  A    between atoms: C16_23  and  O2_24 
ROOT
HETATM    1  C3  UNL     1      22.010   1.385  52.077  1.00  0.00     0.103 A 
HETATM    2  C4  UNL     1      23.186   0.841  52.537  1.00  0.00     0.057 A 
HETATM    3  C5  UNL     1      23.244   0.020  53.609  1.00  0.00     0.050 A 
HETATM    4  C6  UNL     1      24.489  -0.448  53.952  1.00  0.00     0.257 A 
HETATM    5  N5  UNL     1      24.434  -1.270  55.055  1.00  0.00    -0.216 NA
HETATM    6  C13 UNL     1      23.325  -1.582  55.713  1.00  0.00     0.236 A 
HETATM    7  N6  UNL     1      22.141  -1.092  55.327  1.00  0.00    -0.241 NA
HETATM    8  C14 UNL     1      22.093  -0.281  54.263  1.00  0.00     0.075 A 
HETATM    9  C15 UNL     1      20.919   0.243  53.830  1.00  0.00     0.072 A 
HETATM   10  C16 UNL     1      20.804   1.097  52.727  1.00  0.00     0.103 A 
ENDROOT
BRANCH   4  11
HETATM   11  N1  UNL     1      25.809  -0.170  53.286  1.00  0.00     0.091 N 
HETATM   12  C7  UNL     1      26.461  -0.885  52.121  1.00  0.00     0.256 A 
HETATM   13  C8  UNL     1      27.200   0.077  52.660  1.00  0.00     0.249 A 
HETATM   14  C9  UNL     1      26.724   1.045  51.653  1.00  0.00     0.028 A 
HETATM   15  N3  UNL     1      27.886   0.042  53.886  1.00  0.00    -0.244 N 
HETATM   16  C10 UNL     1      27.288   1.730  52.615  1.00  0.00     0.165 A 
HETATM   17  C11 UNL     1      26.725   0.886  53.759  1.00  0.00     0.434 C 
BRANCH  15  18
HETATM   18  N4  UNL     1      28.954  -0.499  54.508  1.00  0.00    -0.240 NA
HETATM   19  C12 UNL     1      30.024  -0.967  53.668  1.00  0.00     0.133 C 
HETATM   20  H12 UNL     1      29.373   0.253  55.103  1.00  0.00     0.146 HD
ENDBRANCH  15  18
BRANCH  17  21
HETATM   21  N2  UNL     1      26.300   1.591  54.855  1.00  0.00     0.140 N 
HETATM   22  H10 UNL     1      26.588   1.133  55.748  1.00  0.00     0.318 HD
HETATM   23  H11 UNL     1      26.479   2.597  54.890  1.00  0.00     0.318 HD
ENDBRANCH  17  21
ENDBRANCH   4  11
BRANCH   1  24
HETATM   24  O1  UNL     1      21.904   2.232  50.982  1.00  0.00    -0.349 OA
BRANCH  24  25
HETATM   25  C2  UNL     1      22.398   1.823  49.720  1.00  0.00     0.171 C 
HETATM   26  C1  UNL     1      21.381   0.996  48.964  1.00  0.00     0.034 C 
ENDBRANCH  24  25
ENDBRANCH   1  24
BRANCH  10  27
HETATM   27  O2  UNL     1      19.608   1.631  52.286  1.00  0.00    -0.353 OA
HETATM   28  C17 UNL     1      18.721   0.782  51.595  1.00  0.00     0.210 C 
ENDBRANCH  10  27
TORSDOF 6
ENDMDL
MODEL 2
REMARK VINA RESULT:      -7.1      3.370      5.894
REMARK  6 active torsions:
REMARK  status: ('A' for Active; 'I' for Inactive)
REMARK    1  A    between atoms: C2_2  and  O1_3 
REMARK    2  A    between atoms: O1_3  and  C3_4 
REMARK    3  A    between atoms: C6_7  and  N1_8 
REMARK    4  A    between atoms: C11_13  and  N2_14 
REMARK    5  A    between atoms: N3_15  and  N4_16 
REMARK    6  A    between atoms: C16_23  and  O2_24 
ROOT
HETATM    1  C3  UNL     1      26.959   0.857  52.836  1.00  0.00     0.103 A 
HETATM    2  C4  UNL     1      25.800   1.374  52.307  1.00  0.00     0.057 A 
HETATM    3  C5  UNL     1      24.586   0.823  52.524  1.00  0.00     0.050 A 
HETATM    4  C6  UNL     1      23.517   1.450  51.931  1.00  0.00     0.257 A 
HETATM    5  N5  UNL     1      22.333   0.808  52.215  1.00  0.00    -0.216 NA
HETATM    6  C13 UNL     1      22.222  -0.280  52.966  1.00  0.00     0.236 A 
HETATM    7  N6  UNL     1      23.304  -0.843  53.517  1.00  0.00    -0.241 NA
HETATM    8  C14 UNL     1      24.503  -0.289  53.297  1.00  0.00     0.075 A 
HETATM    9  C15 UNL     1      25.631  -0.821  53.831  1.00  0.00     0.072 A 
HETATM   10  C16 UNL     1      26.912  -0.291  53.638  1.00  0.00     0.103 A 
ENDROOT
BRANCH   4  11
HETATM   11  N1  UNL     1      23.517   2.682  51.067  1.00  0.00     0.091 N 
HETATM   12  C7  UNL     1      23.343   2.799  49.567  1.00  0.00     0.256 A 
HETATM   13  C8  UNL     1      23.595   3.947  50.184  1.00  0.00     0.249 A 
HETATM   14  C9  UNL     1      22.154   4.255  50.261  1.00  0.00     0.028 A 
HETATM   15  N3  UNL     1      24.824   4.381  50.712  1.00  0.00    -0.244 N 
HETATM   16  C10 UNL     1      22.771   5.067  51.081  1.00  0.00     0.165 A 
HETATM   17  C11 UNL     1      23.759   4.030  51.617  1.00  0.00     0.434 C 
BRANCH  15  18
HETATM   18  N4  UNL     1      26.050   4.822  50.364  1.00  0.00    -0.240 NA
HETATM   19  C12 UNL     1      26.778   4.027  49.412  1.00  0.00     0.133 C 
HETATM   20  H12 UNL     1      25.920   5.756  49.909  1.00  0.00     0.146 HD
ENDBRANCH  15  18
BRANCH  17  21
HETATM   21  N2  UNL     1      23.995   4.087  52.966  1.00  0.00     0.140 N 
HETATM   22  H10 UNL     1      25.014   4.015  53.186  1.00  0.00     0.318 HD
HETATM   23  H11 UNL     1      23.560   4.835  53.510  1.00  0.00     0.318 HD
ENDBRANCH  17  21
ENDBRANCH   4  11
BRANCH   1  24
HETATM   24  O1  UNL     1      28.226   1.389  52.640  1.00  0.00    -0.349 OA
BRANCH  24  25
HETATM   25  C2  UNL     1      28.645   2.516  53.387  1.00  0.00     0.171 C 
HETATM   26  C1  UNL     1      29.577   2.124  54.512  1.00  0.00     0.034 C 
ENDBRANCH  24  25
ENDBRANCH   1  24
BRANCH  10  27
HETATM   27  O2  UNL     1      28.061  -0.832  54.182  1.00  0.00    -0.353 OA
HETATM   28  C17 UNL     1      28.840  -1.680  53.370  1.00  0.00     0.210 C 
ENDBRANCH  10  27
TORSDOF 6
ENDMDL
MODEL 3
REMARK VINA RESULT:      -7.0      3.856      6.795
REMARK  6 active torsions:
REMARK  status: ('A' for Active; 'I' for Inactive)
REMARK    1  A    between atoms: C2_2  and  O1_3 
REMARK    2  A    between atoms: O1_3  and  C3_4 
REMARK    3  A    between atoms: C6_7  and  N1_8 
REMARK    4  A    between atoms: C11_13  and  N2_14 
REMARK    5  A    between atoms: N3_15  and  N4_16 
REMARK    6  A    between atoms: C16_23  and  O2_24 
ROOT
HETATM    1  C3  UNL     1      24.572   0.156  52.863  1.00  0.00     0.103 A 
HETATM    2  C4  UNL     1      24.047   1.238  52.197  1.00  0.00     0.057 A 
HETATM    3  C5  UNL     1      24.808   2.111  51.502  1.00  0.00     0.050 A 
HETATM    4  C6  UNL     1      24.144   3.145  50.887  1.00  0.00     0.257 A 
HETATM    5  N5  UNL     1      25.012   3.972  50.211  1.00  0.00    -0.216 NA
HETATM    6  C13 UNL     1      26.327   3.805  50.151  1.00  0.00     0.236 A 
HETATM    7  N6  UNL     1      26.914   2.776  50.773  1.00  0.00    -0.241 NA
HETATM    8  C14 UNL     1      26.151   1.915  51.458  1.00  0.00     0.075 A 
HETATM    9  C15 UNL     1      26.695   0.855  52.107  1.00  0.00     0.072 A 
HETATM   10  C16 UNL     1      25.953  -0.078  52.840  1.00  0.00     0.103 A 
ENDROOT
BRANCH   4  11
HETATM   11  N1  UNL     1      22.668   3.435  50.879  1.00  0.00     0.091 N 
HETATM   12  C7  UNL     1      21.602   2.947  49.920  1.00  0.00     0.256 A 
HETATM   13  C8  UNL     1      21.168   3.801  50.838  1.00  0.00     0.249 A 
HETATM   14  C9  UNL     1      20.734   2.690  51.707  1.00  0.00     0.028 A 
HETATM   15  N3  UNL     1      21.387   5.189  50.886  1.00  0.00    -0.244 N 
HETATM   16  C10 UNL     1      20.745   3.775  52.439  1.00  0.00     0.165 A 
HETATM   17  C11 UNL     1      22.039   4.345  51.855  1.00  0.00     0.434 C 
BRANCH  15  18
HETATM   18  N4  UNL     1      21.047   6.354  50.297  1.00  0.00    -0.240 NA
HETATM   19  C12 UNL     1      22.035   7.400  50.313  1.00  0.00     0.133 C 
HETATM   20  H12 UNL     1      20.876   6.146  49.285  1.00  0.00     0.146 HD
ENDBRANCH  15  18
BRANCH  17  21
HETATM   21  N2  UNL     1      22.889   4.920  52.763  1.00  0.00     0.140 N 
HETATM   22  H10 UNL     1      22.489   4.913  53.729  1.00  0.00     0.318 HD
HETATM   23  H11 UNL     1      23.867   4.625  52.775  1.00  0.00     0.318 HD
ENDBRANCH  17  21
ENDBRANCH   4  11
BRANCH   1  24
HETATM   24  O1  UNL     1      23.829  -0.765  53.588  1.00  0.00    -0.349 OA
BRANCH  24  25
HETATM   25  C2  UNL     1      22.431  -0.866  53.384  1.00  0.00     0.171 C 
HETATM   26  C1  UNL     1      21.660  -0.563  54.650  1.00  0.00     0.034 C 
ENDBRANCH  24  25
ENDBRANCH   1  24
BRANCH  10  27
HETATM   27  O2  UNL     1      26.507  -1.157  53.501  1.00  0.00    -0.353 OA
HETATM   28  C17 UNL     1      27.167  -2.134  52.731  1.00  0.00     0.210 C 
ENDBRANCH  10  27
TORSDOF 6
ENDMDL
MODEL 4
REMARK VINA RESULT:      -7.0      3.060      6.382
REMARK  6 active torsions:
REMARK  status: ('A' for Active; 'I' for Inactive)
REMARK    1  A    between atoms: C2_2  and  O1_3 
REMARK    2  A    between atoms: O1_3  and  C3_4 
REMARK    3  A    between atoms: C6_7  and  N1_8 
REMARK    4  A    between atoms: C11_13  and  N2_14 
REMARK    5  A    between atoms: N3_15  and  N4_16 
REMARK    6  A    between atoms: C16_23  and  O2_24 
ROOT
HETATM    1  C3  UNL     1      25.703   0.491  52.563  1.00  0.00     0.103 A 
HETATM    2  C4  UNL     1      24.372   0.824  52.475  1.00  0.00     0.057 A 
HETATM    3  C5  UNL     1      23.430   0.303  53.290  1.00  0.00     0.050 A 
HETATM    4  C6  UNL     1      22.140   0.729  53.085  1.00  0.00     0.257 A 
HETATM    5  N5  UNL     1      21.265   0.136  53.966  1.00  0.00    -0.216 NA
HETATM    6  C13 UNL     1      21.609  -0.738  54.902  1.00  0.00     0.236 A 
HETATM    7  N6  UNL     1      22.884  -1.113  55.052  1.00  0.00    -0.241 NA
HETATM    8  C14 UNL     1      23.811  -0.590  54.240  1.00  0.00     0.075 A 
HETATM    9  C15 UNL     1      25.118  -0.936  54.348  1.00  0.00     0.072 A 
HETATM   10  C16 UNL     1      26.133  -0.427  53.530  1.00  0.00     0.103 A 
ENDROOT
BRANCH   4  11
HETATM   11  N1  UNL     1      21.632   1.712  52.065  1.00  0.00     0.091 N 
HETATM   12  C7  UNL     1      22.133   3.106  51.749  1.00  0.00     0.256 A 
HETATM   13  C8  UNL     1      21.053   2.741  51.069  1.00  0.00     0.249 A 
HETATM   14  C9  UNL     1      21.884   2.306  49.929  1.00  0.00     0.028 A 
HETATM   15  N3  UNL     1      19.736   2.637  51.549  1.00  0.00    -0.244 N 
HETATM   16  C10 UNL     1      20.688   1.804  49.753  1.00  0.00     0.165 A 
HETATM   17  C11 UNL     1      20.456   1.433  51.219  1.00  0.00     0.434 C 
BRANCH  15  18
HETATM   18  N4  UNL     1      18.676   3.367  51.953  1.00  0.00    -0.240 NA
HETATM   19  C12 UNL     1      17.399   3.022  51.387  1.00  0.00     0.133 C 
HETATM   20  H12 UNL     1      18.576   3.213  52.984  1.00  0.00     0.146 HD
ENDBRANCH  15  18
BRANCH  17  21
HETATM   21  N2  UNL     1      19.848   0.223  51.429  1.00  0.00     0.140 N 
HETATM   22  H10 UNL     1      19.005   0.102  50.825  1.00  0.00     0.318 HD
HETATM   23  H11 UNL     1      20.423  -0.622  51.422  1.00  0.00     0.318 HD
ENDBRANCH  17  21
ENDBRANCH   4  11
BRANCH   1  24
HETATM   24  O1  UNL     1      26.703   1.002  51.747  1.00  0.00    -0.349 OA
BRANCH  24  25
HETATM   25  C2  UNL     1      26.891   2.401  51.648  1.00  0.00     0.171 C 
HETATM   26  C1  UNL     1      26.469   2.925  50.293  1.00  0.00     0.034 C 
ENDBRANCH  24  25
ENDBRANCH   1  24
BRANCH  10  27
HETATM   27  O2  UNL     1      27.464  -0.779  53.640  1.00  0.00    -0.353 OA
HETATM   28  C17 UNL     1      28.257  -0.081  54.572  1.00  0.00     0.210 C 
ENDBRANCH  10  27
TORSDOF 6
ENDMDL
MODEL 5
REMARK VINA RESULT:      -7.0      3.484      6.915
REMARK  6 active torsions:
REMARK  status: ('A' for Active; 'I' for Inactive)
REMARK    1  A    between atoms: C2_2  and  O1_3 
REMARK    2  A    between atoms: O1_3  and  C3_4 
REMARK    3  A    between atoms: C6_7  and  N1_8 
REMARK    4  A    between atoms: C11_13  and  N2_14 
REMARK    5  A    between atoms: N3_15  and  N4_16 
REMARK    6  A    between atoms: C16_23  and  O2_24 
ROOT
HETATM    1  C3  UNL     1      25.706  -0.265  53.578  1.00  0.00     0.103 A 
HETATM    2  C4  UNL     1      24.825   0.465  52.814  1.00  0.00     0.057 A 
HETATM    3  C5  UNL     1      25.219   1.463  51.995  1.00  0.00     0.050 A 
HETATM    4  C6  UNL     1      24.227   2.104  51.293  1.00  0.00     0.257 A 
HETATM    5  N5  UNL     1      24.737   3.102  50.493  1.00  0.00    -0.216 NA
HETATM    6  C13 UNL     1      26.022   3.416  50.400  1.00  0.00     0.236 A 
HETATM    7  N6  UNL     1      26.941   2.752  51.111  1.00  0.00    -0.241 NA
HETATM    8  C14 UNL     1      26.541   1.762  51.919  1.00  0.00     0.075 A 
HETATM    9  C15 UNL     1      27.432   1.058  52.662  1.00  0.00     0.072 A 
HETATM   10  C16 UNL     1      27.077   0.015  53.526  1.00  0.00     0.103 A 
ENDROOT
BRANCH   4  11
HETATM   11  N1  UNL     1      22.747   1.837  51.312  1.00  0.00     0.091 N 
HETATM   12  C7  UNL     1      21.983   0.646  50.773  1.00  0.00     0.256 A 
HETATM   13  C8  UNL     1      21.219   1.611  51.270  1.00  0.00     0.249 A 
HETATM   14  C9  UNL     1      21.150   0.923  52.574  1.00  0.00     0.028 A 
HETATM   15  N3  UNL     1      20.933   2.859  50.690  1.00  0.00    -0.244 N 
HETATM   16  C10 UNL     1      20.732   2.150  52.759  1.00  0.00     0.165 A 
HETATM   17  C11 UNL     1      21.778   2.808  51.857  1.00  0.00     0.434 C 
BRANCH  15  18
HETATM   18  N4  UNL     1      20.244   3.451  49.693  1.00  0.00    -0.240 NA
HETATM   19  C12 UNL     1      19.329   2.620  48.956  1.00  0.00     0.133 C 
HETATM   20  H12 UNL     1      19.653   4.196  50.132  1.00  0.00     0.146 HD
ENDBRANCH  15  18
BRANCH  17  21
HETATM   21  N2  UNL     1      22.313   3.976  52.334  1.00  0.00     0.140 N 
HETATM   22  H10 UNL     1      22.538   4.645  51.564  1.00  0.00     0.318 HD
HETATM   23  H11 UNL     1      21.838   4.456  53.102  1.00  0.00     0.318 HD
ENDBRANCH  17  21
ENDBRANCH   4  11
BRANCH   1  24
HETATM   24  O1  UNL     1      25.346  -1.298  54.432  1.00  0.00    -0.349 OA
BRANCH  24  25
HETATM   25  C2  UNL     1      24.586  -1.024  55.595  1.00  0.00     0.171 C 
HETATM   26  C1  UNL     1      23.129  -1.386  55.407  1.00  0.00     0.034 C 
ENDBRANCH  24  25
ENDBRANCH   1  24
BRANCH  10  27
HETATM   27  O2  UNL     1      27.983  -0.702  54.283  1.00  0.00    -0.353 OA
HETATM   28  C17 UNL     1      29.344  -0.633  53.924  1.00  0.00     0.210 C 
ENDBRANCH  10  27
TORSDOF 6
ENDMDL
MODEL 6
REMARK VINA RESULT:      -7.0      2.681      3.880
REMARK  6 active torsions:
REMARK  status: ('A' for Active; 'I' for Inactive)
REMARK    1  A    between atoms: C2_2  and  O1_3 
REMARK    2  A    between atoms: O1_3  and  C3_4 
REMARK    3  A    between atoms: C6_7  and  N1_8 
REMARK    4  A    between atoms: C11_13  and  N2_14 
REMARK    5  A    between atoms: N3_15  and  N4_16 
REMARK    6  A    between atoms: C16_23  and  O2_24 
ROOT
HETATM    1  C3  UNL     1      19.671   0.605  52.378  1.00  0.00     0.103 A 
HETATM    2  C4  UNL     1      20.949   1.071  52.183  1.00  0.00     0.057 A 
HETATM    3  C5  UNL     1      22.027   0.533  52.794  1.00  0.00     0.050 A 
HETATM    4  C6  UNL     1      23.242   1.104  52.502  1.00  0.00     0.257 A 
HETATM    5  N5  UNL     1      24.268   0.482  53.177  1.00  0.00    -0.216 NA
HETATM    6  C13 UNL     1      24.118  -0.542  54.007  1.00  0.00     0.236 A 
HETATM    7  N6  UNL     1      22.905  -1.053  54.250  1.00  0.00    -0.241 NA
HETATM    8  C14 UNL     1      21.843  -0.514  53.638  1.00  0.00     0.075 A 
HETATM    9  C15 UNL     1      20.592  -0.994  53.849  1.00  0.00     0.072 A 
HETATM   10  C16 UNL     1      19.443  -0.473  53.242  1.00  0.00     0.103 A 
ENDROOT
BRANCH   4  11
HETATM   11  N1  UNL     1      23.537   2.256  51.580  1.00  0.00     0.091 N 
HETATM   12  C7  UNL     1      23.350   2.353  50.081  1.00  0.00     0.256 A 
HETATM   13  C8  UNL     1      23.915   3.418  50.635  1.00  0.00     0.249 A 
HETATM   14  C9  UNL     1      22.608   4.097  50.729  1.00  0.00     0.028 A 
HETATM   15  N3  UNL     1      25.231   3.535  51.116  1.00  0.00    -0.244 N 
HETATM   16  C10 UNL     1      23.443   4.752  51.496  1.00  0.00     0.165 A 
HETATM   17  C11 UNL     1      24.141   3.514  52.060  1.00  0.00     0.434 C 
BRANCH  15  18
HETATM   18  N4  UNL     1      26.518   3.623  50.723  1.00  0.00    -0.240 NA
HETATM   19  C12 UNL     1      26.752   4.006  49.356  1.00  0.00     0.133 C 
HETATM   20  H12 UNL     1      26.963   4.372  51.303  1.00  0.00     0.146 HD
ENDBRANCH  15  18
BRANCH  17  21
HETATM   21  N2  UNL     1      24.428   3.561  53.399  1.00  0.00     0.140 N 
HETATM   22  H10 UNL     1      24.981   4.412  53.648  1.00  0.00     0.318 HD
HETATM   23  H11 UNL     1      23.670   3.413  54.069  1.00  0.00     0.318 HD
ENDBRANCH  17  21
ENDBRANCH   4  11
BRANCH   1  24
HETATM   24  O1  UNL     1      18.536   1.126  51.772  1.00  0.00    -0.349 OA
BRANCH  24  25
HETATM   25  C2  UNL     1      18.296   0.893  50.396  1.00  0.00     0.171 C 
HETATM   26  C1  UNL     1      17.200  -0.128  50.187  1.00  0.00     0.034 C 
ENDBRANCH  24  25
ENDBRANCH   1  24
BRANCH  10  27
HETATM   27  O2  UNL     1      18.169  -0.961  53.457  1.00  0.00    -0.353 OA
HETATM   28  C17 UNL     1      18.007  -2.356  53.572  1.00  0.00     0.210 C 
ENDBRANCH  10  27
TORSDOF 6
ENDMDL
MODEL 7
REMARK VINA RESULT:      -6.9      3.455      6.674
REMARK  6 active torsions:
REMARK  status: ('A' for Active; 'I' for Inactive)
REMARK    1  A    between atoms: C2_2  and  O1_3 
REMARK    2  A    between atoms: O1_3  and  C3_4 
REMARK    3  A    between atoms: C6_7  and  N1_8 
REMARK    4  A    between atoms: C11_13  and  N2_14 
REMARK    5  A    between atoms: N3_15  and  N4_16 
REMARK    6  A    between atoms: C16_23  and  O2_24 
ROOT
HETATM    1  C3  UNL     1      24.624   0.263  53.187  1.00  0.00     0.103 A 
HETATM    2  C4  UNL     1      24.159   1.429  52.624  1.00  0.00     0.057 A 
HETATM    3  C5  UNL     1      24.900   2.184  51.784  1.00  0.00     0.050 A 
HETATM    4  C6  UNL     1      24.302   3.322  51.300  1.00  0.00     0.257 A 
HETATM    5  N5  UNL     1      25.143   4.015  50.458  1.00  0.00    -0.216 NA
HETATM    6  C13 UNL     1      26.377   3.643  50.144  1.00  0.00     0.236 A 
HETATM    7  N6  UNL     1      26.902   2.521  50.651  1.00  0.00    -0.241 NA
HETATM    8  C14 UNL     1      26.159   1.778  51.481  1.00  0.00     0.075 A 
HETATM    9  C15 UNL     1      26.643   0.632  52.023  1.00  0.00     0.072 A 
HETATM   10  C16 UNL     1      25.918  -0.186  52.898  1.00  0.00     0.103 A 
ENDROOT
BRANCH   4  11
HETATM   11  N1  UNL     1      22.918   3.843  51.578  1.00  0.00     0.091 N 
HETATM   12  C7  UNL     1      22.452   4.782  52.671  1.00  0.00     0.256 A 
HETATM   13  C8  UNL     1      21.481   4.309  51.899  1.00  0.00     0.249 A 
HETATM   14  C9  UNL     1      21.536   5.511  51.045  1.00  0.00     0.028 A 
HETATM   15  N3  UNL     1      20.938   3.013  51.907  1.00  0.00    -0.244 N 
HETATM   16  C10 UNL     1      20.852   4.604  50.396  1.00  0.00     0.165 A 
HETATM   17  C11 UNL     1      21.745   3.425  50.787  1.00  0.00     0.434 C 
BRANCH  15  18
HETATM   18  N4  UNL     1      20.157   2.176  52.621  1.00  0.00    -0.240 NA
HETATM   19  C12 UNL     1      19.327   1.270  51.874  1.00  0.00     0.133 C 
HETATM   20  H12 UNL     1      20.798   1.569  53.185  1.00  0.00     0.146 HD
ENDBRANCH  15  18
BRANCH  17  21
HETATM   21  N2  UNL     1      21.996   2.522  49.787  1.00  0.00     0.140 N 
HETATM   22  H10 UNL     1      22.632   2.915  49.058  1.00  0.00     0.318 HD
HETATM   23  H11 UNL     1      22.280   1.573  50.042  1.00  0.00     0.318 HD
ENDBRANCH  17  21
ENDBRANCH   4  11
BRANCH   1  24
HETATM   24  O1  UNL     1      23.899  -0.542  54.053  1.00  0.00    -0.349 OA
BRANCH  24  25
HETATM   25  C2  UNL     1      22.585  -0.947  53.713  1.00  0.00     0.171 C 
HETATM   26  C1  UNL     1      21.584  -0.533  54.769  1.00  0.00     0.034 C 
ENDBRANCH  24  25
ENDBRANCH   1  24
BRANCH  10  27
HETATM   27  O2  UNL     1      26.411  -1.353  53.449  1.00  0.00    -0.353 OA
HETATM   28  C17 UNL     1      27.106  -2.240  52.604  1.00  0.00     0.210 C 
ENDBRANCH  10  27
TORSDOF 6
ENDMDL
MODEL 8
REMARK VINA RESULT:      -6.8      3.464      5.401
REMARK  6 active torsions:
REMARK  status: ('A' for Active; 'I' for Inactive)
REMARK    1  A    between atoms: C2_2  and  O1_3 
REMARK    2  A    between atoms: O1_3  and  C3_4 
REMARK    3  A    between atoms: C6_7  and  N1_8 
REMARK    4  A    between atoms: C11_13  and  N2_14 
REMARK    5  A    between atoms: N3_15  and  N4_16 
REMARK    6  A    between atoms: C16_23  and  O2_24 
ROOT
HETATM    1  C3  UNL     1      22.087   0.629  52.541  1.00  0.00     0.103 A 
HETATM    2  C4  UNL     1      22.828   1.693  52.083  1.00  0.00     0.057 A 
HETATM    3  C5  UNL     1      24.178   1.722  52.133  1.00  0.00     0.050 A 
HETATM    4  C6  UNL     1      24.782   2.852  51.638  1.00  0.00     0.257 A 
HETATM    5  N5  UNL     1      26.153   2.777  51.739  1.00  0.00    -0.216 NA
HETATM    6  C13 UNL     1      26.821   1.749  52.247  1.00  0.00     0.236 A 
HETATM    7  N6  UNL     1      26.172   0.676  52.713  1.00  0.00    -0.241 NA
HETATM    8  C14 UNL     1      24.834   0.656  52.658  1.00  0.00     0.075 A 
HETATM    9  C15 UNL     1      24.127  -0.407  53.117  1.00  0.00     0.072 A 
HETATM   10  C16 UNL     1      22.730  -0.488  53.089  1.00  0.00     0.103 A 
ENDROOT
BRANCH   4  11
HETATM   11  N1  UNL     1      24.137   4.071  51.038  1.00  0.00     0.091 N 
HETATM   12  C7  UNL     1      23.910   4.414  49.580  1.00  0.00     0.256 A 
HETATM   13  C8  UNL     1      23.541   5.362  50.432  1.00  0.00     0.249 A 
HETATM   14  C9  UNL     1      22.149   4.873  50.417  1.00  0.00     0.028 A 
HETATM   15  N3  UNL     1      24.376   6.227  51.161  1.00  0.00    -0.244 N 
HETATM   16  C10 UNL     1      22.267   5.680  51.441  1.00  0.00     0.165 A 
HETATM   17  C11 UNL     1      23.655   5.195  51.863  1.00  0.00     0.434 C 
BRANCH  15  18
HETATM   18  N4  UNL     1      25.195   7.292  51.038  1.00  0.00    -0.240 NA
HETATM   19  C12 UNL     1      25.210   7.951  49.760  1.00  0.00     0.133 C 
HETATM   20  H12 UNL     1      24.862   8.012  51.721  1.00  0.00     0.146 HD
ENDBRANCH  15  18
BRANCH  17  21
HETATM   21  N2  UNL     1      23.844   5.062  53.214  1.00  0.00     0.140 N 
HETATM   22  H10 UNL     1      22.965   4.779  53.704  1.00  0.00     0.318 HD
HETATM   23  H11 UNL     1      24.637   4.509  53.547  1.00  0.00     0.318 HD
ENDBRANCH  17  21
ENDBRANCH   4  11
BRANCH   1  24
HETATM   24  O1  UNL     1      20.701   0.557  52.509  1.00  0.00    -0.349 OA
BRANCH  24  25
HETATM   25  C2  UNL     1      20.026   0.437  51.271  1.00  0.00     0.171 C 
HETATM   26  C1  UNL     1      18.601  -0.036  51.457  1.00  0.00     0.034 C 
ENDBRANCH  24  25
ENDBRANCH   1  24
BRANCH  10  27
HETATM   27  O2  UNL     1      22.011  -1.570  53.557  1.00  0.00    -0.353 OA
HETATM   28  C17 UNL     1      21.906  -1.741  54.952  1.00  0.00     0.210 C 
ENDBRANCH  10  27
TORSDOF 6
ENDMDL
MODEL 9
REMARK VINA RESULT:      -6.5      8.812     10.764
REMARK  6 active torsions:
REMARK  status: ('A' for Active; 'I' for Inactive)
REMARK    1  A    between atoms: C2_2  and  O1_3 
REMARK    2  A    between atoms: O1_3  and  C3_4 
REMARK    3  A    between atoms: C6_7  and  N1_8 
REMARK    4  A    between atoms: C11_13  and  N2_14 
REMARK    5  A    between atoms: N3_15  and  N4_16 
REMARK    6  A    between atoms: C16_23  and  O2_24 
ROOT
HETATM    1  C3  UNL     1      26.388   6.707  48.673  1.00  0.00     0.103 A 
HETATM    2  C4  UNL     1      27.458   7.510  48.355  1.00  0.00     0.057 A 
HETATM    3  C5  UNL     1      28.709   7.030  48.182  1.00  0.00     0.050 A 
HETATM    4  C6  UNL     1      29.679   7.951  47.867  1.00  0.00     0.257 A 
HETATM    5  N5  UNL     1      30.910   7.356  47.715  1.00  0.00    -0.216 NA
HETATM    6  C13 UNL     1      31.147   6.058  47.850  1.00  0.00     0.236 A 
HETATM    7  N6  UNL     1      30.158   5.211  48.158  1.00  0.00    -0.241 NA
HETATM    8  C14 UNL     1      28.922   5.696  48.327  1.00  0.00     0.075 A 
HETATM    9  C15 UNL     1      27.883   4.882  48.640  1.00  0.00     0.072 A 
HETATM   10  C16 UNL     1      26.570   5.328  48.831  1.00  0.00     0.103 A 
ENDROOT
BRANCH   4  11
HETATM   11  N1  UNL     1      29.532   9.437  47.684  1.00  0.00     0.091 N 
HETATM   12  C7  UNL     1      29.158  10.214  46.439  1.00  0.00     0.256 A 
HETATM   13  C8  UNL     1      29.459  10.967  47.489  1.00  0.00     0.249 A 
HETATM   14  C9  UNL     1      28.033  11.081  47.852  1.00  0.00     0.028 A 
HETATM   15  N3  UNL     1      30.735  11.213  48.027  1.00  0.00    -0.244 N 
HETATM   16  C10 UNL     1      28.731  11.475  48.887  1.00  0.00     0.165 A 
HETATM   17  C11 UNL     1      29.808  10.396  48.770  1.00  0.00     0.434 C 
BRANCH  15  18
HETATM   18  N4  UNL     1      31.892  11.867  47.800  1.00  0.00    -0.240 NA
HETATM   19  C12 UNL     1      32.897  11.162  47.050  1.00  0.00     0.133 C 
HETATM   20  H12 UNL     1      31.657  12.712  47.229  1.00  0.00     0.146 HD
ENDBRANCH  15  18
BRANCH  17  21
HETATM   21  N2  UNL     1      30.219   9.846  49.956  1.00  0.00     0.140 N 
HETATM   22  H10 UNL     1      29.411   9.582  50.564  1.00  0.00     0.318 HD
HETATM   23  H11 UNL     1      30.915   9.097  49.936  1.00  0.00     0.318 HD
ENDBRANCH  17  21
ENDBRANCH   4  11
BRANCH   1  24
HETATM   24  O1  UNL     1      25.089   7.157  48.860  1.00  0.00    -0.349 OA
BRANCH  24  25
HETATM   25  C2  UNL     1      24.769   7.949  49.989  1.00  0.00     0.171 C 
HETATM   26  C1  UNL     1      24.136   7.124  51.088  1.00  0.00     0.034 C 
ENDBRANCH  24  25
ENDBRANCH   1  24
BRANCH  10  27
HETATM   27  O2  UNL     1      25.512   4.498  49.150  1.00  0.00    -0.353 OA
HETATM   28  C17 UNL     1      25.652   3.650  50.266  1.00  0.00     0.210 C 
ENDBRANCH  10  27
TORSDOF 6
ENDMDL
