MODEL 1
REMARK VINA RESULT:      -7.8      0.000      0.000
REMARK  9 active torsions:
REMARK  status: ('A' for Active; 'I' for Inactive)
REMARK    1  A    between atoms: O1_2  and  C2_3 
REMARK    2  A    between atoms: C2_3  and  C3_4 
REMARK    3  A    between atoms: C4_5  and  C5_6 
REMARK    4  A    between atoms: C5_6  and  C6_7 
REMARK    5  A    between atoms: C6_7  and  C7_8 
REMARK    6  A    between atoms: C7_8  and  N1_9 
REMARK    7  A    between atoms: C10_15  and  C11_16 
REMARK    8  A    between atoms: C11_16  and  N4_17 
REMARK    9  A    between atoms: N4_17  and  C12_18 
ROOT
HETATM    1  C2  UNL     1      26.394   5.231  49.300  1.00  0.00     0.065 C 
HETATM    2  C10 UNL     1      26.866   3.997  49.307  1.00  0.00     0.029 C 
ENDROOT
BRANCH   1   3
HETATM    3  O1  UNL     1      25.344   5.293  50.201  1.00  0.00    -0.356 OA
HETATM    4  C1  UNL     1      24.828   6.569  50.563  1.00  0.00     0.210 C 
ENDBRANCH   1   3
BRANCH   1   5
HETATM    5  C3  UNL     1      26.961   6.262  48.451  1.00  0.00     0.032 C 
HETATM    6  C4  UNL     1      28.213   6.371  48.072  1.00  0.00    -0.024 C 
BRANCH   6   7
HETATM    7  C5  UNL     1      29.474   5.625  48.281  1.00  0.00     0.034 C 
BRANCH   7   8
HETATM    8  C6  UNL     1      30.682   6.539  48.294  1.00  0.00     0.102 C 
BRANCH   8   9
HETATM    9  C7  UNL     1      31.892   5.894  48.950  1.00  0.00     0.362 A 
HETATM   10  N2  UNL     1      32.023   4.570  48.421  1.00  0.00    -0.216 NA
HETATM   11  C8  UNL     1      33.045   4.077  47.844  1.00  0.00     0.234 A 
HETATM   12  N3  UNL     1      34.224   4.887  47.675  1.00  0.00    -0.231 NA
HETATM   13  C9  UNL     1      34.156   6.101  48.138  1.00  0.00     0.257 A 
HETATM   14  O2  UNL     1      33.055   6.638  48.762  1.00  0.00    -0.286 OA
BRANCH   9  15
HETATM   15  N1  UNL     1      31.678   5.748  50.384  1.00  0.00     0.137 N 
HETATM   16  H10 UNL     1      32.546   6.018  50.898  1.00  0.00     0.319 HD
HETATM   17  H11 UNL     1      30.866   6.346  50.656  1.00  0.00     0.319 HD
ENDBRANCH   9  15
ENDBRANCH   8   9
ENDBRANCH   7   8
ENDBRANCH   6   7
ENDBRANCH   1   5
BRANCH   2  18
HETATM   18  C11 UNL     1      26.300   2.930  50.167  1.00  0.00     0.150 C 
BRANCH  18  19
HETATM   19  N4  UNL     1      26.687   3.132  51.551  1.00  0.00    -0.386 N 
HETATM   20  H17 UNL     1      26.557   4.054  52.059  1.00  0.00     0.160 HD
BRANCH  19  21
HETATM   21  C12 UNL     1      27.280   2.066  52.315  1.00  0.00     0.029 A 
HETATM   22  C13 UNL     1      28.233   2.292  53.274  1.00  0.00     0.029 A 
HETATM   23  C14 UNL     1      28.813   1.282  54.019  1.00  0.00     0.004 A 
HETATM   24  C15 UNL     1      28.408  -0.022  53.781  1.00  0.00     0.019 A 
HETATM   25  C16 UNL     1      27.449  -0.264  52.818  1.00  0.00     0.013 A 
HETATM   26 BR1  UNL     1      26.873  -2.063  52.472  1.00  0.00    -0.051 Br
HETATM   27  C17 UNL     1      26.883   0.766  52.085  1.00  0.00     0.048 A 
ENDBRANCH  19  21
ENDBRANCH  18  19
ENDBRANCH   2  18
TORSDOF 9
ENDMDL
MODEL 2
REMARK VINA RESULT:      -7.6      5.560      7.459
REMARK  9 active torsions:
REMARK  status: ('A' for Active; 'I' for Inactive)
REMARK    1  A    between atoms: O1_2  and  C2_3 
REMARK    2  A    between atoms: C2_3  and  C3_4 
REMARK    3  A    between atoms: C4_5  and  C5_6 
REMARK    4  A    between atoms: C5_6  and  C6_7 
REMARK    5  A    between atoms: C6_7  and  C7_8 
REMARK    6  A    between atoms: C7_8  and  N1_9 
REMARK    7  A    between atoms: C10_15  and  C11_16 
REMARK    8  A    between atoms: C11_16  and  N4_17 
REMARK    9  A    between atoms: N4_17  and  C12_18 
ROOT
HETATM    1  C2  UNL     1      23.828   3.004  50.951  1.00  0.00     0.065 C 
HETATM    2  C10 UNL     1      23.331   2.446  49.862  1.00  0.00     0.029 C 
ENDROOT
BRANCH   1   3
HETATM    3  O1  UNL     1      22.770   3.335  51.782  1.00  0.00    -0.356 OA
HETATM    4  C1  UNL     1      22.760   4.617  52.400  1.00  0.00     0.210 C 
ENDBRANCH   1   3
BRANCH   1   5
HETATM    5  C3  UNL     1      25.255   3.186  51.136  1.00  0.00     0.032 C 
HETATM    6  C4  UNL     1      26.117   2.290  51.557  1.00  0.00    -0.024 C 
BRANCH   6   7
HETATM    7  C5  UNL     1      26.080   0.874  51.987  1.00  0.00     0.034 C 
BRANCH   7   8
HETATM    8  C6  UNL     1      25.587   0.724  53.412  1.00  0.00     0.102 C 
BRANCH   8   9
HETATM    9  C7  UNL     1      26.595   0.019  54.304  1.00  0.00     0.362 A 
HETATM   10  N2  UNL     1      27.208  -1.022  53.534  1.00  0.00    -0.216 NA
HETATM   11  C8  UNL     1      28.454  -1.179  53.322  1.00  0.00     0.234 A 
HETATM   12  N3  UNL     1      29.394  -0.245  53.888  1.00  0.00    -0.231 NA
HETATM   13  C9  UNL     1      28.885   0.720  54.596  1.00  0.00     0.257 A 
HETATM   14  O2  UNL     1      27.542   0.895  54.828  1.00  0.00    -0.286 OA
BRANCH   9  15
HETATM   15  N1  UNL     1      25.920  -0.633  55.419  1.00  0.00     0.137 N 
HETATM   16  H10 UNL     1      25.814   0.042  56.209  1.00  0.00     0.319 HD
HETATM   17  H11 UNL     1      24.995  -0.983  55.082  1.00  0.00     0.319 HD
ENDBRANCH   9  15
ENDBRANCH   8   9
ENDBRANCH   7   8
ENDBRANCH   6   7
ENDBRANCH   1   5
BRANCH   2  18
HETATM   18  C11 UNL     1      21.877   2.251  49.655  1.00  0.00     0.150 C 
BRANCH  18  19
HETATM   19  N4  UNL     1      21.520   0.855  49.830  1.00  0.00    -0.386 N 
HETATM   20  H17 UNL     1      21.695   0.116  49.091  1.00  0.00     0.160 HD
BRANCH  19  21
HETATM   21  C12 UNL     1      20.897   0.400  51.046  1.00  0.00     0.029 A 
HETATM   22  C13 UNL     1      19.536   0.360  51.204  1.00  0.00     0.029 A 
HETATM   23  C14 UNL     1      18.920  -0.074  52.363  1.00  0.00     0.004 A 
HETATM   24  C15 UNL     1      19.722  -0.490  53.414  1.00  0.00     0.019 A 
HETATM   25  C16 UNL     1      21.093  -0.456  53.268  1.00  0.00     0.013 A 
HETATM   26 BR1  UNL     1      22.224  -1.029  54.712  1.00  0.00    -0.051 Br
HETATM   27  C17 UNL     1      21.688  -0.017  52.097  1.00  0.00     0.048 A 
ENDBRANCH  19  21
ENDBRANCH  18  19
ENDBRANCH   2  18
TORSDOF 9
ENDMDL
MODEL 3
REMARK VINA RESULT:      -7.6      5.647      7.314
REMARK  9 active torsions:
REMARK  status: ('A' for Active; 'I' for Inactive)
REMARK    1  A    between atoms: O1_2  and  C2_3 
REMARK    2  A    between atoms: C2_3  and  C3_4 
REMARK    3  A    between atoms: C4_5  and  C5_6 
REMARK    4  A    between atoms: C5_6  and  C6_7 
REMARK    5  A    between atoms: C6_7  and  C7_8 
REMARK    6  A    between atoms: C7_8  and  N1_9 
REMARK    7  A    between atoms: C10_15  and  C11_16 
REMARK    8  A    between atoms: C11_16  and  N4_17 
REMARK    9  A    between atoms: N4_17  and  C12_18 
ROOT
HETATM    1  C2  UNL     1      23.738   3.033  50.664  1.00  0.00     0.065 C 
HETATM    2  C10 UNL     1      22.888   2.039  50.480  1.00  0.00     0.029 C 
ENDROOT
BRANCH   1   3
HETATM    3  O1  UNL     1      23.006   4.186  50.890  1.00  0.00    -0.356 OA
HETATM    4  C1  UNL     1      23.402   5.052  51.947  1.00  0.00     0.210 C 
ENDBRANCH   1   3
BRANCH   1   5
HETATM    5  C3  UNL     1      25.174   2.831  50.616  1.00  0.00     0.032 C 
HETATM    6  C4  UNL     1      25.945   2.409  51.591  1.00  0.00    -0.024 C 
BRANCH   6   7
HETATM    7  C5  UNL     1      25.773   1.995  53.002  1.00  0.00     0.034 C 
BRANCH   7   8
HETATM    8  C6  UNL     1      25.819   0.489  53.163  1.00  0.00     0.102 C 
BRANCH   8   9
HETATM    9  C7  UNL     1      26.871   0.044  54.165  1.00  0.00     0.362 A 
HETATM   10  N2  UNL     1      27.591  -1.051  53.586  1.00  0.00    -0.216 NA
HETATM   11  C8  UNL     1      28.849  -1.125  53.406  1.00  0.00     0.234 A 
HETATM   12  N3  UNL     1      29.689  -0.024  53.805  1.00  0.00    -0.231 NA
HETATM   13  C9  UNL     1      29.082   0.996  54.336  1.00  0.00     0.257 A 
HETATM   14  O2  UNL     1      27.725   1.081  54.532  1.00  0.00    -0.286 OA
BRANCH   9  15
HETATM   15  N1  UNL     1      26.240  -0.469  55.374  1.00  0.00     0.137 N 
HETATM   16  H10 UNL     1      25.621  -1.275  55.132  1.00  0.00     0.319 HD
HETATM   17  H11 UNL     1      26.991  -0.746  56.044  1.00  0.00     0.319 HD
ENDBRANCH   9  15
ENDBRANCH   8   9
ENDBRANCH   7   8
ENDBRANCH   6   7
ENDBRANCH   1   5
BRANCH   2  18
HETATM   18  C11 UNL     1      21.418   2.224  50.526  1.00  0.00     0.150 C 
BRANCH  18  19
HETATM   19  N4  UNL     1      20.951   2.256  51.900  1.00  0.00    -0.386 N 
HETATM   20  H17 UNL     1      20.654   3.149  52.389  1.00  0.00     0.160 HD
BRANCH  19  21
HETATM   21  C12 UNL     1      20.869   1.049  52.680  1.00  0.00     0.029 A 
HETATM   22  C13 UNL     1      21.916   0.589  53.434  1.00  0.00     0.029 A 
HETATM   23  C14 UNL     1      21.855  -0.568  54.190  1.00  0.00     0.004 A 
HETATM   24  C15 UNL     1      20.675  -1.293  54.182  1.00  0.00     0.019 A 
HETATM   25  C16 UNL     1      19.612  -0.841  53.427  1.00  0.00     0.013 A 
HETATM   26 BR1  UNL     1      17.966  -1.831  53.401  1.00  0.00    -0.051 Br
HETATM   27  C17 UNL     1      19.697   0.321  52.678  1.00  0.00     0.048 A 
ENDBRANCH  19  21
ENDBRANCH  18  19
ENDBRANCH   2  18
TORSDOF 9
ENDMDL
MODEL 4
REMARK VINA RESULT:      -7.5      1.068      1.156
REMARK  9 active torsions:
REMARK  status: ('A' for Active; 'I' for Inactive)
REMARK    1  A    between atoms: O1_2  and  C2_3 
REMARK    2  A    between atoms: C2_3  and  C3_4 
REMARK    3  A    between atoms: C4_5  and  C5_6 
REMARK    4  A    between atoms: C5_6  and  C6_7 
REMARK    5  A    between atoms: C6_7  and  C7_8 
REMARK    6  A    between atoms: C7_8  and  N1_9 
REMARK    7  A    between atoms: C10_15  and  C11_16 
REMARK    8  A    between atoms: C11_16  and  N4_17 
REMARK    9  A    between atoms: N4_17  and  C12_18 
ROOT
HETATM    1  C2  UNL     1      26.438   5.503  49.215  1.00  0.00     0.065 C 
HETATM    2  C10 UNL     1      26.771   4.227  49.138  1.00  0.00     0.029 C 
ENDROOT
BRANCH   1   3
HETATM    3  O1  UNL     1      25.488   5.637  50.213  1.00  0.00    -0.356 OA
HETATM    4  C1  UNL     1      25.023   6.941  50.543  1.00  0.00     0.210 C 
ENDBRANCH   1   3
BRANCH   1   5
HETATM    5  C3  UNL     1      27.034   6.503  48.349  1.00  0.00     0.032 C 
HETATM    6  C4  UNL     1      28.288   6.567  47.964  1.00  0.00    -0.024 C 
BRANCH   6   7
HETATM    7  C5  UNL     1      29.526   5.785  48.181  1.00  0.00     0.034 C 
BRANCH   7   8
HETATM    8  C6  UNL     1      30.722   6.674  48.454  1.00  0.00     0.102 C 
BRANCH   8   9
HETATM    9  C7  UNL     1      31.873   5.918  49.097  1.00  0.00     0.362 A 
HETATM   10  N2  UNL     1      31.957   4.633  48.471  1.00  0.00    -0.216 NA
HETATM   11  C8  UNL     1      32.975   4.133  47.892  1.00  0.00     0.234 A 
HETATM   12  N3  UNL     1      34.198   4.891  47.827  1.00  0.00    -0.231 NA
HETATM   13  C9  UNL     1      34.172   6.067  48.381  1.00  0.00     0.257 A 
HETATM   14  O2  UNL     1      33.077   6.612  49.007  1.00  0.00    -0.286 OA
BRANCH   9  15
HETATM   15  N1  UNL     1      31.598   5.675  50.507  1.00  0.00     0.137 N 
HETATM   16  H10 UNL     1      31.881   4.701  50.758  1.00  0.00     0.319 HD
HETATM   17  H11 UNL     1      32.116   6.385  51.069  1.00  0.00     0.319 HD
ENDBRANCH   9  15
ENDBRANCH   8   9
ENDBRANCH   7   8
ENDBRANCH   6   7
ENDBRANCH   1   5
BRANCH   2  18
HETATM   18  C11 UNL     1      26.174   3.190  50.012  1.00  0.00     0.150 C 
BRANCH  18  19
HETATM   19  N4  UNL     1      26.842   3.165  51.301  1.00  0.00    -0.386 N 
HETATM   20  H17 UNL     1      27.469   3.949  51.643  1.00  0.00     0.160 HD
BRANCH  19  21
HETATM   21  C12 UNL     1      26.679   2.048  52.195  1.00  0.00     0.029 A 
HETATM   22  C13 UNL     1      27.723   1.522  52.910  1.00  0.00     0.029 A 
HETATM   23  C14 UNL     1      27.587   0.450  53.773  1.00  0.00     0.004 A 
HETATM   24  C15 UNL     1      26.331  -0.116  53.920  1.00  0.00     0.019 A 
HETATM   25  C16 UNL     1      25.271   0.404  53.207  1.00  0.00     0.013 A 
HETATM   26 BR1  UNL     1      23.520  -0.365  53.395  1.00  0.00    -0.051 Br
HETATM   27  C17 UNL     1      25.432   1.478  52.348  1.00  0.00     0.048 A 
ENDBRANCH  19  21
ENDBRANCH  18  19
ENDBRANCH   2  18
TORSDOF 9
ENDMDL
MODEL 5
REMARK VINA RESULT:      -7.4      5.083      7.007
REMARK  9 active torsions:
REMARK  status: ('A' for Active; 'I' for Inactive)
REMARK    1  A    between atoms: O1_2  and  C2_3 
REMARK    2  A    between atoms: C2_3  and  C3_4 
REMARK    3  A    between atoms: C4_5  and  C5_6 
REMARK    4  A    between atoms: C5_6  and  C6_7 
REMARK    5  A    between atoms: C6_7  and  C7_8 
REMARK    6  A    between atoms: C7_8  and  N1_9 
REMARK    7  A    between atoms: C10_15  and  C11_16 
REMARK    8  A    between atoms: C11_16  and  N4_17 
REMARK    9  A    between atoms: N4_17  and  C12_18 
ROOT
HETATM    1  C2  UNL     1      24.022   3.607  50.302  1.00  0.00     0.065 C 
HETATM    2  C10 UNL     1      23.307   2.503  50.181  1.00  0.00     0.029 C 
ENDROOT
BRANCH   1   3
HETATM    3  O1  UNL     1      23.195   4.600  50.801  1.00  0.00    -0.356 OA
HETATM    4  C1  UNL     1      23.708   5.485  51.790  1.00  0.00     0.210 C 
ENDBRANCH   1   3
BRANCH   1   5
HETATM    5  C3  UNL     1      25.426   3.653  49.943  1.00  0.00     0.032 C 
HETATM    6  C4  UNL     1      26.397   2.934  50.459  1.00  0.00    -0.024 C 
BRANCH   6   7
HETATM    7  C5  UNL     1      26.531   1.887  51.496  1.00  0.00     0.034 C 
BRANCH   7   8
HETATM    8  C6  UNL     1      27.606   2.223  52.509  1.00  0.00     0.102 C 
BRANCH   8   9
HETATM    9  C7  UNL     1      27.970   1.036  53.386  1.00  0.00     0.362 A 
HETATM   10  N2  UNL     1      27.128   1.072  54.544  1.00  0.00    -0.216 NA
HETATM   11  C8  UNL     1      26.356   0.147  54.954  1.00  0.00     0.234 A 
HETATM   12  N3  UNL     1      26.276  -1.089  54.218  1.00  0.00    -0.231 NA
HETATM   13  C9  UNL     1      27.022  -1.172  53.156  1.00  0.00     0.257 A 
HETATM   14  O2  UNL     1      27.858  -0.176  52.709  1.00  0.00    -0.286 OA
BRANCH   9  15
HETATM   15  N1  UNL     1      29.340   1.158  53.866  1.00  0.00     0.137 N 
HETATM   16  H10 UNL     1      29.889   1.762  53.214  1.00  0.00     0.319 HD
HETATM   17  H11 UNL     1      29.315   1.554  54.831  1.00  0.00     0.319 HD
ENDBRANCH   9  15
ENDBRANCH   8   9
ENDBRANCH   7   8
ENDBRANCH   6   7
ENDBRANCH   1   5
BRANCH   2  18
HETATM   18  C11 UNL     1      21.871   2.436  50.542  1.00  0.00     0.150 C 
BRANCH  18  19
HETATM   19  N4  UNL     1      21.709   2.431  51.985  1.00  0.00    -0.386 N 
HETATM   20  H17 UNL     1      21.736   3.313  52.573  1.00  0.00     0.160 HD
BRANCH  19  21
HETATM   21  C12 UNL     1      21.499   1.199  52.700  1.00  0.00     0.029 A 
HETATM   22  C13 UNL     1      22.503   0.570  53.389  1.00  0.00     0.029 A 
HETATM   23  C14 UNL     1      22.321  -0.613  54.082  1.00  0.00     0.004 A 
HETATM   24  C15 UNL     1      21.059  -1.186  54.077  1.00  0.00     0.019 A 
HETATM   25  C16 UNL     1      20.039  -0.563  53.388  1.00  0.00     0.013 A 
HETATM   26 BR1  UNL     1      18.282  -1.340  53.369  1.00  0.00    -0.051 Br
HETATM   27  C17 UNL     1      20.246   0.621  52.701  1.00  0.00     0.048 A 
ENDBRANCH  19  21
ENDBRANCH  18  19
ENDBRANCH   2  18
TORSDOF 9
ENDMDL
MODEL 6
REMARK VINA RESULT:      -7.4      4.722      7.600
REMARK  9 active torsions:
REMARK  status: ('A' for Active; 'I' for Inactive)
REMARK    1  A    between atoms: O1_2  and  C2_3 
REMARK    2  A    between atoms: C2_3  and  C3_4 
REMARK    3  A    between atoms: C4_5  and  C5_6 
REMARK    4  A    between atoms: C5_6  and  C6_7 
REMARK    5  A    between atoms: C6_7  and  C7_8 
REMARK    6  A    between atoms: C7_8  and  N1_9 
REMARK    7  A    between atoms: C10_15  and  C11_16 
REMARK    8  A    between atoms: C11_16  and  N4_17 
REMARK    9  A    between atoms: N4_17  and  C12_18 
ROOT
HETATM    1  C2  UNL     1      22.958   2.596  50.869  1.00  0.00     0.065 C 
HETATM    2  C10 UNL     1      23.728   2.693  49.800  1.00  0.00     0.029 C 
ENDROOT
BRANCH   1   3
HETATM    3  O1  UNL     1      22.511   3.867  51.191  1.00  0.00    -0.356 OA
HETATM    4  C1  UNL     1      21.440   4.001  52.117  1.00  0.00     0.210 C 
ENDBRANCH   1   3
BRANCH   1   5
HETATM    5  C3  UNL     1      22.694   1.322  51.509  1.00  0.00     0.032 C 
HETATM    6  C4  UNL     1      23.400   0.756  52.461  1.00  0.00    -0.024 C 
BRANCH   6   7
HETATM    7  C5  UNL     1      24.620   1.076  53.237  1.00  0.00     0.034 C 
BRANCH   7   8
HETATM    8  C6  UNL     1      25.784   0.182  52.861  1.00  0.00     0.102 C 
BRANCH   8   9
HETATM    9  C7  UNL     1      26.805   0.056  53.979  1.00  0.00     0.362 A 
HETATM   10  N2  UNL     1      27.706  -1.002  53.633  1.00  0.00    -0.216 NA
HETATM   11  C8  UNL     1      28.973  -0.923  53.537  1.00  0.00     0.234 A 
HETATM   12  N3  UNL     1      29.627   0.335  53.791  1.00  0.00    -0.231 NA
HETATM   13  C9  UNL     1      28.851   1.329  54.109  1.00  0.00     0.257 A 
HETATM   14  O2  UNL     1      27.483   1.250  54.213  1.00  0.00    -0.286 OA
BRANCH   9  15
HETATM   15  N1  UNL     1      26.155  -0.342  55.221  1.00  0.00     0.137 N 
HETATM   16  H10 UNL     1      25.126  -0.434  55.065  1.00  0.00     0.319 HD
HETATM   17  H11 UNL     1      26.579  -1.242  55.539  1.00  0.00     0.319 HD
ENDBRANCH   9  15
ENDBRANCH   8   9
ENDBRANCH   7   8
ENDBRANCH   6   7
ENDBRANCH   1   5
BRANCH   2  18
HETATM   18  C11 UNL     1      24.010   3.985  49.131  1.00  0.00     0.150 C 
BRANCH  18  19
HETATM   19  N4  UNL     1      25.005   4.737  49.874  1.00  0.00    -0.386 N 
HETATM   20  H17 UNL     1      24.955   4.882  50.923  1.00  0.00     0.160 HD
BRANCH  19  21
HETATM   21  C12 UNL     1      26.132   5.332  49.205  1.00  0.00     0.029 A 
HETATM   22  C13 UNL     1      27.306   4.656  49.000  1.00  0.00     0.029 A 
HETATM   23  C14 UNL     1      28.398   5.211  48.359  1.00  0.00     0.004 A 
HETATM   24  C15 UNL     1      28.296   6.515  47.902  1.00  0.00     0.019 A 
HETATM   25  C16 UNL     1      27.120   7.208  48.101  1.00  0.00     0.013 A 
HETATM   26 BR1  UNL     1      26.956   9.016  47.475  1.00  0.00    -0.051 Br
HETATM   27  C17 UNL     1      26.039   6.630  48.746  1.00  0.00     0.048 A 
ENDBRANCH  19  21
ENDBRANCH  18  19
ENDBRANCH   2  18
TORSDOF 9
ENDMDL
MODEL 7
REMARK VINA RESULT:      -7.3      4.859      7.379
REMARK  9 active torsions:
REMARK  status: ('A' for Active; 'I' for Inactive)
REMARK    1  A    between atoms: O1_2  and  C2_3 
REMARK    2  A    between atoms: C2_3  and  C3_4 
REMARK    3  A    between atoms: C4_5  and  C5_6 
REMARK    4  A    between atoms: C5_6  and  C6_7 
REMARK    5  A    between atoms: C6_7  and  C7_8 
REMARK    6  A    between atoms: C7_8  and  N1_9 
REMARK    7  A    between atoms: C10_15  and  C11_16 
REMARK    8  A    between atoms: C11_16  and  N4_17 
REMARK    9  A    between atoms: N4_17  and  C12_18 
ROOT
HETATM    1  C2  UNL     1      21.698   2.442  51.630  1.00  0.00     0.065 C 
HETATM    2  C10 UNL     1      22.243   3.645  51.639  1.00  0.00     0.029 C 
ENDROOT
BRANCH   1   3
HETATM    3  O1  UNL     1      21.004   2.294  50.441  1.00  0.00    -0.356 OA
HETATM    4  C1  UNL     1      21.052   1.039  49.772  1.00  0.00     0.210 C 
ENDBRANCH   1   3
BRANCH   1   5
HETATM    5  C3  UNL     1      21.867   1.518  52.736  1.00  0.00     0.032 C 
HETATM    6  C4  UNL     1      22.952   0.844  53.042  1.00  0.00    -0.024 C 
BRANCH   6   7
HETATM    7  C5  UNL     1      24.325   0.705  52.506  1.00  0.00     0.034 C 
BRANCH   7   8
HETATM    8  C6  UNL     1      25.349   1.406  53.375  1.00  0.00     0.102 C 
BRANCH   8   9
HETATM    9  C7  UNL     1      26.766   0.926  53.105  1.00  0.00     0.362 A 
HETATM   10  N2  UNL     1      27.599   2.082  52.961  1.00  0.00    -0.216 NA
HETATM   11  C8  UNL     1      28.648   2.353  53.629  1.00  0.00     0.234 A 
HETATM   12  N3  UNL     1      29.094   1.440  54.651  1.00  0.00    -0.231 NA
HETATM   13  C9  UNL     1      28.369   0.374  54.822  1.00  0.00     0.257 A 
HETATM   14  O2  UNL     1      27.236   0.077  54.104  1.00  0.00    -0.286 OA
BRANCH   9  15
HETATM   15  N1  UNL     1      26.828   0.209  51.838  1.00  0.00     0.137 N 
HETATM   16  H10 UNL     1      27.809   0.215  51.479  1.00  0.00     0.319 HD
HETATM   17  H11 UNL     1      26.479  -0.762  51.994  1.00  0.00     0.319 HD
ENDBRANCH   9  15
ENDBRANCH   8   9
ENDBRANCH   7   8
ENDBRANCH   6   7
ENDBRANCH   1   5
BRANCH   2  18
HETATM   18  C11 UNL     1      22.082   4.604  50.520  1.00  0.00     0.150 C 
BRANCH  18  19
HETATM   19  N4  UNL     1      22.823   4.156  49.355  1.00  0.00    -0.386 N 
HETATM   20  H17 UNL     1      22.355   3.773  48.484  1.00  0.00     0.160 HD
BRANCH  19  21
HETATM   21  C12 UNL     1      24.262   4.212  49.328  1.00  0.00     0.029 A 
HETATM   22  C13 UNL     1      25.045   3.157  49.720  1.00  0.00     0.029 A 
HETATM   23  C14 UNL     1      26.427   3.192  49.701  1.00  0.00     0.004 A 
HETATM   24  C15 UNL     1      27.047   4.351  49.263  1.00  0.00     0.019 A 
HETATM   25  C16 UNL     1      26.270   5.421  48.866  1.00  0.00     0.013 A 
HETATM   26 BR1  UNL     1      27.108   7.038  48.256  1.00  0.00    -0.051 Br
HETATM   27  C17 UNL     1      24.887   5.362  48.894  1.00  0.00     0.048 A 
ENDBRANCH  19  21
ENDBRANCH  18  19
ENDBRANCH   2  18
TORSDOF 9
ENDMDL
MODEL 8
REMARK VINA RESULT:      -7.3      4.178      7.510
REMARK  9 active torsions:
REMARK  status: ('A' for Active; 'I' for Inactive)
REMARK    1  A    between atoms: O1_2  and  C2_3 
REMARK    2  A    between atoms: C2_3  and  C3_4 
REMARK    3  A    between atoms: C4_5  and  C5_6 
REMARK    4  A    between atoms: C5_6  and  C6_7 
REMARK    5  A    between atoms: C6_7  and  C7_8 
REMARK    6  A    between atoms: C7_8  and  N1_9 
REMARK    7  A    between atoms: C10_15  and  C11_16 
REMARK    8  A    between atoms: C11_16  and  N4_17 
REMARK    9  A    between atoms: N4_17  and  C12_18 
ROOT
HETATM    1  C2  UNL     1      23.641   3.180  50.713  1.00  0.00     0.065 C 
HETATM    2  C10 UNL     1      24.440   3.284  49.666  1.00  0.00     0.029 C 
ENDROOT
BRANCH   1   3
HETATM    3  O1  UNL     1      23.359   4.458  51.165  1.00  0.00    -0.356 OA
HETATM    4  C1  UNL     1      23.399   4.714  52.564  1.00  0.00     0.210 C 
ENDBRANCH   1   3
BRANCH   1   5
HETATM    5  C3  UNL     1      23.199   1.892  51.214  1.00  0.00     0.032 C 
HETATM    6  C4  UNL     1      23.758   1.181  52.165  1.00  0.00    -0.024 C 
BRANCH   6   7
HETATM    7  C5  UNL     1      24.930   1.307  53.061  1.00  0.00     0.034 C 
BRANCH   7   8
HETATM    8  C6  UNL     1      26.077   0.416  52.629  1.00  0.00     0.102 C 
BRANCH   8   9
HETATM    9  C7  UNL     1      26.903  -0.078  53.805  1.00  0.00     0.362 A 
HETATM   10  N2  UNL     1      27.727  -1.153  53.339  1.00  0.00    -0.216 NA
HETATM   11  C8  UNL     1      28.996  -1.229  53.416  1.00  0.00     0.234 A 
HETATM   12  N3  UNL     1      29.736  -0.152  54.024  1.00  0.00    -0.231 NA
HETATM   13  C9  UNL     1      29.032   0.850  54.462  1.00  0.00     0.257 A 
HETATM   14  O2  UNL     1      27.663   0.937  54.382  1.00  0.00    -0.286 OA
BRANCH   9  15
HETATM   15  N1  UNL     1      26.039  -0.636  54.837  1.00  0.00     0.137 N 
HETATM   16  H10 UNL     1      25.120  -0.140  54.832  1.00  0.00     0.319 HD
HETATM   17  H11 UNL     1      25.928  -1.658  54.654  1.00  0.00     0.319 HD
ENDBRANCH   9  15
ENDBRANCH   8   9
ENDBRANCH   7   8
ENDBRANCH   6   7
ENDBRANCH   1   5
BRANCH   2  18
HETATM   18  C11 UNL     1      24.902   4.590  49.139  1.00  0.00     0.150 C 
BRANCH  18  19
HETATM   19  N4  UNL     1      26.269   4.851  49.555  1.00  0.00    -0.386 N 
HETATM   20  H17 UNL     1      26.687   4.456  50.446  1.00  0.00     0.160 HD
BRANCH  19  21
HETATM   21  C12 UNL     1      27.138   5.677  48.758  1.00  0.00     0.029 A 
HETATM   22  C13 UNL     1      26.707   6.830  48.158  1.00  0.00     0.029 A 
HETATM   23  C14 UNL     1      27.527   7.637  47.389  1.00  0.00     0.004 A 
HETATM   24  C15 UNL     1      28.848   7.256  47.222  1.00  0.00     0.019 A 
HETATM   25  C16 UNL     1      29.296   6.097  47.821  1.00  0.00     0.013 A 
HETATM   26 BR1  UNL     1      31.124   5.549  47.603  1.00  0.00    -0.051 Br
HETATM   27  C17 UNL     1      28.455   5.305  48.587  1.00  0.00     0.048 A 
ENDBRANCH  19  21
ENDBRANCH  18  19
ENDBRANCH   2  18
TORSDOF 9
ENDMDL
MODEL 9
REMARK VINA RESULT:      -7.0      7.247      9.610
REMARK  9 active torsions:
REMARK  status: ('A' for Active; 'I' for Inactive)
REMARK    1  A    between atoms: O1_2  and  C2_3 
REMARK    2  A    between atoms: C2_3  and  C3_4 
REMARK    3  A    between atoms: C4_5  and  C5_6 
REMARK    4  A    between atoms: C5_6  and  C6_7 
REMARK    5  A    between atoms: C6_7  and  C7_8 
REMARK    6  A    between atoms: C7_8  and  N1_9 
REMARK    7  A    between atoms: C10_15  and  C11_16 
REMARK    8  A    between atoms: C11_16  and  N4_17 
REMARK    9  A    between atoms: N4_17  and  C12_18 
ROOT
HETATM    1  C2  UNL     1      21.475   1.436  52.158  1.00  0.00     0.065 C 
HETATM    2  C10 UNL     1      20.827   0.306  52.379  1.00  0.00     0.029 C 
ENDROOT
BRANCH   1   3
HETATM    3  O1  UNL     1      20.719   2.472  52.681  1.00  0.00    -0.356 OA
HETATM    4  C1  UNL     1      20.664   3.704  51.972  1.00  0.00     0.210 C 
ENDBRANCH   1   3
BRANCH   1   5
HETATM    5  C3  UNL     1      22.755   1.463  51.475  1.00  0.00     0.032 C 
HETATM    6  C4  UNL     1      23.890   0.963  51.905  1.00  0.00    -0.024 C 
BRANCH   6   7
HETATM    7  C5  UNL     1      24.365   0.238  53.106  1.00  0.00     0.034 C 
BRANCH   7   8
HETATM    8  C6  UNL     1      25.488   0.973  53.808  1.00  0.00     0.102 C 
BRANCH   8   9
HETATM    9  C7  UNL     1      26.459   0.028  54.498  1.00  0.00     0.362 A 
HETATM   10  N2  UNL     1      26.901  -0.930  53.529  1.00  0.00    -0.216 NA
HETATM   11  C8  UNL     1      28.104  -1.180  53.199  1.00  0.00     0.234 A 
HETATM   12  N3  UNL     1      29.178  -0.456  53.830  1.00  0.00    -0.231 NA
HETATM   13  C9  UNL     1      28.828   0.428  54.718  1.00  0.00     0.257 A 
HETATM   14  O2  UNL     1      27.531   0.702  55.078  1.00  0.00    -0.286 OA
BRANCH   9  15
HETATM   15  N1  UNL     1      25.780  -0.724  55.545  1.00  0.00     0.137 N 
HETATM   16  H10 UNL     1      24.867  -1.083  55.185  1.00  0.00     0.319 HD
HETATM   17  H11 UNL     1      26.408  -1.501  55.849  1.00  0.00     0.319 HD
ENDBRANCH   9  15
ENDBRANCH   8   9
ENDBRANCH   7   8
ENDBRANCH   6   7
ENDBRANCH   1   5
BRANCH   2  18
HETATM   18  C11 UNL     1      19.519   0.257  53.075  1.00  0.00     0.150 C 
BRANCH  18  19
HETATM   19  N4  UNL     1      19.294  -1.060  53.642  1.00  0.00    -0.386 N 
HETATM   20  H17 UNL     1      19.982  -1.534  54.295  1.00  0.00     0.160 HD
BRANCH  19  21
HETATM   21  C12 UNL     1      18.097  -1.800  53.337  1.00  0.00     0.029 A 
HETATM   22  C13 UNL     1      17.892  -3.080  53.782  1.00  0.00     0.029 A 
HETATM   23  C14 UNL     1      16.750  -3.806  53.500  1.00  0.00     0.004 A 
HETATM   24  C15 UNL     1      15.766  -3.206  52.730  1.00  0.00     0.019 A 
HETATM   25  C16 UNL     1      15.959  -1.918  52.276  1.00  0.00     0.013 A 
HETATM   26 BR1  UNL     1      14.609  -1.066  51.208  1.00  0.00    -0.051 Br
HETATM   27  C17 UNL     1      17.112  -1.210  52.572  1.00  0.00     0.048 A 
ENDBRANCH  19  21
ENDBRANCH  18  19
ENDBRANCH   2  18
TORSDOF 9
ENDMDL
