MODEL 1
REMARK VINA RESULT:      -8.3      0.000      0.000
REMARK  3 active torsions:
REMARK  status: ('A' for Active; 'I' for Inactive)
REMARK    1  A    between atoms: C2_2  and  N1_4 
REMARK    2  A    between atoms: C4_6  and  C5_7 
REMARK    3  A    between atoms: C9_11  and  O1_12 
ROOT
HETATM    1  N1  UNL     1      22.331   1.065  51.579  1.00  0.00    -0.245 N 
HETATM    2  N2  UNL     1      23.610   1.405  51.593  1.00  0.00    -0.167 NA
HETATM    3  C4  UNL     1      24.225   0.813  52.641  1.00  0.00     0.120 A 
HETATM    4  C13 UNL     1      23.265   0.071  53.299  1.00  0.00     0.131 A 
HETATM    5  C14 UNL     1      22.085   0.247  52.612  1.00  0.00     0.178 A 
HETATM    6  N3  UNL     1      20.943  -0.234  52.843  1.00  0.00    -0.221 NA
HETATM    7  C15 UNL     1      20.483  -1.106  53.868  1.00  0.00     0.231 A 
HETATM    8  N4  UNL     1      21.234  -1.577  54.799  1.00  0.00    -0.261 NA
HETATM    9  C16 UNL     1      22.603  -1.465  55.164  1.00  0.00     0.299 A 
HETATM   10  N5  UNL     1      23.428  -0.645  54.345  1.00  0.00    -0.262 NA
ENDROOT
BRANCH   3  11
HETATM   11  C5  UNL     1      25.631   0.921  53.023  1.00  0.00     0.009 A 
HETATM   12  C6  UNL     1      26.407   1.922  53.471  1.00  0.00     0.027 A 
HETATM   13  C7  UNL     1      27.544   0.997  53.525  1.00  0.00    -0.021 A 
HETATM   14  C8  UNL     1      28.882   0.684  53.784  1.00  0.00     0.048 A 
HETATM   15  C12 UNL     1      26.743  -0.021  53.068  1.00  0.00    -0.013 A 
HETATM   16  C9  UNL     1      29.306  -0.612  53.567  1.00  0.00     0.066 A 
HETATM   17  C10 UNL     1      28.501  -1.634  53.108  1.00  0.00     0.037 A 
HETATM   18  C11 UNL     1      27.176  -1.313  52.853  1.00  0.00     0.016 A 
BRANCH  16  19
HETATM   19  O1  UNL     1      30.655  -0.908  53.833  1.00  0.00    -0.361 OA
HETATM   20  H10 UNL     1      31.039  -1.735  53.396  1.00  0.00     0.217 HD
ENDBRANCH  16  19
ENDBRANCH   3  11
BRANCH   1  21
HETATM   21  C2  UNL     1      21.392   1.498  50.627  1.00  0.00     0.104 C 
HETATM   22  C1  UNL     1      21.562   3.009  50.506  1.00  0.00     0.034 C 
HETATM   23  C3  UNL     1      21.431   0.923  49.280  1.00  0.00     0.034 C 
ENDBRANCH   1  21
TORSDOF 3
ENDMDL
MODEL 2
REMARK VINA RESULT:      -8.2      3.526      6.296
REMARK  3 active torsions:
REMARK  status: ('A' for Active; 'I' for Inactive)
REMARK    1  A    between atoms: C2_2  and  N1_4 
REMARK    2  A    between atoms: C4_6  and  C5_7 
REMARK    3  A    between atoms: C9_11  and  O1_12 
ROOT
HETATM    1  N1  UNL     1      25.722   2.557  51.733  1.00  0.00    -0.245 N 
HETATM    2  N2  UNL     1      24.543   1.974  51.883  1.00  0.00    -0.167 NA
HETATM    3  C4  UNL     1      24.610   1.066  52.881  1.00  0.00     0.120 A 
HETATM    4  C13 UNL     1      25.903   1.101  53.364  1.00  0.00     0.131 A 
HETATM    5  C14 UNL     1      26.580   2.045  52.626  1.00  0.00     0.178 A 
HETATM    6  N3  UNL     1      27.781   2.419  52.710  1.00  0.00    -0.221 NA
HETATM    7  C15 UNL     1      28.832   2.008  53.573  1.00  0.00     0.231 A 
HETATM    8  N4  UNL     1      28.703   1.109  54.483  1.00  0.00    -0.261 NA
HETATM    9  C16 UNL     1      27.654   0.273  54.954  1.00  0.00     0.299 A 
HETATM   10  N5  UNL     1      26.390   0.397  54.314  1.00  0.00    -0.262 NA
ENDROOT
BRANCH   3  11
HETATM   11  C5  UNL     1      23.538   0.203  53.372  1.00  0.00     0.009 A 
HETATM   12  C6  UNL     1      23.490  -0.856  54.197  1.00  0.00     0.027 A 
HETATM   13  C7  UNL     1      22.038  -0.926  53.998  1.00  0.00    -0.021 A 
HETATM   14  C8  UNL     1      20.777  -1.488  54.220  1.00  0.00     0.048 A 
HETATM   15  C12 UNL     1      22.096   0.158  53.156  1.00  0.00    -0.013 A 
HETATM   16  C9  UNL     1      19.687  -0.925  53.588  1.00  0.00     0.066 A 
HETATM   17  C10 UNL     1      19.746   0.164  52.742  1.00  0.00     0.037 A 
HETATM   18  C11 UNL     1      21.001   0.715  52.528  1.00  0.00     0.016 A 
BRANCH  16  19
HETATM   19  O1  UNL     1      18.427  -1.505  53.823  1.00  0.00    -0.361 OA
HETATM   20  H10 UNL     1      18.057  -1.437  54.761  1.00  0.00     0.217 HD
ENDBRANCH  16  19
ENDBRANCH   3  11
BRANCH   1  21
HETATM   21  C2  UNL     1      26.013   3.554  50.786  1.00  0.00     0.104 C 
HETATM   22  C1  UNL     1      26.440   2.831  49.512  1.00  0.00     0.034 C 
HETATM   23  C3  UNL     1      24.974   4.525  50.435  1.00  0.00     0.034 C 
ENDBRANCH   1  21
TORSDOF 3
ENDMDL
MODEL 3
REMARK VINA RESULT:      -8.1      3.324      6.874
REMARK  3 active torsions:
REMARK  status: ('A' for Active; 'I' for Inactive)
REMARK    1  A    between atoms: C2_2  and  N1_4 
REMARK    2  A    between atoms: C4_6  and  C5_7 
REMARK    3  A    between atoms: C9_11  and  O1_12 
ROOT
HETATM    1  N1  UNL     1      26.861   0.207  53.174  1.00  0.00    -0.245 N 
HETATM    2  N2  UNL     1      25.865  -0.457  53.740  1.00  0.00    -0.167 NA
HETATM    3  C4  UNL     1      24.685   0.042  53.309  1.00  0.00     0.120 A 
HETATM    4  C13 UNL     1      24.983   1.067  52.433  1.00  0.00     0.131 A 
HETATM    5  C14 UNL     1      26.355   1.149  52.366  1.00  0.00     0.178 A 
HETATM    6  N3  UNL     1      27.079   1.933  51.697  1.00  0.00    -0.221 NA
HETATM    7  C15 UNL     1      26.744   2.982  50.797  1.00  0.00     0.231 A 
HETATM    8  N4  UNL     1      25.539   3.318  50.506  1.00  0.00    -0.261 NA
HETATM    9  C16 UNL     1      24.237   2.883  50.876  1.00  0.00     0.299 A 
HETATM   10  N5  UNL     1      24.152   1.804  51.799  1.00  0.00    -0.262 NA
ENDROOT
BRANCH   3  11
HETATM   11  C5  UNL     1      23.344  -0.399  53.684  1.00  0.00     0.009 A 
HETATM   12  C6  UNL     1      22.840  -1.098  54.714  1.00  0.00     0.027 A 
HETATM   13  C7  UNL     1      21.500  -0.964  54.131  1.00  0.00    -0.021 A 
HETATM   14  C8  UNL     1      20.119  -1.182  54.123  1.00  0.00     0.048 A 
HETATM   15  C12 UNL     1      22.024  -0.249  53.081  1.00  0.00    -0.013 A 
HETATM   16  C9  UNL     1      19.380  -0.670  53.075  1.00  0.00     0.066 A 
HETATM   17  C10 UNL     1      19.907   0.048  52.021  1.00  0.00     0.037 A 
HETATM   18  C11 UNL     1      21.278   0.258  52.038  1.00  0.00     0.016 A 
BRANCH  16  19
HETATM   19  O1  UNL     1      17.993  -0.900  53.084  1.00  0.00    -0.361 OA
HETATM   20  H10 UNL     1      17.607  -1.355  53.900  1.00  0.00     0.217 HD
ENDBRANCH  16  19
ENDBRANCH   3  11
BRANCH   1  21
HETATM   21  C2  UNL     1      28.226  -0.047  53.394  1.00  0.00     0.104 C 
HETATM   22  C1  UNL     1      28.514   0.351  54.838  1.00  0.00     0.034 C 
HETATM   23  C3  UNL     1      28.738  -1.403  53.181  1.00  0.00     0.034 C 
ENDBRANCH   1  21
TORSDOF 3
ENDMDL
MODEL 4
REMARK VINA RESULT:      -7.8      3.147      6.156
REMARK  3 active torsions:
REMARK  status: ('A' for Active; 'I' for Inactive)
REMARK    1  A    between atoms: C2_2  and  N1_4 
REMARK    2  A    between atoms: C4_6  and  C5_7 
REMARK    3  A    between atoms: C9_11  and  O1_12 
ROOT
HETATM    1  N1  UNL     1      26.242   0.190  53.542  1.00  0.00    -0.245 N 
HETATM    2  N2  UNL     1      25.952   0.925  52.479  1.00  0.00    -0.167 NA
HETATM    3  C4  UNL     1      24.612   0.971  52.312  1.00  0.00     0.120 A 
HETATM    4  C13 UNL     1      24.057   0.222  53.330  1.00  0.00     0.131 A 
HETATM    5  C14 UNL     1      25.102  -0.256  54.088  1.00  0.00     0.178 A 
HETATM    6  N3  UNL     1      25.079  -0.984  55.117  1.00  0.00    -0.221 NA
HETATM    7  C15 UNL     1      23.994  -1.551  55.840  1.00  0.00     0.231 A 
HETATM    8  N4  UNL     1      22.759  -1.392  55.521  1.00  0.00    -0.261 NA
HETATM    9  C16 UNL     1      22.046  -0.710  54.498  1.00  0.00     0.299 A 
HETATM   10  N5  UNL     1      22.815   0.008  53.540  1.00  0.00    -0.262 NA
ENDROOT
BRANCH   3  11
HETATM   11  C5  UNL     1      23.871   1.670  51.264  1.00  0.00     0.009 A 
HETATM   12  C6  UNL     1      24.086   2.786  50.548  1.00  0.00     0.027 A 
HETATM   13  C7  UNL     1      22.815   2.565  49.849  1.00  0.00    -0.021 A 
HETATM   14  C8  UNL     1      21.834   2.907  48.914  1.00  0.00     0.048 A 
HETATM   15  C12 UNL     1      22.603   1.425  50.586  1.00  0.00    -0.013 A 
HETATM   16  C9  UNL     1      20.731   2.087  48.791  1.00  0.00     0.066 A 
HETATM   17  C10 UNL     1      20.518   0.942  49.531  1.00  0.00     0.037 A 
HETATM   18  C11 UNL     1      21.497   0.611  50.457  1.00  0.00     0.016 A 
BRANCH  16  19
HETATM   19  O1  UNL     1      19.754   2.447  47.845  1.00  0.00    -0.361 OA
HETATM   20  H10 UNL     1      20.076   2.671  46.913  1.00  0.00     0.217 HD
ENDBRANCH  16  19
ENDBRANCH   3  11
BRANCH   1  21
HETATM   21  C2  UNL     1      27.540  -0.070  54.012  1.00  0.00     0.104 C 
HETATM   22  C1  UNL     1      28.134  -1.126  53.085  1.00  0.00     0.034 C 
HETATM   23  C3  UNL     1      28.493   1.038  54.114  1.00  0.00     0.034 C 
ENDBRANCH   1  21
TORSDOF 3
ENDMDL
MODEL 5
REMARK VINA RESULT:      -7.8      3.278      5.456
REMARK  3 active torsions:
REMARK  status: ('A' for Active; 'I' for Inactive)
REMARK    1  A    between atoms: C2_2  and  N1_4 
REMARK    2  A    between atoms: C4_6  and  C5_7 
REMARK    3  A    between atoms: C9_11  and  O1_12 
ROOT
HETATM    1  N1  UNL     1      24.507   4.282  49.761  1.00  0.00    -0.245 N 
HETATM    2  N2  UNL     1      24.971   3.595  50.793  1.00  0.00    -0.167 NA
HETATM    3  C4  UNL     1      24.242   2.469  50.953  1.00  0.00     0.120 A 
HETATM    4  C13 UNL     1      23.280   2.473  49.962  1.00  0.00     0.131 A 
HETATM    5  C14 UNL     1      23.469   3.622  49.228  1.00  0.00     0.178 A 
HETATM    6  N3  UNL     1      22.831   4.048  48.228  1.00  0.00    -0.221 NA
HETATM    7  C15 UNL     1      21.720   3.507  47.524  1.00  0.00     0.231 A 
HETATM    8  N4  UNL     1      21.148   2.399  47.831  1.00  0.00    -0.261 NA
HETATM    9  C16 UNL     1      21.325   1.396  48.824  1.00  0.00     0.299 A 
HETATM   10  N5  UNL     1      22.383   1.586  49.756  1.00  0.00    -0.262 NA
ENDROOT
BRANCH   3  11
HETATM   11  C5  UNL     1      24.416   1.434  51.969  1.00  0.00     0.009 A 
HETATM   12  C6  UNL     1      25.470   0.741  52.431  1.00  0.00     0.027 A 
HETATM   13  C7  UNL     1      24.581   0.035  53.360  1.00  0.00    -0.021 A 
HETATM   14  C8  UNL     1      24.324  -0.896  54.371  1.00  0.00     0.048 A 
HETATM   15  C12 UNL     1      23.509   0.749  52.883  1.00  0.00    -0.013 A 
HETATM   16  C9  UNL     1      23.026  -1.035  54.819  1.00  0.00     0.066 A 
HETATM   17  C10 UNL     1      21.949  -0.318  54.339  1.00  0.00     0.037 A 
HETATM   18  C11 UNL     1      22.214   0.603  53.337  1.00  0.00     0.016 A 
BRANCH  16  19
HETATM   19  O1  UNL     1      22.786  -1.977  55.836  1.00  0.00    -0.361 OA
HETATM   20  H10 UNL     1      23.547  -2.168  56.474  1.00  0.00     0.217 HD
ENDBRANCH  16  19
ENDBRANCH   3  11
BRANCH   1  21
HETATM   21  C2  UNL     1      25.029   5.505  49.306  1.00  0.00     0.104 C 
HETATM   22  C1  UNL     1      24.850   6.503  50.446  1.00  0.00     0.034 C 
HETATM   23  C3  UNL     1      26.424   5.561  48.863  1.00  0.00     0.034 C 
ENDBRANCH   1  21
TORSDOF 3
ENDMDL
MODEL 6
REMARK VINA RESULT:      -7.7      3.214      5.913
REMARK  3 active torsions:
REMARK  status: ('A' for Active; 'I' for Inactive)
REMARK    1  A    between atoms: C2_2  and  N1_4 
REMARK    2  A    between atoms: C4_6  and  C5_7 
REMARK    3  A    between atoms: C9_11  and  O1_12 
ROOT
HETATM    1  N1  UNL     1      26.389   0.153  53.621  1.00  0.00    -0.245 N 
HETATM    2  N2  UNL     1      26.092   0.898  52.568  1.00  0.00    -0.167 NA
HETATM    3  C4  UNL     1      24.751   0.943  52.408  1.00  0.00     0.120 A 
HETATM    4  C13 UNL     1      24.204   0.182  53.422  1.00  0.00     0.131 A 
HETATM    5  C14 UNL     1      25.254  -0.302  54.169  1.00  0.00     0.178 A 
HETATM    6  N3  UNL     1      25.238  -1.040  55.191  1.00  0.00    -0.221 NA
HETATM    7  C15 UNL     1      24.159  -1.617  55.913  1.00  0.00     0.231 A 
HETATM    8  N4  UNL     1      22.922  -1.458  55.604  1.00  0.00    -0.261 NA
HETATM    9  C16 UNL     1      22.202  -0.766  54.592  1.00  0.00     0.299 A 
HETATM   10  N5  UNL     1      22.963  -0.037  53.637  1.00  0.00    -0.262 NA
ENDROOT
BRANCH   3  11
HETATM   11  C5  UNL     1      24.003   1.651  51.373  1.00  0.00     0.009 A 
HETATM   12  C6  UNL     1      22.801   1.476  50.799  1.00  0.00     0.027 A 
HETATM   13  C7  UNL     1      23.044   2.658  49.964  1.00  0.00    -0.021 A 
HETATM   14  C8  UNL     1      22.681   3.582  48.979  1.00  0.00     0.048 A 
HETATM   15  C12 UNL     1      24.272   2.829  50.556  1.00  0.00    -0.013 A 
HETATM   16  C9  UNL     1      23.567   4.594  48.671  1.00  0.00     0.066 A 
HETATM   17  C10 UNL     1      24.799   4.766  49.266  1.00  0.00     0.037 A 
HETATM   18  C11 UNL     1      25.151   3.845  50.241  1.00  0.00     0.016 A 
BRANCH  16  19
HETATM   19  O1  UNL     1      23.184   5.514  47.678  1.00  0.00    -0.361 OA
HETATM   20  H10 UNL     1      22.289   5.364  47.232  1.00  0.00     0.217 HD
ENDBRANCH  16  19
ENDBRANCH   3  11
BRANCH   1  21
HETATM   21  C2  UNL     1      27.691  -0.109  54.081  1.00  0.00     0.104 C 
HETATM   22  C1  UNL     1      28.293  -1.131  53.121  1.00  0.00     0.034 C 
HETATM   23  C3  UNL     1      28.634   1.004  54.216  1.00  0.00     0.034 C 
ENDBRANCH   1  21
TORSDOF 3
ENDMDL
MODEL 7
REMARK VINA RESULT:      -7.6      3.692      7.198
REMARK  3 active torsions:
REMARK  status: ('A' for Active; 'I' for Inactive)
REMARK    1  A    between atoms: C2_2  and  N1_4 
REMARK    2  A    between atoms: C4_6  and  C5_7 
REMARK    3  A    between atoms: C9_11  and  O1_12 
ROOT
HETATM    1  N1  UNL     1      24.577   0.826  53.025  1.00  0.00    -0.245 N 
HETATM    2  N2  UNL     1      23.771  -0.174  53.348  1.00  0.00    -0.167 NA
HETATM    3  C4  UNL     1      22.485   0.228  53.242  1.00  0.00     0.120 A 
HETATM    4  C13 UNL     1      22.513   1.546  52.832  1.00  0.00     0.131 A 
HETATM    5  C14 UNL     1      23.838   1.897  52.703  1.00  0.00     0.178 A 
HETATM    6  N3  UNL     1      24.346   2.995  52.354  1.00  0.00    -0.221 NA
HETATM    7  C15 UNL     1      23.747   4.229  51.979  1.00  0.00     0.231 A 
HETATM    8  N4  UNL     1      22.478   4.425  51.937  1.00  0.00    -0.261 NA
HETATM    9  C16 UNL     1      21.313   3.652  52.196  1.00  0.00     0.299 A 
HETATM   10  N5  UNL     1      21.508   2.305  52.611  1.00  0.00    -0.262 NA
ENDROOT
BRANCH   3  11
HETATM   11  C5  UNL     1      21.283  -0.559  53.505  1.00  0.00     0.009 A 
HETATM   12  C6  UNL     1      20.990  -1.575  54.334  1.00  0.00     0.027 A 
HETATM   13  C7  UNL     1      19.619  -1.586  53.812  1.00  0.00    -0.021 A 
HETATM   14  C8  UNL     1      18.311  -2.078  53.760  1.00  0.00     0.048 A 
HETATM   15  C12 UNL     1      19.927  -0.547  52.969  1.00  0.00    -0.013 A 
HETATM   16  C9  UNL     1      17.425  -1.494  52.878  1.00  0.00     0.066 A 
HETATM   17  C10 UNL     1      17.735  -0.450  52.031  1.00  0.00     0.037 A 
HETATM   18  C11 UNL     1      19.035   0.031  52.089  1.00  0.00     0.016 A 
BRANCH  16  19
HETATM   19  O1  UNL     1      16.114  -2.003  52.840  1.00  0.00    -0.361 OA
HETATM   20  H10 UNL     1      15.701  -2.142  51.927  1.00  0.00     0.217 HD
ENDBRANCH  16  19
ENDBRANCH   3  11
BRANCH   1  21
HETATM   21  C2  UNL     1      25.981   0.760  53.023  1.00  0.00     0.104 C 
HETATM   22  C1  UNL     1      26.398   0.338  54.429  1.00  0.00     0.034 C 
HETATM   23  C3  UNL     1      26.649  -0.121  52.062  1.00  0.00     0.034 C 
ENDBRANCH   1  21
TORSDOF 3
ENDMDL
MODEL 8
REMARK VINA RESULT:      -7.6      3.374      6.890
REMARK  3 active torsions:
REMARK  status: ('A' for Active; 'I' for Inactive)
REMARK    1  A    between atoms: C2_2  and  N1_4 
REMARK    2  A    between atoms: C4_6  and  C5_7 
REMARK    3  A    between atoms: C9_11  and  O1_12 
ROOT
HETATM    1  N1  UNL     1      26.233   1.454  52.180  1.00  0.00    -0.245 N 
HETATM    2  N2  UNL     1      25.122   0.859  52.584  1.00  0.00    -0.167 NA
HETATM    3  C4  UNL     1      24.063   1.381  51.927  1.00  0.00     0.120 A 
HETATM    4  C13 UNL     1      24.560   2.348  51.076  1.00  0.00     0.131 A 
HETATM    5  C14 UNL     1      25.924   2.373  51.254  1.00  0.00     0.178 A 
HETATM    6  N3  UNL     1      26.793   3.094  50.693  1.00  0.00    -0.221 NA
HETATM    7  C15 UNL     1      26.673   4.107  49.703  1.00  0.00     0.231 A 
HETATM    8  N4  UNL     1      25.556   4.475  49.185  1.00  0.00    -0.261 NA
HETATM    9  C16 UNL     1      24.190   4.109  49.333  1.00  0.00     0.299 A 
HETATM   10  N5  UNL     1      23.892   3.083  50.271  1.00  0.00    -0.262 NA
ENDROOT
BRANCH   3  11
HETATM   11  C5  UNL     1      22.656   1.012  52.072  1.00  0.00     0.009 A 
HETATM   12  C6  UNL     1      21.510   1.453  51.528  1.00  0.00     0.027 A 
HETATM   13  C7  UNL     1      20.771   0.461  52.317  1.00  0.00    -0.021 A 
HETATM   14  C8  UNL     1      19.597  -0.176  52.731  1.00  0.00     0.048 A 
HETATM   15  C12 UNL     1      21.948   0.016  52.868  1.00  0.00    -0.013 A 
HETATM   16  C9  UNL     1      19.696  -1.197  53.654  1.00  0.00     0.066 A 
HETATM   17  C10 UNL     1      20.878  -1.643  54.207  1.00  0.00     0.037 A 
HETATM   18  C11 UNL     1      22.037  -1.006  53.791  1.00  0.00     0.016 A 
BRANCH  16  19
HETATM   19  O1  UNL     1      18.504  -1.825  54.059  1.00  0.00    -0.361 OA
HETATM   20  H10 UNL     1      17.643  -1.312  53.922  1.00  0.00     0.217 HD
ENDBRANCH  16  19
ENDBRANCH   3  11
BRANCH   1  21
HETATM   21  C2  UNL     1      27.523   1.159  52.652  1.00  0.00     0.104 C 
HETATM   22  C1  UNL     1      27.782   2.101  53.824  1.00  0.00     0.034 C 
HETATM   23  C3  UNL     1      27.824  -0.207  53.087  1.00  0.00     0.034 C 
ENDBRANCH   1  21
TORSDOF 3
ENDMDL
MODEL 9
REMARK VINA RESULT:      -7.5      1.858      3.510
REMARK  3 active torsions:
REMARK  status: ('A' for Active; 'I' for Inactive)
REMARK    1  A    between atoms: C2_2  and  N1_4 
REMARK    2  A    between atoms: C4_6  and  C5_7 
REMARK    3  A    between atoms: C9_11  and  O1_12 
ROOT
HETATM    1  N1  UNL     1      21.654   1.475  52.736  1.00  0.00    -0.245 N 
HETATM    2  N2  UNL     1      22.772   0.879  53.122  1.00  0.00    -0.167 NA
HETATM    3  C4  UNL     1      23.813   1.727  52.972  1.00  0.00     0.120 A 
HETATM    4  C13 UNL     1      23.298   2.903  52.466  1.00  0.00     0.131 A 
HETATM    5  C14 UNL     1      21.941   2.719  52.327  1.00  0.00     0.178 A 
HETATM    6  N3  UNL     1      21.062   3.516  51.903  1.00  0.00    -0.221 NA
HETATM    7  C15 UNL     1      21.160   4.854  51.432  1.00  0.00     0.231 A 
HETATM    8  N4  UNL     1      22.262   5.511  51.361  1.00  0.00    -0.261 NA
HETATM    9  C16 UNL     1      23.627   5.253  51.661  1.00  0.00     0.299 A 
HETATM   10  N5  UNL     1      23.946   3.967  52.178  1.00  0.00    -0.262 NA
ENDROOT
BRANCH   3  11
HETATM   11  C5  UNL     1      25.219   1.472  53.278  1.00  0.00     0.009 A 
HETATM   12  C6  UNL     1      26.207   2.199  53.825  1.00  0.00     0.027 A 
HETATM   13  C7  UNL     1      27.115   1.058  53.666  1.00  0.00    -0.021 A 
HETATM   14  C8  UNL     1      28.358   0.431  53.789  1.00  0.00     0.048 A 
HETATM   15  C12 UNL     1      26.099   0.321  53.108  1.00  0.00    -0.013 A 
HETATM   16  C9  UNL     1      28.483  -0.872  53.350  1.00  0.00     0.066 A 
HETATM   17  C10 UNL     1      27.462  -1.612  52.790  1.00  0.00     0.037 A 
HETATM   18  C11 UNL     1      26.232  -0.981  52.671  1.00  0.00     0.016 A 
BRANCH  16  19
HETATM   19  O1  UNL     1      29.741  -1.486  53.482  1.00  0.00    -0.361 OA
HETATM   20  H10 UNL     1      29.751  -2.479  53.676  1.00  0.00     0.217 HD
ENDBRANCH  16  19
ENDBRANCH   3  11
BRANCH   1  21
HETATM   21  C2  UNL     1      20.378   0.886  52.758  1.00  0.00     0.104 C 
HETATM   22  C1  UNL     1      20.145   0.305  51.367  1.00  0.00     0.034 C 
HETATM   23  C3  UNL     1      20.096  -0.158  53.745  1.00  0.00     0.034 C 
ENDBRANCH   1  21
TORSDOF 3
ENDMDL
