MODEL 1
REMARK VINA RESULT:      -6.6      0.000      0.000
REMARK  5 active torsions:
REMARK  status: ('A' for Active; 'I' for Inactive)
REMARK    1  A    between atoms: C2_2  and  C3_3 
REMARK    2  A    between atoms: C3_3  and  C4_4 
REMARK    3  A    between atoms: C4_4  and  P1_5 
REMARK    4  A    between atoms: P1_5  and  C5_6 
REMARK    5  A    between atoms: C5_6  and  C6_7 
ROOT
HETATM    1  C6  UNL     1      23.400   3.854  51.432  1.00  0.00     0.028 C 
HETATM    2  N1  UNL     1      24.153   3.145  52.254  1.00  0.00    -0.250 NA
HETATM    3  C7  UNL     1      24.218   1.718  52.177  1.00  0.00     0.233 C 
HETATM    4  N2  UNL     1      23.173   1.822  52.904  1.00  0.00    -0.238 NA
HETATM    5  C8  UNL     1      22.468   0.706  53.362  1.00  0.00     0.110 A 
HETATM    6  C9  UNL     1      21.151   1.072  53.037  1.00  0.00     0.069 A 
HETATM    7  C10 UNL     1      20.142   0.157  53.364  1.00  0.00     0.035 A 
HETATM    8  C11 UNL     1      20.411  -1.052  53.975  1.00  0.00     0.046 A 
HETATM    9  C12 UNL     1      21.714  -1.375  54.278  1.00  0.00     0.140 A 
HETATM   10  F1  UNL     1      22.183  -2.503  54.874  1.00  0.00    -0.204 F 
HETATM   11  C13 UNL     1      22.722  -0.493  53.968  1.00  0.00     0.103 A 
HETATM   12 CL1  UNL     1      24.453  -0.627  54.229  1.00  0.00    -0.078 Cl
HETATM   13  N3  UNL     1      20.559   2.218  52.418  1.00  0.00    -0.328 N 
HETATM   14  S1  UNL     1      20.897   3.073  50.900  1.00  0.00    -0.050 SA
HETATM   15  C14 UNL     1      22.627   3.043  50.444  1.00  0.00     0.152 C 
HETATM   16  H14 UNL     1      19.764   2.678  52.921  1.00  0.00     0.174 HD
ENDROOT
BRANCH   1  17
HETATM   17  C5  UNL     1      23.291   5.331  51.464  1.00  0.00     0.087 C 
BRANCH  17  18
HETATM   18  P1  UNL     1      24.525   6.142  50.355  1.00  0.00    -0.107 P 
BRANCH  18  19
HETATM   19  C4  UNL     1      25.676   5.238  49.604  1.00  0.00     0.044 C 
BRANCH  19  20
HETATM   20  C3  UNL     1      26.754   4.257  49.340  1.00  0.00     0.028 C 
BRANCH  20  21
HETATM   21  C2  UNL     1      27.894   4.887  48.541  1.00  0.00    -0.001 C 
HETATM   22  C1  UNL     1      27.538   6.351  48.365  1.00  0.00     0.005 C 
ENDBRANCH  20  21
ENDBRANCH  19  20
ENDBRANCH  18  19
ENDBRANCH  17  18
ENDBRANCH   1  17
TORSDOF 5
ENDMDL
MODEL 2
REMARK VINA RESULT:      -6.5      2.206      2.755
REMARK  5 active torsions:
REMARK  status: ('A' for Active; 'I' for Inactive)
REMARK    1  A    between atoms: C2_2  and  C3_3 
REMARK    2  A    between atoms: C3_3  and  C4_4 
REMARK    3  A    between atoms: C4_4  and  P1_5 
REMARK    4  A    between atoms: P1_5  and  C5_6 
REMARK    5  A    between atoms: C5_6  and  C6_7 
ROOT
HETATM    1  C6  UNL     1      24.125   2.982  50.789  1.00  0.00     0.028 C 
HETATM    2  N1  UNL     1      22.986   2.466  50.363  1.00  0.00    -0.250 NA
HETATM    3  C7  UNL     1      21.854   2.319  51.225  1.00  0.00     0.233 C 
HETATM    4  N2  UNL     1      22.464   1.237  51.524  1.00  0.00    -0.238 NA
HETATM    5  C8  UNL     1      21.961   0.333  52.463  1.00  0.00     0.110 A 
HETATM    6  C9  UNL     1      23.104   0.104  53.248  1.00  0.00     0.069 A 
HETATM    7  C10 UNL     1      22.965  -0.784  54.323  1.00  0.00     0.035 A 
HETATM    8  C11 UNL     1      21.770  -1.411  54.613  1.00  0.00     0.046 A 
HETATM    9  C12 UNL     1      20.672  -1.162  53.821  1.00  0.00     0.140 A 
HETATM   10  F1  UNL     1      19.418  -1.675  53.936  1.00  0.00    -0.204 F 
HETATM   11  C13 UNL     1      20.783  -0.295  52.759  1.00  0.00     0.103 A 
HETATM   12 CL1  UNL     1      19.576   0.212  51.590  1.00  0.00    -0.078 Cl
HETATM   13  N3  UNL     1      24.451   0.586  53.213  1.00  0.00    -0.328 N 
HETATM   14  S1  UNL     1      25.141   2.219  53.144  1.00  0.00    -0.050 SA
HETATM   15  C14 UNL     1      24.126   3.376  52.230  1.00  0.00     0.152 C 
HETATM   16  H14 UNL     1      25.217  -0.128  53.230  1.00  0.00     0.174 HD
ENDROOT
BRANCH   1  17
HETATM   17  C5  UNL     1      25.329   3.159  49.945  1.00  0.00     0.087 C 
BRANCH  17  18
HETATM   18  P1  UNL     1      25.625   4.930  49.519  1.00  0.00    -0.107 P 
BRANCH  18  19
HETATM   19  C4  UNL     1      27.053   5.386  48.841  1.00  0.00     0.044 C 
BRANCH  19  20
HETATM   20  C3  UNL     1      28.430   5.364  48.295  1.00  0.00     0.028 C 
BRANCH  20  21
HETATM   21  C2  UNL     1      28.930   6.775  47.993  1.00  0.00    -0.001 C 
HETATM   22  C1  UNL     1      27.755   7.531  47.402  1.00  0.00     0.005 C 
ENDBRANCH  20  21
ENDBRANCH  19  20
ENDBRANCH  18  19
ENDBRANCH  17  18
ENDBRANCH   1  17
TORSDOF 5
ENDMDL
MODEL 3
REMARK VINA RESULT:      -6.4      2.042      3.168
REMARK  5 active torsions:
REMARK  status: ('A' for Active; 'I' for Inactive)
REMARK    1  A    between atoms: C2_2  and  C3_3 
REMARK    2  A    between atoms: C3_3  and  C4_4 
REMARK    3  A    between atoms: C4_4  and  P1_5 
REMARK    4  A    between atoms: P1_5  and  C5_6 
REMARK    5  A    between atoms: C5_6  and  C6_7 
ROOT
HETATM    1  C6  UNL     1      21.647   3.795  51.008  1.00  0.00     0.028 C 
HETATM    2  N1  UNL     1      21.519   2.480  51.024  1.00  0.00    -0.250 NA
HETATM    3  C7  UNL     1      21.604   1.727  52.237  1.00  0.00     0.233 C 
HETATM    4  N2  UNL     1      22.851   1.803  51.973  1.00  0.00    -0.238 NA
HETATM    5  C8  UNL     1      23.825   1.233  52.797  1.00  0.00     0.110 A 
HETATM    6  C9  UNL     1      24.730   2.302  52.915  1.00  0.00     0.069 A 
HETATM    7  C10 UNL     1      25.870   2.080  53.700  1.00  0.00     0.035 A 
HETATM    8  C11 UNL     1      26.107   0.877  54.334  1.00  0.00     0.046 A 
HETATM    9  C12 UNL     1      25.197  -0.146  54.194  1.00  0.00     0.140 A 
HETATM   10  F1  UNL     1      25.247  -1.394  54.731  1.00  0.00    -0.204 F 
HETATM   11  C13 UNL     1      24.071   0.046  53.429  1.00  0.00     0.103 A 
HETATM   12 CL1  UNL     1      22.752  -1.056  53.071  1.00  0.00    -0.078 Cl
HETATM   13  N3  UNL     1      24.771   3.636  52.400  1.00  0.00    -0.328 N 
HETATM   14  S1  UNL     1      23.597   4.966  52.416  1.00  0.00    -0.050 SA
HETATM   15  C14 UNL     1      21.898   4.409  52.346  1.00  0.00     0.152 C 
HETATM   16  H14 UNL     1      25.646   3.934  51.908  1.00  0.00     0.174 HD
ENDROOT
BRANCH   1  17
HETATM   17  C5  UNL     1      21.569   4.626  49.785  1.00  0.00     0.087 C 
BRANCH  17  18
HETATM   18  P1  UNL     1      22.996   4.328  48.651  1.00  0.00    -0.107 P 
BRANCH  18  19
HETATM   19  C4  UNL     1      24.374   5.211  48.813  1.00  0.00     0.044 C 
BRANCH  19  20
HETATM   20  C3  UNL     1      25.619   5.802  49.357  1.00  0.00     0.028 C 
BRANCH  20  21
HETATM   21  C2  UNL     1      26.853   5.048  48.864  1.00  0.00    -0.001 C 
HETATM   22  C1  UNL     1      26.734   3.633  49.399  1.00  0.00     0.005 C 
ENDBRANCH  20  21
ENDBRANCH  19  20
ENDBRANCH  18  19
ENDBRANCH  17  18
ENDBRANCH   1  17
TORSDOF 5
ENDMDL
MODEL 4
REMARK VINA RESULT:      -6.2      2.402      3.429
REMARK  5 active torsions:
REMARK  status: ('A' for Active; 'I' for Inactive)
REMARK    1  A    between atoms: C2_2  and  C3_3 
REMARK    2  A    between atoms: C3_3  and  C4_4 
REMARK    3  A    between atoms: C4_4  and  P1_5 
REMARK    4  A    between atoms: P1_5  and  C5_6 
REMARK    5  A    between atoms: C5_6  and  C6_7 
ROOT
HETATM    1  C6  UNL     1      24.177   3.070  50.969  1.00  0.00     0.028 C 
HETATM    2  N1  UNL     1      23.041   2.538  50.554  1.00  0.00    -0.250 NA
HETATM    3  C7  UNL     1      21.937   2.330  51.440  1.00  0.00     0.233 C 
HETATM    4  N2  UNL     1      22.582   1.255  51.684  1.00  0.00    -0.238 NA
HETATM    5  C8  UNL     1      22.129   0.306  52.603  1.00  0.00     0.110 A 
HETATM    6  C9  UNL     1      23.298   0.081  53.350  1.00  0.00     0.069 A 
HETATM    7  C10 UNL     1      23.211  -0.846  54.397  1.00  0.00     0.035 A 
HETATM    8  C11 UNL     1      22.041  -1.515  54.695  1.00  0.00     0.046 A 
HETATM    9  C12 UNL     1      20.916  -1.269  53.941  1.00  0.00     0.140 A 
HETATM   10  F1  UNL     1      19.679  -1.819  54.071  1.00  0.00    -0.204 F 
HETATM   11  C13 UNL     1      20.976  -0.363  52.908  1.00  0.00     0.103 A 
HETATM   12 CL1  UNL     1      19.725   0.151  51.789  1.00  0.00    -0.078 Cl
HETATM   13  N3  UNL     1      24.630   0.600  53.297  1.00  0.00    -0.328 N 
HETATM   14  S1  UNL     1      25.275   2.253  53.268  1.00  0.00    -0.050 SA
HETATM   15  C14 UNL     1      24.207   3.413  52.422  1.00  0.00     0.152 C 
HETATM   16  H14 UNL     1      25.415  -0.093  53.269  1.00  0.00     0.174 HD
ENDROOT
BRANCH   1  17
HETATM   17  C5  UNL     1      25.353   3.307  50.100  1.00  0.00     0.087 C 
BRANCH  17  18
HETATM   18  P1  UNL     1      25.575   5.097  49.707  1.00  0.00    -0.107 P 
BRANCH  18  19
HETATM   19  C4  UNL     1      24.477   6.200  50.241  1.00  0.00     0.044 C 
BRANCH  19  20
HETATM   20  C3  UNL     1      23.858   7.438  50.768  1.00  0.00     0.028 C 
BRANCH  20  21
HETATM   21  C2  UNL     1      22.345   7.434  50.561  1.00  0.00    -0.001 C 
HETATM   22  C1  UNL     1      21.829   6.148  51.180  1.00  0.00     0.005 C 
ENDBRANCH  20  21
ENDBRANCH  19  20
ENDBRANCH  18  19
ENDBRANCH  17  18
ENDBRANCH   1  17
TORSDOF 5
ENDMDL
MODEL 5
REMARK VINA RESULT:      -6.2      4.402      7.162
REMARK  5 active torsions:
REMARK  status: ('A' for Active; 'I' for Inactive)
REMARK    1  A    between atoms: C2_2  and  C3_3 
REMARK    2  A    between atoms: C3_3  and  C4_4 
REMARK    3  A    between atoms: C4_4  and  P1_5 
REMARK    4  A    between atoms: P1_5  and  C5_6 
REMARK    5  A    between atoms: C5_6  and  C6_7 
ROOT
HETATM    1  C6  UNL     1      23.893   2.446  51.463  1.00  0.00     0.028 C 
HETATM    2  N1  UNL     1      24.784   2.526  50.490  1.00  0.00    -0.250 NA
HETATM    3  C7  UNL     1      25.931   3.375  50.583  1.00  0.00     0.233 C 
HETATM    4  N2  UNL     1      25.091   4.236  50.155  1.00  0.00    -0.238 NA
HETATM    5  C8  UNL     1      25.441   5.570  49.928  1.00  0.00     0.110 A 
HETATM    6  C9  UNL     1      24.388   6.234  50.579  1.00  0.00     0.069 A 
HETATM    7  C10 UNL     1      24.413   7.635  50.554  1.00  0.00     0.035 A 
HETATM    8  C11 UNL     1      25.417   8.344  49.925  1.00  0.00     0.046 A 
HETATM    9  C12 UNL     1      26.431   7.658  49.297  1.00  0.00     0.140 A 
HETATM   10  F1  UNL     1      27.500   8.165  48.628  1.00  0.00    -0.204 F 
HETATM   11  C13 UNL     1      26.429   6.283  49.308  1.00  0.00     0.103 A 
HETATM   12 CL1  UNL     1      27.571   5.151  48.603  1.00  0.00    -0.078 Cl
HETATM   13  N3  UNL     1      23.232   5.802  51.303  1.00  0.00    -0.328 N 
HETATM   14  S1  UNL     1      23.014   4.674  52.656  1.00  0.00    -0.050 SA
HETATM   15  C14 UNL     1      24.183   3.319  52.640  1.00  0.00     0.152 C 
HETATM   16  H14 UNL     1      22.308   6.203  51.016  1.00  0.00     0.174 HD
ENDROOT
BRANCH   1  17
HETATM   17  C5  UNL     1      22.687   1.588  51.422  1.00  0.00     0.087 C 
BRANCH  17  18
HETATM   18  P1  UNL     1      22.650   0.377  52.815  1.00  0.00    -0.107 P 
BRANCH  18  19
HETATM   19  C4  UNL     1      24.054  -0.259  53.390  1.00  0.00     0.044 C 
BRANCH  19  20
HETATM   20  C3  UNL     1      25.490  -0.509  53.652  1.00  0.00     0.028 C 
BRANCH  20  21
HETATM   21  C2  UNL     1      26.327  -0.312  52.390  1.00  0.00    -0.001 C 
HETATM   22  C1  UNL     1      27.367   0.741  52.723  1.00  0.00     0.005 C 
ENDBRANCH  20  21
ENDBRANCH  19  20
ENDBRANCH  18  19
ENDBRANCH  17  18
ENDBRANCH   1  17
TORSDOF 5
ENDMDL
MODEL 6
REMARK VINA RESULT:      -6.2      1.992      2.623
REMARK  5 active torsions:
REMARK  status: ('A' for Active; 'I' for Inactive)
REMARK    1  A    between atoms: C2_2  and  C3_3 
REMARK    2  A    between atoms: C3_3  and  C4_4 
REMARK    3  A    between atoms: C4_4  and  P1_5 
REMARK    4  A    between atoms: P1_5  and  C5_6 
REMARK    5  A    between atoms: C5_6  and  C6_7 
ROOT
HETATM    1  C6  UNL     1      23.138   3.545  50.783  1.00  0.00     0.028 C 
HETATM    2  N1  UNL     1      22.048   2.870  50.462  1.00  0.00    -0.250 NA
HETATM    3  C7  UNL     1      21.074   2.497  51.441  1.00  0.00     0.233 C 
HETATM    4  N2  UNL     1      21.879   1.517  51.590  1.00  0.00    -0.238 NA
HETATM    5  C8  UNL     1      21.651   0.499  52.519  1.00  0.00     0.110 A 
HETATM    6  C9  UNL     1      22.907   0.423  53.144  1.00  0.00     0.069 A 
HETATM    7  C10 UNL     1      23.049  -0.526  54.165  1.00  0.00     0.035 A 
HETATM    8  C11 UNL     1      22.014  -1.354  54.553  1.00  0.00     0.046 A 
HETATM    9  C12 UNL     1      20.798  -1.251  53.916  1.00  0.00     0.140 A 
HETATM   10  F1  UNL     1      19.666  -1.968  54.146  1.00  0.00    -0.204 F 
HETATM   11  C13 UNL     1      20.634  -0.328  52.911  1.00  0.00     0.103 A 
HETATM   12 CL1  UNL     1      19.221   0.029  51.931  1.00  0.00    -0.078 Cl
HETATM   13  N3  UNL     1      24.146   1.121  52.981  1.00  0.00    -0.328 N 
HETATM   14  S1  UNL     1      24.556   2.847  52.942  1.00  0.00    -0.050 SA
HETATM   15  C14 UNL     1      23.263   3.864  52.237  1.00  0.00     0.152 C 
HETATM   16  H14 UNL     1      25.010   0.543  52.858  1.00  0.00     0.174 HD
ENDROOT
BRANCH   1  17
HETATM   17  C5  UNL     1      24.180   3.957  49.815  1.00  0.00     0.087 C 
BRANCH  17  18
HETATM   18  P1  UNL     1      24.259   5.791  49.619  1.00  0.00    -0.107 P 
BRANCH  18  19
HETATM   19  C4  UNL     1      25.616   6.495  49.012  1.00  0.00     0.044 C 
BRANCH  19  20
HETATM   20  C3  UNL     1      26.696   6.926  48.094  1.00  0.00     0.028 C 
BRANCH  20  21
HETATM   21  C2  UNL     1      28.013   6.222  48.417  1.00  0.00    -0.001 C 
HETATM   22  C1  UNL     1      27.680   4.754  48.610  1.00  0.00     0.005 C 
ENDBRANCH  20  21
ENDBRANCH  19  20
ENDBRANCH  18  19
ENDBRANCH  17  18
ENDBRANCH   1  17
TORSDOF 5
ENDMDL
MODEL 7
REMARK VINA RESULT:      -6.2      2.463      2.992
REMARK  5 active torsions:
REMARK  status: ('A' for Active; 'I' for Inactive)
REMARK    1  A    between atoms: C2_2  and  C3_3 
REMARK    2  A    between atoms: C3_3  and  C4_4 
REMARK    3  A    between atoms: C4_4  and  P1_5 
REMARK    4  A    between atoms: P1_5  and  C5_6 
REMARK    5  A    between atoms: C5_6  and  C6_7 
ROOT
HETATM    1  C6  UNL     1      23.503   3.775  50.413  1.00  0.00     0.028 C 
HETATM    2  N1  UNL     1      24.597   4.047  51.102  1.00  0.00    -0.250 NA
HETATM    3  C7  UNL     1      25.646   3.087  51.264  1.00  0.00     0.233 C 
HETATM    4  N2  UNL     1      24.893   2.711  52.225  1.00  0.00    -0.238 NA
HETATM    5  C8  UNL     1      25.222   1.635  53.053  1.00  0.00     0.110 A 
HETATM    6  C9  UNL     1      24.012   0.921  53.053  1.00  0.00     0.069 A 
HETATM    7  C10 UNL     1      23.975  -0.260  53.807  1.00  0.00     0.035 A 
HETATM    8  C11 UNL     1      25.065  -0.714  54.521  1.00  0.00     0.046 A 
HETATM    9  C12 UNL     1      26.233   0.014  54.498  1.00  0.00     0.140 A 
HETATM   10  F1  UNL     1      27.406  -0.260  55.128  1.00  0.00    -0.204 F 
HETATM   11  C13 UNL     1      26.295   1.176  53.766  1.00  0.00     0.103 A 
HETATM   12 CL1  UNL     1      27.627   2.299  53.548  1.00  0.00    -0.078 Cl
HETATM   13  N3  UNL     1      22.738   1.118  52.432  1.00  0.00    -0.328 N 
HETATM   14  S1  UNL     1      22.255   1.433  50.754  1.00  0.00    -0.050 SA
HETATM   15  C14 UNL     1      23.457   2.395  49.843  1.00  0.00     0.152 C 
HETATM   16  H14 UNL     1      21.892   1.076  53.049  1.00  0.00     0.174 HD
ENDROOT
BRANCH   1  17
HETATM   17  C5  UNL     1      22.385   4.725  50.212  1.00  0.00     0.087 C 
BRANCH  17  18
HETATM   18  P1  UNL     1      22.938   6.285  49.393  1.00  0.00    -0.107 P 
BRANCH  18  19
HETATM   19  C4  UNL     1      24.396   6.342  48.633  1.00  0.00     0.044 C 
BRANCH  19  20
HETATM   20  C3  UNL     1      25.787   6.697  48.268  1.00  0.00     0.028 C 
BRANCH  20  21
HETATM   21  C2  UNL     1      26.772   5.620  48.722  1.00  0.00    -0.001 C 
HETATM   22  C1  UNL     1      28.148   6.081  48.278  1.00  0.00     0.005 C 
ENDBRANCH  20  21
ENDBRANCH  19  20
ENDBRANCH  18  19
ENDBRANCH  17  18
ENDBRANCH   1  17
TORSDOF 5
ENDMDL
MODEL 8
REMARK VINA RESULT:      -6.2      4.914      7.762
REMARK  5 active torsions:
REMARK  status: ('A' for Active; 'I' for Inactive)
REMARK    1  A    between atoms: C2_2  and  C3_3 
REMARK    2  A    between atoms: C3_3  and  C4_4 
REMARK    3  A    between atoms: C4_4  and  P1_5 
REMARK    4  A    between atoms: P1_5  and  C5_6 
REMARK    5  A    between atoms: C5_6  and  C6_7 
ROOT
HETATM    1  C6  UNL     1      24.154   3.393  52.055  1.00  0.00     0.028 C 
HETATM    2  N1  UNL     1      23.564   4.574  52.108  1.00  0.00    -0.250 NA
HETATM    3  C7  UNL     1      23.107   5.244  50.929  1.00  0.00     0.233 C 
HETATM    4  N2  UNL     1      24.325   5.630  50.908  1.00  0.00    -0.238 NA
HETATM    5  C8  UNL     1      24.825   6.466  49.907  1.00  0.00     0.110 A 
HETATM    6  C9  UNL     1      26.003   5.784  49.557  1.00  0.00     0.069 A 
HETATM    7  C10 UNL     1      26.788   6.355  48.547  1.00  0.00     0.035 A 
HETATM    8  C11 UNL     1      26.435   7.530  47.913  1.00  0.00     0.046 A 
HETATM    9  C12 UNL     1      25.273   8.169  48.282  1.00  0.00     0.140 A 
HETATM   10  F1  UNL     1      24.755   9.324  47.786  1.00  0.00    -0.204 F 
HETATM   11  C13 UNL     1      24.486   7.628  49.272  1.00  0.00     0.103 A 
HETATM   12 CL1  UNL     1      22.972   8.207  49.947  1.00  0.00    -0.078 Cl
HETATM   13  N3  UNL     1      26.630   4.580  50.010  1.00  0.00    -0.328 N 
HETATM   14  S1  UNL     1      26.037   2.920  50.214  1.00  0.00    -0.050 SA
HETATM   15  C14 UNL     1      24.310   2.840  50.676  1.00  0.00     0.152 C 
HETATM   16  H14 UNL     1      27.639   4.638  50.286  1.00  0.00     0.174 HD
ENDROOT
BRANCH   1  17
HETATM   17  C5  UNL     1      24.648   2.653  53.239  1.00  0.00     0.087 C 
BRANCH  17  18
HETATM   18  P1  UNL     1      24.410   0.831  53.067  1.00  0.00    -0.107 P 
BRANCH  18  19
HETATM   19  C4  UNL     1      25.710  -0.150  52.830  1.00  0.00     0.044 C 
BRANCH  19  20
HETATM   20  C3  UNL     1      27.068  -0.643  52.505  1.00  0.00     0.028 C 
BRANCH  20  21
HETATM   21  C2  UNL     1      28.021  -0.464  53.686  1.00  0.00    -0.001 C 
HETATM   22  C1  UNL     1      29.293  -1.209  53.328  1.00  0.00     0.005 C 
ENDBRANCH  20  21
ENDBRANCH  19  20
ENDBRANCH  18  19
ENDBRANCH  17  18
ENDBRANCH   1  17
TORSDOF 5
ENDMDL
MODEL 9
REMARK VINA RESULT:      -6.1      5.030      8.042
REMARK  5 active torsions:
REMARK  status: ('A' for Active; 'I' for Inactive)
REMARK    1  A    between atoms: C2_2  and  C3_3 
REMARK    2  A    between atoms: C3_3  and  C4_4 
REMARK    3  A    between atoms: C4_4  and  P1_5 
REMARK    4  A    between atoms: P1_5  and  C5_6 
REMARK    5  A    between atoms: C5_6  and  C6_7 
ROOT
HETATM    1  C6  UNL     1      17.039   0.945  51.610  1.00  0.00     0.028 C 
HETATM    2  N1  UNL     1      18.060   1.775  51.480  1.00  0.00    -0.250 NA
HETATM    3  C7  UNL     1      19.343   1.330  51.033  1.00  0.00     0.233 C 
HETATM    4  N2  UNL     1      19.467   1.053  52.274  1.00  0.00    -0.238 NA
HETATM    5  C8  UNL     1      20.628   0.477  52.797  1.00  0.00     0.110 A 
HETATM    6  C9  UNL     1      20.082  -0.562  53.570  1.00  0.00     0.069 A 
HETATM    7  C10 UNL     1      20.988  -1.377  54.262  1.00  0.00     0.035 A 
HETATM    8  C11 UNL     1      22.354  -1.184  54.198  1.00  0.00     0.046 A 
HETATM    9  C12 UNL     1      22.850  -0.155  53.431  1.00  0.00     0.140 A 
HETATM   10  F1  UNL     1      24.149   0.200  53.239  1.00  0.00    -0.204 F 
HETATM   11  C13 UNL     1      21.982   0.659  52.742  1.00  0.00     0.103 A 
HETATM   12 CL1  UNL     1      22.315   2.031  51.698  1.00  0.00    -0.078 Cl
HETATM   13  N3  UNL     1      18.751  -1.015  53.835  1.00  0.00    -0.328 N 
HETATM   14  S1  UNL     1      17.393  -1.437  52.775  1.00  0.00    -0.050 SA
HETATM   15  C14 UNL     1      17.349  -0.475  51.267  1.00  0.00     0.152 C 
HETATM   16  H14 UNL     1      18.477  -1.137  54.838  1.00  0.00     0.174 HD
ENDROOT
BRANCH   1  17
HETATM   17  C5  UNL     1      15.690   1.347  52.069  1.00  0.00     0.087 C 
BRANCH  17  18
HETATM   18  P1  UNL     1      15.330   3.119  51.700  1.00  0.00    -0.107 P 
BRANCH  18  19
HETATM   19  C4  UNL     1      13.840   3.740  52.016  1.00  0.00     0.044 C 
BRANCH  19  20
HETATM   20  C3  UNL     1      12.712   4.451  52.663  1.00  0.00     0.028 C 
BRANCH  20  21
HETATM   21  C2  UNL     1      12.806   4.371  54.186  1.00  0.00    -0.001 C 
HETATM   22  C1  UNL     1      11.763   3.361  54.628  1.00  0.00     0.005 C 
ENDBRANCH  20  21
ENDBRANCH  19  20
ENDBRANCH  18  19
ENDBRANCH  17  18
ENDBRANCH   1  17
TORSDOF 5
ENDMDL
