MODEL 1
REMARK VINA RESULT:      -8.5      0.000      0.000
REMARK  7 active torsions:
REMARK  status: ('A' for Active; 'I' for Inactive)
REMARK    1  A    between atoms: O1_1  and  C1_2 
REMARK    2  A    between atoms: C1_2  and  C2_3 
REMARK    3  A    between atoms: C2_3  and  C3_4 
REMARK    4  A    between atoms: C3_4  and  C4_5 
REMARK    5  A    between atoms: C4_5  and  C5_6 
REMARK    6  A    between atoms: C8_10  and  C9_11 
REMARK    7  A    between atoms: N3_15  and  C12_16 
ROOT
HETATM    1  C9  UNL     1      23.632  -0.217  53.792  1.00  0.00    -0.011 A 
HETATM    2  C10 UNL     1      23.493  -1.013  54.828  1.00  0.00     0.127 A 
HETATM    3  N2  UNL     1      22.273  -1.619  55.200  1.00  0.00    -0.255 NA
HETATM    4  C11 UNL     1      21.193  -1.428  54.535  1.00  0.00     0.209 A 
HETATM    5  N3  UNL     1      21.245  -0.587  53.406  1.00  0.00    -0.337 N 
HETATM    6  C18 UNL     1      22.437   0.058  52.968  1.00  0.00     0.171 A 
ENDROOT
BRANCH   1   7
HETATM    7  C8  UNL     1      24.877   0.417  53.391  1.00  0.00    -0.009 A 
HETATM    8  C7  UNL     1      24.912   1.285  52.293  1.00  0.00     0.128 A 
HETATM    9  N1  UNL     1      26.034   1.894  51.885  1.00  0.00    -0.272 NA
HETATM   10  C6  UNL     1      27.179   1.671  52.547  1.00  0.00     0.123 A 
HETATM   11  C5  UNL     1      27.299   0.846  53.640  1.00  0.00    -0.040 A 
HETATM   12  C19 UNL     1      26.082   0.249  54.003  1.00  0.00     0.022 A 
BRANCH  11  13
HETATM   13  C4  UNL     1      28.444   0.477  54.474  1.00  0.00     0.040 C 
BRANCH  13  14
HETATM   14  C3  UNL     1      29.644  -0.003  53.744  1.00  0.00     0.007 C 
BRANCH  14  15
HETATM   15  C2  UNL     1      29.865  -1.464  53.662  1.00  0.00     0.026 C 
BRANCH  15  16
HETATM   16  C1  UNL     1      28.768  -2.270  53.056  1.00  0.00     0.164 C 
BRANCH  16  17
HETATM   17  O1  UNL     1      28.676  -3.577  53.424  1.00  0.00    -0.401 OA
HETATM   18  H1  UNL     1      29.545  -4.052  53.410  1.00  0.00     0.209 HD
ENDBRANCH  16  17
ENDBRANCH  15  16
ENDBRANCH  14  15
ENDBRANCH  13  14
ENDBRANCH  11  13
ENDBRANCH   1   7
BRANCH   5  19
HETATM   19  C12 UNL     1      20.098  -0.322  52.613  1.00  0.00     0.037 A 
HETATM   20  C13 UNL     1      20.109   0.434  51.440  1.00  0.00     0.030 A 
HETATM   21  C14 UNL     1      19.021   0.706  50.655  1.00  0.00     0.004 A 
HETATM   22  C15 UNL     1      17.800   0.207  51.030  1.00  0.00     0.024 A 
HETATM   23  C16 UNL     1      17.701  -0.545  52.168  1.00  0.00     0.036 A 
HETATM   24 CL1  UNL     1      16.134  -1.173  52.624  1.00  0.00    -0.084 Cl
HETATM   25  C17 UNL     1      18.833  -0.782  52.909  1.00  0.00     0.053 A 
ENDBRANCH   5  19
TORSDOF 7
ENDMDL
MODEL 2
REMARK VINA RESULT:      -8.2      4.839      7.206
REMARK  7 active torsions:
REMARK  status: ('A' for Active; 'I' for Inactive)
REMARK    1  A    between atoms: O1_1  and  C1_2 
REMARK    2  A    between atoms: C1_2  and  C2_3 
REMARK    3  A    between atoms: C2_3  and  C3_4 
REMARK    4  A    between atoms: C3_4  and  C4_5 
REMARK    5  A    between atoms: C4_5  and  C5_6 
REMARK    6  A    between atoms: C8_10  and  C9_11 
REMARK    7  A    between atoms: N3_15  and  C12_16 
ROOT
HETATM    1  C9  UNL     1      24.087   2.404  51.303  1.00  0.00    -0.011 A 
HETATM    2  C10 UNL     1      22.860   2.813  51.081  1.00  0.00     0.127 A 
HETATM    3  N2  UNL     1      22.530   3.919  50.267  1.00  0.00    -0.255 NA
HETATM    4  C11 UNL     1      23.430   4.616  49.677  1.00  0.00     0.209 A 
HETATM    5  N3  UNL     1      24.779   4.252  49.857  1.00  0.00    -0.337 N 
HETATM    6  C18 UNL     1      25.190   3.150  50.661  1.00  0.00     0.171 A 
ENDROOT
BRANCH   1   7
HETATM    7  C8  UNL     1      24.450   1.269  52.135  1.00  0.00    -0.009 A 
HETATM    8  C7  UNL     1      23.511   0.685  52.992  1.00  0.00     0.128 A 
HETATM    9  N1  UNL     1      23.797  -0.362  53.778  1.00  0.00    -0.272 NA
HETATM   10  C6  UNL     1      25.033  -0.882  53.752  1.00  0.00     0.123 A 
HETATM   11  C5  UNL     1      26.057  -0.417  52.965  1.00  0.00    -0.040 A 
HETATM   12  C19 UNL     1      25.677   0.678  52.173  1.00  0.00     0.022 A 
BRANCH  11  13
HETATM   13  C4  UNL     1      27.450  -0.841  52.808  1.00  0.00     0.040 C 
BRANCH  13  14
HETATM   14  C3  UNL     1      28.371  -0.439  53.901  1.00  0.00     0.007 C 
BRANCH  14  15
HETATM   15  C2  UNL     1      29.298   0.687  53.645  1.00  0.00     0.026 C 
BRANCH  15  16
HETATM   16  C1  UNL     1      28.728   2.058  53.769  1.00  0.00     0.164 C 
BRANCH  16  17
HETATM   17  O1  UNL     1      29.256   3.028  52.974  1.00  0.00    -0.401 OA
HETATM   18  H1  UNL     1      29.973   2.699  52.374  1.00  0.00     0.209 HD
ENDBRANCH  16  17
ENDBRANCH  15  16
ENDBRANCH  14  15
ENDBRANCH  13  14
ENDBRANCH  11  13
ENDBRANCH   1   7
BRANCH   5  19
HETATM   19  C12 UNL     1      25.839   4.968  49.241  1.00  0.00     0.037 A 
HETATM   20  C13 UNL     1      27.131   4.469  49.070  1.00  0.00     0.030 A 
HETATM   21  C14 UNL     1      28.172   5.135  48.480  1.00  0.00     0.004 A 
HETATM   22  C15 UNL     1      27.956   6.404  48.008  1.00  0.00     0.024 A 
HETATM   23  C16 UNL     1      26.717   6.968  48.136  1.00  0.00     0.036 A 
HETATM   24 CL1  UNL     1      26.467   8.587  47.525  1.00  0.00    -0.084 Cl
HETATM   25  C17 UNL     1      25.716   6.245  48.738  1.00  0.00     0.053 A 
ENDBRANCH   5  19
TORSDOF 7
ENDMDL
MODEL 3
REMARK VINA RESULT:      -8.1      5.371      8.111
REMARK  7 active torsions:
REMARK  status: ('A' for Active; 'I' for Inactive)
REMARK    1  A    between atoms: O1_1  and  C1_2 
REMARK    2  A    between atoms: C1_2  and  C2_3 
REMARK    3  A    between atoms: C2_3  and  C3_4 
REMARK    4  A    between atoms: C3_4  and  C4_5 
REMARK    5  A    between atoms: C4_5  and  C5_6 
REMARK    6  A    between atoms: C8_10  and  C9_11 
REMARK    7  A    between atoms: N3_15  and  C12_16 
ROOT
HETATM    1  C9  UNL     1      25.269   3.769  50.090  1.00  0.00    -0.011 A 
HETATM    2  C10 UNL     1      24.072   3.234  50.155  1.00  0.00     0.127 A 
HETATM    3  N2  UNL     1      23.758   2.090  50.922  1.00  0.00    -0.255 NA
HETATM    4  C11 UNL     1      24.645   1.483  51.622  1.00  0.00     0.209 A 
HETATM    5  N3  UNL     1      25.960   1.986  51.614  1.00  0.00    -0.337 N 
HETATM    6  C18 UNL     1      26.352   3.134  50.867  1.00  0.00     0.171 A 
ENDROOT
BRANCH   1   7
HETATM    7  C8  UNL     1      25.613   4.945  49.308  1.00  0.00    -0.009 A 
HETATM    8  C7  UNL     1      24.616   5.809  48.842  1.00  0.00     0.128 A 
HETATM    9  N1  UNL     1      24.883   6.905  48.119  1.00  0.00    -0.272 NA
HETATM   10  C6  UNL     1      26.158   7.199  47.822  1.00  0.00     0.123 A 
HETATM   11  C5  UNL     1      27.241   6.447  48.209  1.00  0.00    -0.040 A 
HETATM   12  C19 UNL     1      26.877   5.320  48.961  1.00  0.00     0.022 A 
BRANCH  11  13
HETATM   13  C4  UNL     1      28.679   6.600  47.978  1.00  0.00     0.040 C 
BRANCH  13  14
HETATM   14  C3  UNL     1      29.499   5.383  48.203  1.00  0.00     0.007 C 
BRANCH  14  15
HETATM   15  C2  UNL     1      30.964   5.494  48.021  1.00  0.00     0.026 C 
BRANCH  15  16
HETATM   16  C1  UNL     1      31.762   5.820  49.236  1.00  0.00     0.164 C 
BRANCH  16  17
HETATM   17  O1  UNL     1      31.280   5.389  50.434  1.00  0.00    -0.401 OA
HETATM   18  H1  UNL     1      31.263   4.403  50.520  1.00  0.00     0.209 HD
ENDBRANCH  16  17
ENDBRANCH  15  16
ENDBRANCH  14  15
ENDBRANCH  13  14
ENDBRANCH  11  13
ENDBRANCH   1   7
BRANCH   5  19
HETATM   19  C12 UNL     1      27.002   1.376  52.361  1.00  0.00     0.037 A 
HETATM   20  C13 UNL     1      27.914   2.074  53.155  1.00  0.00     0.030 A 
HETATM   21  C14 UNL     1      28.928   1.514  53.885  1.00  0.00     0.004 A 
HETATM   22  C15 UNL     1      29.087   0.153  53.853  1.00  0.00     0.024 A 
HETATM   23  C16 UNL     1      28.235  -0.606  53.098  1.00  0.00     0.036 A 
HETATM   24 CL1  UNL     1      28.457  -2.340  53.074  1.00  0.00    -0.084 Cl
HETATM   25  C17 UNL     1      27.238   0.019  52.389  1.00  0.00     0.053 A 
ENDBRANCH   5  19
TORSDOF 7
ENDMDL
MODEL 4
REMARK VINA RESULT:      -8.1      4.718      6.507
REMARK  7 active torsions:
REMARK  status: ('A' for Active; 'I' for Inactive)
REMARK    1  A    between atoms: O1_1  and  C1_2 
REMARK    2  A    between atoms: C1_2  and  C2_3 
REMARK    3  A    between atoms: C2_3  and  C3_4 
REMARK    4  A    between atoms: C3_4  and  C4_5 
REMARK    5  A    between atoms: C4_5  and  C5_6 
REMARK    6  A    between atoms: C8_10  and  C9_11 
REMARK    7  A    between atoms: N3_15  and  C12_16 
ROOT
HETATM    1  C9  UNL     1      25.605   2.415  51.205  1.00  0.00    -0.011 A 
HETATM    2  C10 UNL     1      26.753   1.846  51.490  1.00  0.00     0.127 A 
HETATM    3  N2  UNL     1      26.885   0.692  52.294  1.00  0.00    -0.255 NA
HETATM    4  C11 UNL     1      25.867   0.109  52.811  1.00  0.00     0.209 A 
HETATM    5  N3  UNL     1      24.590   0.648  52.559  1.00  0.00    -0.337 N 
HETATM    6  C18 UNL     1      24.377   1.808  51.759  1.00  0.00     0.171 A 
ENDROOT
BRANCH   1   7
HETATM    7  C8  UNL     1      25.445   3.602  50.381  1.00  0.00    -0.009 A 
HETATM    8  C7  UNL     1      24.179   4.158  50.171  1.00  0.00     0.128 A 
HETATM    9  N1  UNL     1      23.980   5.250  49.420  1.00  0.00    -0.272 NA
HETATM   10  C6  UNL     1      25.033   5.846  48.839  1.00  0.00     0.123 A 
HETATM   11  C5  UNL     1      26.332   5.415  48.954  1.00  0.00    -0.040 A 
HETATM   12  C19 UNL     1      26.454   4.270  49.755  1.00  0.00     0.022 A 
BRANCH  11  13
HETATM   13  C4  UNL     1      27.590   5.920  48.398  1.00  0.00     0.040 C 
BRANCH  13  14
HETATM   14  C3  UNL     1      27.633   7.379  48.126  1.00  0.00     0.007 C 
BRANCH  14  15
HETATM   15  C2  UNL     1      28.160   8.265  49.189  1.00  0.00     0.026 C 
BRANCH  15  16
HETATM   16  C1  UNL     1      27.151   9.005  49.997  1.00  0.00     0.164 C 
BRANCH  16  17
HETATM   17  O1  UNL     1      27.597   9.659  51.105  1.00  0.00    -0.401 OA
HETATM   18  H1  UNL     1      26.920   9.723  51.824  1.00  0.00     0.209 HD
ENDBRANCH  16  17
ENDBRANCH  15  16
ENDBRANCH  14  15
ENDBRANCH  13  14
ENDBRANCH  11  13
ENDBRANCH   1   7
BRANCH   5  19
HETATM   19  C12 UNL     1      23.410   0.066  53.091  1.00  0.00     0.037 A 
HETATM   20  C13 UNL     1      23.376  -0.757  54.217  1.00  0.00     0.030 A 
HETATM   21  C14 UNL     1      22.255  -1.332  54.752  1.00  0.00     0.004 A 
HETATM   22  C15 UNL     1      21.046  -1.098  54.150  1.00  0.00     0.024 A 
HETATM   23  C16 UNL     1      20.991  -0.301  53.039  1.00  0.00     0.036 A 
HETATM   24 CL1  UNL     1      19.437  -0.017  52.290  1.00  0.00    -0.084 Cl
HETATM   25  C17 UNL     1      22.154   0.245  52.554  1.00  0.00     0.053 A 
ENDBRANCH   5  19
TORSDOF 7
ENDMDL
MODEL 5
REMARK VINA RESULT:      -8.1      4.503      6.903
REMARK  7 active torsions:
REMARK  status: ('A' for Active; 'I' for Inactive)
REMARK    1  A    between atoms: O1_1  and  C1_2 
REMARK    2  A    between atoms: C1_2  and  C2_3 
REMARK    3  A    between atoms: C2_3  and  C3_4 
REMARK    4  A    between atoms: C3_4  and  C4_5 
REMARK    5  A    between atoms: C4_5  and  C5_6 
REMARK    6  A    between atoms: C8_10  and  C9_11 
REMARK    7  A    between atoms: N3_15  and  C12_16 
ROOT
HETATM    1  C9  UNL     1      22.841   2.908  52.034  1.00  0.00    -0.011 A 
HETATM    2  C10 UNL     1      21.849   3.766  52.089  1.00  0.00     0.127 A 
HETATM    3  N2  UNL     1      21.863   5.031  51.460  1.00  0.00    -0.255 NA
HETATM    4  C11 UNL     1      22.870   5.435  50.778  1.00  0.00     0.209 A 
HETATM    5  N3  UNL     1      23.984   4.581  50.664  1.00  0.00    -0.337 N 
HETATM    6  C18 UNL     1      24.045   3.292  51.268  1.00  0.00     0.171 A 
ENDROOT
BRANCH   1   7
HETATM    7  C8  UNL     1      22.849   1.602  52.672  1.00  0.00    -0.009 A 
HETATM    8  C7  UNL     1      21.652   0.918  52.909  1.00  0.00     0.128 A 
HETATM    9  N1  UNL     1      21.607  -0.288  53.493  1.00  0.00    -0.272 NA
HETATM   10  C6  UNL     1      22.752  -0.875  53.872  1.00  0.00     0.123 A 
HETATM   11  C5  UNL     1      24.001  -0.326  53.707  1.00  0.00    -0.040 A 
HETATM   12  C19 UNL     1      23.961   0.933  53.089  1.00  0.00     0.022 A 
BRANCH  11  13
HETATM   13  C4  UNL     1      25.340  -0.802  54.058  1.00  0.00     0.040 C 
BRANCH  13  14
HETATM   14  C3  UNL     1      26.350  -0.737  52.972  1.00  0.00     0.007 C 
BRANCH  14  15
HETATM   15  C2  UNL     1      26.952  -2.009  52.510  1.00  0.00     0.026 C 
BRANCH  15  16
HETATM   16  C1  UNL     1      28.340  -2.293  52.971  1.00  0.00     0.164 C 
BRANCH  16  17
HETATM   17  O1  UNL     1      28.610  -3.557  53.396  1.00  0.00    -0.401 OA
HETATM   18  H1  UNL     1      29.258  -3.592  54.145  1.00  0.00     0.209 HD
ENDBRANCH  16  17
ENDBRANCH  15  16
ENDBRANCH  14  15
ENDBRANCH  13  14
ENDBRANCH  11  13
ENDBRANCH   1   7
BRANCH   5  19
HETATM   19  C12 UNL     1      25.141   4.948  49.927  1.00  0.00     0.037 A 
HETATM   20  C13 UNL     1      26.172   4.070  49.590  1.00  0.00     0.030 A 
HETATM   21  C14 UNL     1      27.298   4.395  48.882  1.00  0.00     0.004 A 
HETATM   22  C15 UNL     1      27.454   5.688  48.455  1.00  0.00     0.024 A 
HETATM   23  C16 UNL     1      26.488   6.614  48.743  1.00  0.00     0.036 A 
HETATM   24 CL1  UNL     1      26.710   8.256  48.186  1.00  0.00    -0.084 Cl
HETATM   25  C17 UNL     1      25.383   6.221  49.457  1.00  0.00     0.053 A 
ENDBRANCH   5  19
TORSDOF 7
ENDMDL
MODEL 6
REMARK VINA RESULT:      -7.9      5.473      7.488
REMARK  7 active torsions:
REMARK  status: ('A' for Active; 'I' for Inactive)
REMARK    1  A    between atoms: O1_1  and  C1_2 
REMARK    2  A    between atoms: C1_2  and  C2_3 
REMARK    3  A    between atoms: C2_3  and  C3_4 
REMARK    4  A    between atoms: C3_4  and  C4_5 
REMARK    5  A    between atoms: C4_5  and  C5_6 
REMARK    6  A    between atoms: C8_10  and  C9_11 
REMARK    7  A    between atoms: N3_15  and  C12_16 
ROOT
HETATM    1  C9  UNL     1      24.908   4.029  49.563  1.00  0.00    -0.011 A 
HETATM    2  C10 UNL     1      23.683   3.897  49.110  1.00  0.00     0.127 A 
HETATM    3  N2  UNL     1      22.784   2.897  49.541  1.00  0.00    -0.255 NA
HETATM    4  C11 UNL     1      23.113   2.029  50.426  1.00  0.00     0.209 A 
HETATM    5  N3  UNL     1      24.410   2.091  50.972  1.00  0.00    -0.337 N 
HETATM    6  C18 UNL     1      25.371   3.070  50.588  1.00  0.00     0.171 A 
ENDROOT
BRANCH   1   7
HETATM    7  C8  UNL     1      25.850   5.049  49.135  1.00  0.00    -0.009 A 
HETATM    8  C7  UNL     1      25.451   6.386  49.027  1.00  0.00     0.128 A 
HETATM    9  N1  UNL     1      26.282   7.363  48.637  1.00  0.00    -0.272 NA
HETATM   10  C6  UNL     1      27.553   7.059  48.333  1.00  0.00     0.123 A 
HETATM   11  C5  UNL     1      28.087   5.795  48.391  1.00  0.00    -0.040 A 
HETATM   12  C19 UNL     1      27.155   4.833  48.808  1.00  0.00     0.022 A 
BRANCH  11  13
HETATM   13  C4  UNL     1      29.424   5.276  48.095  1.00  0.00     0.040 C 
BRANCH  13  14
HETATM   14  C3  UNL     1      30.484   6.299  47.912  1.00  0.00     0.007 C 
BRANCH  14  15
HETATM   15  C2  UNL     1      31.175   6.803  49.120  1.00  0.00     0.026 C 
BRANCH  15  16
HETATM   16  C1  UNL     1      31.995   5.817  49.877  1.00  0.00     0.164 C 
BRANCH  16  17
HETATM   17  O1  UNL     1      31.553   5.455  51.113  1.00  0.00    -0.401 OA
HETATM   18  H1  UNL     1      30.567   5.386  51.174  1.00  0.00     0.209 HD
ENDBRANCH  16  17
ENDBRANCH  15  16
ENDBRANCH  14  15
ENDBRANCH  13  14
ENDBRANCH  11  13
ENDBRANCH   1   7
BRANCH   5  19
HETATM   19  C12 UNL     1      24.856   1.171  51.956  1.00  0.00     0.037 A 
HETATM   20  C13 UNL     1      24.036   0.599  52.929  1.00  0.00     0.030 A 
HETATM   21  C14 UNL     1      24.437  -0.290  53.889  1.00  0.00     0.004 A 
HETATM   22  C15 UNL     1      25.755  -0.668  53.924  1.00  0.00     0.024 A 
HETATM   23  C16 UNL     1      26.627  -0.153  53.006  1.00  0.00     0.036 A 
HETATM   24 CL1  UNL     1      28.302  -0.652  53.070  1.00  0.00    -0.084 Cl
HETATM   25  C17 UNL     1      26.158   0.734  52.068  1.00  0.00     0.053 A 
ENDBRANCH   5  19
TORSDOF 7
ENDMDL
MODEL 7
REMARK VINA RESULT:      -7.9      4.419      7.895
REMARK  7 active torsions:
REMARK  status: ('A' for Active; 'I' for Inactive)
REMARK    1  A    between atoms: O1_1  and  C1_2 
REMARK    2  A    between atoms: C1_2  and  C2_3 
REMARK    3  A    between atoms: C2_3  and  C3_4 
REMARK    4  A    between atoms: C3_4  and  C4_5 
REMARK    5  A    between atoms: C4_5  and  C5_6 
REMARK    6  A    between atoms: C8_10  and  C9_11 
REMARK    7  A    between atoms: N3_15  and  C12_16 
ROOT
HETATM    1  C9  UNL     1      24.420   0.221  52.953  1.00  0.00    -0.011 A 
HETATM    2  C10 UNL     1      25.600  -0.280  53.239  1.00  0.00     0.127 A 
HETATM    3  N2  UNL     1      26.818   0.233  52.741  1.00  0.00    -0.255 NA
HETATM    4  C11 UNL     1      26.854   1.248  51.958  1.00  0.00     0.209 A 
HETATM    5  N3  UNL     1      25.635   1.853  51.594  1.00  0.00    -0.337 N 
HETATM    6  C18 UNL     1      24.368   1.394  52.055  1.00  0.00     0.171 A 
ENDROOT
BRANCH   1   7
HETATM    7  C8  UNL     1      23.155  -0.290  53.453  1.00  0.00    -0.009 A 
HETATM    8  C7  UNL     1      23.116  -1.114  54.583  1.00  0.00     0.128 A 
HETATM    9  N1  UNL     1      21.975  -1.609  55.082  1.00  0.00    -0.272 NA
HETATM   10  C6  UNL     1      20.813  -1.309  54.482  1.00  0.00     0.123 A 
HETATM   11  C5  UNL     1      20.694  -0.515  53.368  1.00  0.00    -0.040 A 
HETATM   12  C19 UNL     1      21.931  -0.038  52.909  1.00  0.00     0.022 A 
BRANCH  11  13
HETATM   13  C4  UNL     1      19.535  -0.090  52.580  1.00  0.00     0.040 C 
BRANCH  13  14
HETATM   14  C3  UNL     1      19.833   0.400  51.211  1.00  0.00     0.007 C 
BRANCH  14  15
HETATM   15  C2  UNL     1      19.345   1.747  50.837  1.00  0.00     0.026 C 
BRANCH  15  16
HETATM   16  C1  UNL     1      19.453   2.805  51.880  1.00  0.00     0.164 C 
BRANCH  16  17
HETATM   17  O1  UNL     1      18.391   3.645  52.030  1.00  0.00    -0.401 OA
HETATM   18  H1  UNL     1      17.705   3.304  52.657  1.00  0.00     0.209 HD
ENDBRANCH  16  17
ENDBRANCH  15  16
ENDBRANCH  14  15
ENDBRANCH  13  14
ENDBRANCH  11  13
ENDBRANCH   1   7
BRANCH   5  19
HETATM   19  C12 UNL     1      25.583   2.979  50.732  1.00  0.00     0.037 A 
HETATM   20  C13 UNL     1      24.427   3.713  50.464  1.00  0.00     0.030 A 
HETATM   21  C14 UNL     1      24.346   4.803  49.639  1.00  0.00     0.004 A 
HETATM   22  C15 UNL     1      25.484   5.233  49.006  1.00  0.00     0.024 A 
HETATM   23  C16 UNL     1      26.661   4.569  49.214  1.00  0.00     0.036 A 
HETATM   24 CL1  UNL     1      28.099   5.137  48.397  1.00  0.00    -0.084 Cl
HETATM   25  C17 UNL     1      26.673   3.483  50.056  1.00  0.00     0.053 A 
ENDBRANCH   5  19
TORSDOF 7
ENDMDL
MODEL 8
REMARK VINA RESULT:      -7.8      2.948      3.920
REMARK  7 active torsions:
REMARK  status: ('A' for Active; 'I' for Inactive)
REMARK    1  A    between atoms: O1_1  and  C1_2 
REMARK    2  A    between atoms: C1_2  and  C2_3 
REMARK    3  A    between atoms: C2_3  and  C3_4 
REMARK    4  A    between atoms: C3_4  and  C4_5 
REMARK    5  A    between atoms: C4_5  and  C5_6 
REMARK    6  A    between atoms: C8_10  and  C9_11 
REMARK    7  A    between atoms: N3_15  and  C12_16 
ROOT
HETATM    1  C9  UNL     1      23.454  -0.461  53.699  1.00  0.00    -0.011 A 
HETATM    2  C10 UNL     1      22.971  -1.048  54.769  1.00  0.00     0.127 A 
HETATM    3  N2  UNL     1      21.596  -1.288  54.987  1.00  0.00    -0.255 NA
HETATM    4  C11 UNL     1      20.707  -0.939  54.132  1.00  0.00     0.209 A 
HETATM    5  N3  UNL     1      21.131  -0.301  52.950  1.00  0.00    -0.337 N 
HETATM    6  C18 UNL     1      22.498  -0.026  52.660  1.00  0.00     0.171 A 
ENDROOT
BRANCH   1   7
HETATM    7  C8  UNL     1      24.864  -0.204  53.454  1.00  0.00    -0.009 A 
HETATM    8  C7  UNL     1      25.841  -1.090  53.922  1.00  0.00     0.128 A 
HETATM    9  N1  UNL     1      27.152  -0.897  53.721  1.00  0.00    -0.272 NA
HETATM   10  C6  UNL     1      27.558   0.188  53.045  1.00  0.00     0.123 A 
HETATM   11  C5  UNL     1      26.718   1.143  52.527  1.00  0.00    -0.040 A 
HETATM   12  C19 UNL     1      25.365   0.868  52.779  1.00  0.00     0.022 A 
BRANCH  11  13
HETATM   13  C4  UNL     1      26.971   2.378  51.781  1.00  0.00     0.040 C 
BRANCH  13  14
HETATM   14  C3  UNL     1      25.935   2.750  50.784  1.00  0.00     0.007 C 
BRANCH  14  15
HETATM   15  C2  UNL     1      26.391   3.270  49.475  1.00  0.00     0.026 C 
BRANCH  15  16
HETATM   16  C1  UNL     1      26.484   4.751  49.345  1.00  0.00     0.164 C 
BRANCH  16  17
HETATM   17  O1  UNL     1      25.866   5.502  50.298  1.00  0.00    -0.401 OA
HETATM   18  H1  UNL     1      26.302   6.377  50.455  1.00  0.00     0.209 HD
ENDBRANCH  16  17
ENDBRANCH  15  16
ENDBRANCH  14  15
ENDBRANCH  13  14
ENDBRANCH  11  13
ENDBRANCH   1   7
BRANCH   5  19
HETATM   19  C12 UNL     1      20.214   0.117  51.951  1.00  0.00     0.037 A 
HETATM   20  C13 UNL     1      18.846  -0.158  51.972  1.00  0.00     0.030 A 
HETATM   21  C14 UNL     1      17.938   0.232  51.024  1.00  0.00     0.004 A 
HETATM   22  C15 UNL     1      18.383   0.955  49.948  1.00  0.00     0.024 A 
HETATM   23  C16 UNL     1      19.710   1.269  49.850  1.00  0.00     0.036 A 
HETATM   24 CL1  UNL     1      20.253   2.194  48.469  1.00  0.00    -0.084 Cl
HETATM   25  C17 UNL     1      20.568   0.847  50.837  1.00  0.00     0.053 A 
ENDBRANCH   5  19
TORSDOF 7
ENDMDL
MODEL 9
REMARK VINA RESULT:      -7.8      4.200      7.747
REMARK  7 active torsions:
REMARK  status: ('A' for Active; 'I' for Inactive)
REMARK    1  A    between atoms: O1_1  and  C1_2 
REMARK    2  A    between atoms: C1_2  and  C2_3 
REMARK    3  A    between atoms: C2_3  and  C3_4 
REMARK    4  A    between atoms: C3_4  and  C4_5 
REMARK    5  A    between atoms: C4_5  and  C5_6 
REMARK    6  A    between atoms: C8_10  and  C9_11 
REMARK    7  A    between atoms: N3_15  and  C12_16 
ROOT
HETATM    1  C9  UNL     1      22.372  -0.502  53.749  1.00  0.00    -0.011 A 
HETATM    2  C10 UNL     1      22.267  -1.243  54.827  1.00  0.00     0.127 A 
HETATM    3  N2  UNL     1      23.345  -1.544  55.688  1.00  0.00    -0.255 NA
HETATM    4  C11 UNL     1      24.529  -1.102  55.467  1.00  0.00     0.209 A 
HETATM    5  N3  UNL     1      24.739  -0.296  54.331  1.00  0.00    -0.337 N 
HETATM    6  C18 UNL     1      23.702   0.050  53.418  1.00  0.00     0.171 A 
ENDROOT
BRANCH   1   7
HETATM    7  C8  UNL     1      21.277  -0.179  52.849  1.00  0.00    -0.009 A 
HETATM    8  C7  UNL     1      19.949  -0.369  53.247  1.00  0.00     0.128 A 
HETATM    9  N1  UNL     1      18.905  -0.086  52.455  1.00  0.00    -0.272 NA
HETATM   10  C6  UNL     1      19.130   0.399  51.224  1.00  0.00     0.123 A 
HETATM   11  C5  UNL     1      20.375   0.637  50.696  1.00  0.00    -0.040 A 
HETATM   12  C19 UNL     1      21.411   0.316  51.587  1.00  0.00     0.022 A 
BRANCH  11  13
HETATM   13  C4  UNL     1      20.812   1.147  49.395  1.00  0.00     0.040 C 
BRANCH  13  14
HETATM   14  C3  UNL     1      22.186   1.708  49.353  1.00  0.00     0.007 C 
BRANCH  14  15
HETATM   15  C2  UNL     1      22.604   2.422  48.125  1.00  0.00     0.026 C 
BRANCH  15  16
HETATM   16  C1  UNL     1      22.642   3.909  48.201  1.00  0.00     0.164 C 
BRANCH  16  17
HETATM   17  O1  UNL     1      21.571   4.533  48.765  1.00  0.00    -0.401 OA
HETATM   18  H1  UNL     1      21.703   5.506  48.889  1.00  0.00     0.209 HD
ENDBRANCH  16  17
ENDBRANCH  15  16
ENDBRANCH  14  15
ENDBRANCH  13  14
ENDBRANCH  11  13
ENDBRANCH   1   7
BRANCH   5  19
HETATM   19  C12 UNL     1      26.016   0.235  54.012  1.00  0.00     0.037 A 
HETATM   20  C13 UNL     1      26.275   1.590  53.802  1.00  0.00     0.030 A 
HETATM   21  C14 UNL     1      27.494   2.131  53.494  1.00  0.00     0.004 A 
HETATM   22  C15 UNL     1      28.573   1.293  53.373  1.00  0.00     0.024 A 
HETATM   23  C16 UNL     1      28.405  -0.051  53.563  1.00  0.00     0.036 A 
HETATM   24 CL1  UNL     1      29.796  -1.099  53.406  1.00  0.00    -0.084 Cl
HETATM   25  C17 UNL     1      27.155  -0.529  53.871  1.00  0.00     0.053 A 
ENDBRANCH   5  19
TORSDOF 7
ENDMDL
