MODEL 1
REMARK VINA RESULT:      -7.2      0.000      0.000
REMARK  3 active torsions:
REMARK  status: ('A' for Active; 'I' for Inactive)
REMARK    1  A    between atoms: C2_2  and  C3_4 
REMARK    2  A    between atoms: N1_7  and  N2_8 
REMARK    3  A    between atoms: C8_13  and  C9_14 
ROOT
HETATM    1  C3  UNL     1      25.703   1.562  53.839  1.00  0.00     0.032 C 
HETATM    2  C4  UNL     1      25.047   1.664  52.711  1.00  0.00    -0.035 C 
HETATM    3  C5  UNL     1      25.216   1.766  51.184  1.00  0.00     0.147 C 
HETATM    4  N1  UNL     1      24.853   3.001  50.687  1.00  0.00    -0.240 NA
HETATM    5  C6  UNL     1      24.408   3.246  49.365  1.00  0.00     0.193 C 
HETATM    6  S1  UNL     1      22.694   2.577  49.256  1.00  0.00    -0.090 SA
HETATM    7  S2  UNL     1      21.485   3.630  50.776  1.00  0.00    -0.130 SA
HETATM    8  C7  UNL     1      21.800   2.557  52.318  1.00  0.00     0.058 A 
HETATM    9  C8  UNL     1      22.376   3.621  52.205  1.00  0.00     0.074 A 
HETATM   10  C10 UNL     1      22.381   2.195  52.533  1.00  0.00     0.042 A 
HETATM   11  C11 UNL     1      23.541   1.481  52.786  1.00  0.00    -0.037 A 
HETATM   12  C12 UNL     1      23.585   0.091  52.999  1.00  0.00     0.008 A 
HETATM   13  C13 UNL     1      22.516  -0.831  52.994  1.00  0.00    -0.002 A 
HETATM   14  C14 UNL     1      21.400  -0.026  52.714  1.00  0.00    -0.013 A 
HETATM   15  C15 UNL     1      21.304   1.278  52.504  1.00  0.00     0.026 A 
ENDROOT
BRANCH   1  16
HETATM   16  C2  UNL     1      27.145   1.502  53.963  1.00  0.00     0.025 C 
HETATM   17  C1  UNL     1      27.821   0.497  54.511  1.00  0.00     0.037 C 
HETATM   18 CL1  UNL     1      28.472   2.553  53.528  1.00  0.00    -0.085 Cl
ENDBRANCH   1  16
BRANCH   4  19
HETATM   19  N2  UNL     1      26.002   3.880  50.892  1.00  0.00    -0.267 NA
HETATM   20  H6  UNL     1      25.822   4.772  50.400  1.00  0.00     0.137 HD
HETATM   21  H7  UNL     1      26.832   3.401  50.483  1.00  0.00     0.137 HD
ENDBRANCH   4  19
BRANCH   9  22
HETATM   22  C9  UNL     1      23.446   4.474  52.686  1.00  0.00     0.414 C 
HETATM   23  O1  UNL     1      23.903   5.616  52.440  1.00  0.00    -0.428 OA
ENDBRANCH   9  22
TORSDOF 3
ENDMDL
MODEL 2
REMARK VINA RESULT:      -7.1      2.728      4.270
REMARK  3 active torsions:
REMARK  status: ('A' for Active; 'I' for Inactive)
REMARK    1  A    between atoms: C2_2  and  C3_4 
REMARK    2  A    between atoms: N1_7  and  N2_8 
REMARK    3  A    between atoms: C8_13  and  C9_14 
ROOT
HETATM    1  C3  UNL     1      25.468   4.010  49.273  1.00  0.00     0.032 C 
HETATM    2  C4  UNL     1      24.265   4.057  49.785  1.00  0.00    -0.035 C 
HETATM    3  C5  UNL     1      23.207   5.005  50.380  1.00  0.00     0.147 C 
HETATM    4  N1  UNL     1      23.004   4.802  51.730  1.00  0.00    -0.240 NA
HETATM    5  C6  UNL     1      21.811   5.109  52.428  1.00  0.00     0.193 C 
HETATM    6  S1  UNL     1      20.573   3.835  51.938  1.00  0.00    -0.090 SA
HETATM    7  S2  UNL     1      21.408   1.866  52.495  1.00  0.00    -0.130 SA
HETATM    8  C7  UNL     1      22.444   1.445  50.953  1.00  0.00     0.058 A 
HETATM    9  C8  UNL     1      23.004   1.839  51.957  1.00  0.00     0.074 A 
HETATM   10  C10 UNL     1      22.819   1.863  50.505  1.00  0.00     0.042 A 
HETATM   11  C11 UNL     1      23.434   2.790  49.678  1.00  0.00    -0.037 A 
HETATM   12  C12 UNL     1      23.193   2.903  48.298  1.00  0.00     0.008 A 
HETATM   13  C13 UNL     1      22.313   2.143  47.496  1.00  0.00    -0.002 A 
HETATM   14  C14 UNL     1      21.730   1.255  48.414  1.00  0.00    -0.013 A 
HETATM   15  C15 UNL     1      21.918   1.109  49.716  1.00  0.00     0.026 A 
ENDROOT
BRANCH   1  16
HETATM   16  C2  UNL     1      26.341   5.150  49.089  1.00  0.00     0.025 C 
HETATM   17  C1  UNL     1      27.586   5.089  48.624  1.00  0.00     0.037 C 
HETATM   18 CL1  UNL     1      26.205   6.872  49.352  1.00  0.00    -0.085 Cl
ENDBRANCH   1  16
BRANCH   4  19
HETATM   19  N2  UNL     1      24.070   5.526  52.419  1.00  0.00    -0.267 NA
HETATM   20  H6  UNL     1      24.413   6.274  51.793  1.00  0.00     0.137 HD
HETATM   21  H7  UNL     1      24.830   4.840  52.615  1.00  0.00     0.137 HD
ENDBRANCH   4  19
BRANCH   9  22
HETATM   22  C9  UNL     1      24.232   2.353  52.534  1.00  0.00     0.414 C 
HETATM   23  O1  UNL     1      24.621   2.795  53.641  1.00  0.00    -0.428 OA
ENDBRANCH   9  22
TORSDOF 3
ENDMDL
MODEL 3
REMARK VINA RESULT:      -7.0      2.933      4.520
REMARK  3 active torsions:
REMARK  status: ('A' for Active; 'I' for Inactive)
REMARK    1  A    between atoms: C2_2  and  C3_4 
REMARK    2  A    between atoms: N1_7  and  N2_8 
REMARK    3  A    between atoms: C8_13  and  C9_14 
ROOT
HETATM    1  C3  UNL     1      23.075   0.755  52.341  1.00  0.00     0.032 C 
HETATM    2  C4  UNL     1      23.178   2.034  52.085  1.00  0.00    -0.035 C 
HETATM    3  C5  UNL     1      22.770   3.434  52.580  1.00  0.00     0.147 C 
HETATM    4  N1  UNL     1      21.875   4.061  51.735  1.00  0.00    -0.240 NA
HETATM    5  C6  UNL     1      21.716   5.463  51.616  1.00  0.00     0.193 C 
HETATM    6  S1  UNL     1      23.187   6.081  50.695  1.00  0.00    -0.090 SA
HETATM    7  S2  UNL     1      23.213   5.053  48.739  1.00  0.00    -0.130 SA
HETATM    8  C7  UNL     1      24.158   3.454  49.165  1.00  0.00     0.058 A 
HETATM    9  C8  UNL     1      22.950   3.416  49.042  1.00  0.00     0.074 A 
HETATM   10  C10 UNL     1      24.171   3.057  49.763  1.00  0.00     0.042 A 
HETATM   11  C11 UNL     1      24.164   2.429  50.998  1.00  0.00    -0.037 A 
HETATM   12  C12 UNL     1      25.316   2.168  51.761  1.00  0.00     0.008 A 
HETATM   13  C13 UNL     1      26.659   2.478  51.455  1.00  0.00    -0.002 A 
HETATM   14  C14 UNL     1      26.564   3.119  50.209  1.00  0.00    -0.013 A 
HETATM   15  C15 UNL     1      25.511   3.391  49.454  1.00  0.00     0.026 A 
ENDROOT
BRANCH   1  16
HETATM   16  C2  UNL     1      22.355   0.184  53.460  1.00  0.00     0.025 C 
HETATM   17  C1  UNL     1      22.796  -0.816  54.219  1.00  0.00     0.037 C 
HETATM   18 CL1  UNL     1      20.811   0.480  54.223  1.00  0.00    -0.085 Cl
ENDBRANCH   1  16
BRANCH   4  19
HETATM   19  N2  UNL     1      20.555   3.534  52.073  1.00  0.00    -0.267 NA
HETATM   20  H6  UNL     1      20.241   3.982  52.951  1.00  0.00     0.137 HD
HETATM   21  H7  UNL     1      20.659   2.506  52.207  1.00  0.00     0.137 HD
ENDBRANCH   4  19
BRANCH   9  22
HETATM   22  C9  UNL     1      21.736   2.652  49.257  1.00  0.00     0.414 C 
HETATM   23  O1  UNL     1      20.512   2.767  49.006  1.00  0.00    -0.428 OA
ENDBRANCH   9  22
TORSDOF 3
ENDMDL
MODEL 4
REMARK VINA RESULT:      -6.8      2.216      2.512
REMARK  3 active torsions:
REMARK  status: ('A' for Active; 'I' for Inactive)
REMARK    1  A    between atoms: C2_2  and  C3_4 
REMARK    2  A    between atoms: N1_7  and  N2_8 
REMARK    3  A    between atoms: C8_13  and  C9_14 
ROOT
HETATM    1  C3  UNL     1      24.615   2.215  52.140  1.00  0.00     0.032 C 
HETATM    2  C4  UNL     1      23.495   1.902  51.541  1.00  0.00    -0.035 C 
HETATM    3  C5  UNL     1      22.858   1.638  50.164  1.00  0.00     0.147 C 
HETATM    4  N1  UNL     1      21.957   2.616  49.795  1.00  0.00    -0.240 NA
HETATM    5  C6  UNL     1      20.873   2.428  48.902  1.00  0.00     0.193 C 
HETATM    6  S1  UNL     1      19.606   1.449  49.814  1.00  0.00    -0.090 SA
HETATM    7  S2  UNL     1      19.046   2.615  51.606  1.00  0.00    -0.130 SA
HETATM    8  C7  UNL     1      20.372   2.051  52.853  1.00  0.00     0.058 A 
HETATM    9  C8  UNL     1      20.480   3.137  52.320  1.00  0.00     0.074 A 
HETATM   10  C10 UNL     1      21.060   1.869  52.762  1.00  0.00     0.042 A 
HETATM   11  C11 UNL     1      22.347   1.469  52.436  1.00  0.00    -0.037 A 
HETATM   12  C12 UNL     1      22.892   0.214  52.757  1.00  0.00     0.008 A 
HETATM   13  C13 UNL     1      22.279  -0.860  53.440  1.00  0.00    -0.002 A 
HETATM   14  C14 UNL     1      20.990  -0.373  53.710  1.00  0.00    -0.013 A 
HETATM   15  C15 UNL     1      20.428   0.793  53.429  1.00  0.00     0.026 A 
ENDROOT
BRANCH   1  16
HETATM   16  C2  UNL     1      25.879   2.455  51.475  1.00  0.00     0.025 C 
HETATM   17  C1  UNL     1      27.074   2.167  51.983  1.00  0.00     0.037 C 
HETATM   18 CL1  UNL     1      26.363   3.135  49.940  1.00  0.00    -0.085 Cl
ENDBRANCH   1  16
BRANCH   4  19
HETATM   19  N2  UNL     1      22.746   3.715  49.242  1.00  0.00    -0.267 NA
HETATM   20  H6  UNL     1      23.357   3.335  48.499  1.00  0.00     0.137 HD
HETATM   21  H7  UNL     1      23.320   4.103  50.020  1.00  0.00     0.137 HD
ENDBRANCH   4  19
BRANCH   9  22
HETATM   22  C9  UNL     1      21.347   4.267  52.042  1.00  0.00     0.414 C 
HETATM   23  O1  UNL     1      21.272   5.368  51.446  1.00  0.00    -0.428 OA
ENDBRANCH   9  22
TORSDOF 3
ENDMDL
MODEL 5
REMARK VINA RESULT:      -6.7      3.504      5.231
REMARK  3 active torsions:
REMARK  status: ('A' for Active; 'I' for Inactive)
REMARK    1  A    between atoms: C2_2  and  C3_4 
REMARK    2  A    between atoms: N1_7  and  N2_8 
REMARK    3  A    between atoms: C8_13  and  C9_14 
ROOT
HETATM    1  C3  UNL     1      20.182   0.258  51.268  1.00  0.00     0.032 C 
HETATM    2  C4  UNL     1      20.873   1.272  51.722  1.00  0.00    -0.035 C 
HETATM    3  C5  UNL     1      20.752   2.671  52.354  1.00  0.00     0.147 C 
HETATM    4  N1  UNL     1      21.167   3.679  51.508  1.00  0.00    -0.240 NA
HETATM    5  C6  UNL     1      21.658   4.940  51.925  1.00  0.00     0.193 C 
HETATM    6  S1  UNL     1      23.352   4.650  52.589  1.00  0.00    -0.090 SA
HETATM    7  S2  UNL     1      24.550   3.763  50.957  1.00  0.00    -0.130 SA
HETATM    8  C7  UNL     1      24.157   1.911  51.165  1.00  0.00     0.058 A 
HETATM    9  C8  UNL     1      23.617   2.537  50.275  1.00  0.00     0.074 A 
HETATM   10  C10 UNL     1      23.559   1.574  51.375  1.00  0.00     0.042 A 
HETATM   11  C11 UNL     1      22.370   1.059  51.868  1.00  0.00    -0.037 A 
HETATM   12  C12 UNL     1      22.277   0.216  52.989  1.00  0.00     0.008 A 
HETATM   13  C13 UNL     1      23.317  -0.259  53.818  1.00  0.00    -0.002 A 
HETATM   14  C14 UNL     1      24.465   0.323  53.257  1.00  0.00    -0.013 A 
HETATM   15  C15 UNL     1      24.607   1.121  52.210  1.00  0.00     0.026 A 
ENDROOT
BRANCH   1  16
HETATM   16  C2  UNL     1      18.736   0.179  51.242  1.00  0.00     0.025 C 
HETATM   17  C1  UNL     1      17.992  -0.456  52.144  1.00  0.00     0.037 C 
HETATM   18 CL1  UNL     1      17.480   0.776  50.185  1.00  0.00    -0.085 Cl
ENDBRANCH   1  16
BRANCH   4  19
HETATM   19  N2  UNL     1      20.041   3.961  50.621  1.00  0.00    -0.267 NA
HETATM   20  H6  UNL     1      20.259   4.812  50.077  1.00  0.00     0.137 HD
HETATM   21  H7  UNL     1      19.207   4.120  51.225  1.00  0.00     0.137 HD
ENDBRANCH   4  19
BRANCH   9  22
HETATM   22  C9  UNL     1      22.560   2.560  49.282  1.00  0.00     0.414 C 
HETATM   23  O1  UNL     1      22.172   3.317  48.359  1.00  0.00    -0.428 OA
ENDBRANCH   9  22
TORSDOF 3
ENDMDL
MODEL 6
REMARK VINA RESULT:      -6.7      2.517      3.773
REMARK  3 active torsions:
REMARK  status: ('A' for Active; 'I' for Inactive)
REMARK    1  A    between atoms: C2_2  and  C3_4 
REMARK    2  A    between atoms: N1_7  and  N2_8 
REMARK    3  A    between atoms: C8_13  and  C9_14 
ROOT
HETATM    1  C3  UNL     1      25.875   4.469  50.219  1.00  0.00     0.032 C 
HETATM    2  C4  UNL     1      24.931   3.570  50.111  1.00  0.00    -0.035 C 
HETATM    3  C5  UNL     1      23.972   2.892  49.115  1.00  0.00     0.147 C 
HETATM    4  N1  UNL     1      22.650   3.225  49.333  1.00  0.00    -0.240 NA
HETATM    5  C6  UNL     1      21.539   2.424  48.970  1.00  0.00     0.193 C 
HETATM    6  S1  UNL     1      21.496   1.018  50.160  1.00  0.00    -0.090 SA
HETATM    7  S2  UNL     1      21.303   1.882  52.185  1.00  0.00    -0.130 SA
HETATM    8  C7  UNL     1      23.127   2.199  52.635  1.00  0.00     0.058 A 
HETATM    9  C8  UNL     1      22.427   3.132  52.294  1.00  0.00     0.074 A 
HETATM   10  C10 UNL     1      23.688   2.392  52.231  1.00  0.00     0.042 A 
HETATM   11  C11 UNL     1      24.695   2.688  51.326  1.00  0.00    -0.037 A 
HETATM   12  C12 UNL     1      25.869   1.931  51.172  1.00  0.00     0.008 A 
HETATM   13  C13 UNL     1      26.255   0.761  51.863  1.00  0.00    -0.002 A 
HETATM   14  C14 UNL     1      25.178   0.533  52.733  1.00  0.00    -0.013 A 
HETATM   15  C15 UNL     1      24.054   1.209  52.915  1.00  0.00     0.026 A 
ENDROOT
BRANCH   1  16
HETATM   16  C2  UNL     1      26.394   5.268  49.128  1.00  0.00     0.025 C 
HETATM   17  C1  UNL     1      27.583   5.096  48.558  1.00  0.00     0.037 C 
HETATM   18 CL1  UNL     1      25.807   6.623  48.194  1.00  0.00    -0.085 Cl
ENDBRANCH   1  16
BRANCH   4  19
HETATM   19  N2  UNL     1      22.440   4.518  48.686  1.00  0.00    -0.267 NA
HETATM   20  H6  UNL     1      23.365   4.923  48.460  1.00  0.00     0.137 HD
HETATM   21  H7  UNL     1      21.935   5.124  49.367  1.00  0.00     0.137 HD
ENDBRANCH   4  19
BRANCH   9  22
HETATM   22  C9  UNL     1      22.383   4.517  51.864  1.00  0.00     0.414 C 
HETATM   23  O1  UNL     1      21.511   5.363  51.552  1.00  0.00    -0.428 OA
ENDBRANCH   9  22
TORSDOF 3
ENDMDL
MODEL 7
REMARK VINA RESULT:      -6.6      2.795      4.626
REMARK  3 active torsions:
REMARK  status: ('A' for Active; 'I' for Inactive)
REMARK    1  A    between atoms: C2_2  and  C3_4 
REMARK    2  A    between atoms: N1_7  and  N2_8 
REMARK    3  A    between atoms: C8_13  and  C9_14 
ROOT
HETATM    1  C3  UNL     1      26.084   2.386  50.707  1.00  0.00     0.032 C 
HETATM    2  C4  UNL     1      25.061   3.179  50.899  1.00  0.00    -0.035 C 
HETATM    3  C5  UNL     1      24.077   3.698  51.965  1.00  0.00     0.147 C 
HETATM    4  N1  UNL     1      22.787   3.248  51.767  1.00  0.00    -0.240 NA
HETATM    5  C6  UNL     1      21.618   3.911  52.212  1.00  0.00     0.193 C 
HETATM    6  S1  UNL     1      21.394   5.374  51.114  1.00  0.00    -0.090 SA
HETATM    7  S2  UNL     1      21.213   4.616  49.046  1.00  0.00    -0.130 SA
HETATM    8  C7  UNL     1      23.042   4.509  48.522  1.00  0.00     0.058 A 
HETATM    9  C8  UNL     1      22.449   3.493  48.825  1.00  0.00     0.074 A 
HETATM   10  C10 UNL     1      23.633   4.350  48.896  1.00  0.00     0.042 A 
HETATM   11  C11 UNL     1      24.697   4.102  49.750  1.00  0.00    -0.037 A 
HETATM   12  C12 UNL     1      25.796   4.963  49.915  1.00  0.00     0.008 A 
HETATM   13  C13 UNL     1      26.041   6.204  49.287  1.00  0.00    -0.002 A 
HETATM   14  C14 UNL     1      24.915   6.375  48.466  1.00  0.00    -0.013 A 
HETATM   15  C15 UNL     1      23.857   5.601  48.276  1.00  0.00     0.026 A 
ENDROOT
BRANCH   1  16
HETATM   16  C2  UNL     1      26.718   1.580  51.730  1.00  0.00     0.025 C 
HETATM   17  C1  UNL     1      27.464   2.058  52.722  1.00  0.00     0.037 C 
HETATM   18 CL1  UNL     1      26.799  -0.128  52.091  1.00  0.00    -0.085 Cl
ENDBRANCH   1  16
BRANCH   4  19
HETATM   19  N2  UNL     1      22.729   1.904  52.338  1.00  0.00    -0.267 NA
HETATM   20  H6  UNL     1      22.437   1.247  51.594  1.00  0.00     0.137 HD
HETATM   21  H7  UNL     1      22.020   1.926  53.101  1.00  0.00     0.137 HD
ENDBRANCH   4  19
BRANCH   9  22
HETATM   22  C9  UNL     1      22.556   2.088  49.169  1.00  0.00     0.414 C 
HETATM   23  O1  UNL     1      21.781   1.132  49.414  1.00  0.00    -0.428 OA
ENDBRANCH   9  22
TORSDOF 3
ENDMDL
MODEL 8
REMARK VINA RESULT:      -6.5      9.963     11.642
REMARK  3 active torsions:
REMARK  status: ('A' for Active; 'I' for Inactive)
REMARK    1  A    between atoms: C2_2  and  C3_4 
REMARK    2  A    between atoms: N1_7  and  N2_8 
REMARK    3  A    between atoms: C8_13  and  C9_14 
ROOT
HETATM    1  C3  UNL     1      32.252   3.157  46.312  1.00  0.00     0.032 C 
HETATM    2  C4  UNL     1      32.912   4.280  46.431  1.00  0.00    -0.035 C 
HETATM    3  C5  UNL     1      34.067   4.965  47.184  1.00  0.00     0.147 C 
HETATM    4  N1  UNL     1      33.633   5.952  48.046  1.00  0.00    -0.240 NA
HETATM    5  C6  UNL     1      34.405   7.063  48.465  1.00  0.00     0.193 C 
HETATM    6  S1  UNL     1      34.501   8.209  47.025  1.00  0.00    -0.090 SA
HETATM    7  S2  UNL     1      32.428   8.760  46.492  1.00  0.00    -0.130 SA
HETATM    8  C7  UNL     1      31.948   7.336  45.320  1.00  0.00     0.058 A 
HETATM    9  C8  UNL     1      31.533   7.333  46.462  1.00  0.00     0.074 A 
HETATM   10  C10 UNL     1      32.130   6.642  45.319  1.00  0.00     0.042 A 
HETATM   11  C11 UNL     1      32.622   5.348  45.390  1.00  0.00    -0.037 A 
HETATM   12  C12 UNL     1      33.295   4.698  44.340  1.00  0.00     0.008 A 
HETATM   13  C13 UNL     1      33.607   5.197  43.056  1.00  0.00    -0.002 A 
HETATM   14  C14 UNL     1      33.091   6.503  43.086  1.00  0.00    -0.013 A 
HETATM   15  C15 UNL     1      32.455   7.160  44.043  1.00  0.00     0.026 A 
ENDROOT
BRANCH   1  16
HETATM   16  C2  UNL     1      32.518   1.949  47.065  1.00  0.00     0.025 C 
HETATM   17  C1  UNL     1      32.117   0.730  46.716  1.00  0.00     0.037 C 
HETATM   18 CL1  UNL     1      33.350   1.575  48.555  1.00  0.00    -0.085 Cl
ENDBRANCH   1  16
BRANCH   4  19
HETATM   19  N2  UNL     1      33.211   5.273  49.269  1.00  0.00    -0.267 NA
HETATM   20  H6  UNL     1      34.055   5.031  49.815  1.00  0.00     0.137 HD
HETATM   21  H7  UNL     1      32.704   4.409  48.982  1.00  0.00     0.137 HD
ENDBRANCH   4  19
BRANCH   9  22
HETATM   22  C9  UNL     1      30.896   6.565  47.515  1.00  0.00     0.414 C 
HETATM   23  O1  UNL     1      30.492   6.757  48.687  1.00  0.00    -0.428 OA
ENDBRANCH   9  22
TORSDOF 3
ENDMDL
MODEL 9
REMARK VINA RESULT:      -6.4      8.414     10.517
REMARK  3 active torsions:
REMARK  status: ('A' for Active; 'I' for Inactive)
REMARK    1  A    between atoms: C2_2  and  C3_4 
REMARK    2  A    between atoms: N1_7  and  N2_8 
REMARK    3  A    between atoms: C8_13  and  C9_14 
ROOT
HETATM    1  C3  UNL     1      32.325   4.288  46.622  1.00  0.00     0.032 C 
HETATM    2  C4  UNL     1      32.219   5.500  47.104  1.00  0.00    -0.035 C 
HETATM    3  C5  UNL     1      32.722   6.442  48.213  1.00  0.00     0.147 C 
HETATM    4  N1  UNL     1      31.744   6.753  49.137  1.00  0.00    -0.240 NA
HETATM    5  C6  UNL     1      31.716   7.928  49.926  1.00  0.00     0.193 C 
HETATM    6  S1  UNL     1      31.245   9.307  48.798  1.00  0.00    -0.090 SA
HETATM    7  S2  UNL     1      29.271   8.804  47.942  1.00  0.00    -0.130 SA
HETATM    8  C7  UNL     1      29.771   7.750  46.436  1.00  0.00     0.058 A 
HETATM    9  C8  UNL     1      29.351   7.200  47.435  1.00  0.00     0.074 A 
HETATM   10  C10 UNL     1      30.314   7.292  46.337  1.00  0.00     0.042 A 
HETATM   11  C11 UNL     1      31.448   6.499  46.257  1.00  0.00    -0.037 A 
HETATM   12  C12 UNL     1      32.444   6.638  45.274  1.00  0.00     0.008 A 
HETATM   13  C13 UNL     1      32.507   7.570  44.215  1.00  0.00    -0.002 A 
HETATM   14  C14 UNL     1      31.340   8.331  44.388  1.00  0.00    -0.013 A 
HETATM   15  C15 UNL     1      30.376   8.244  45.293  1.00  0.00     0.026 A 
ENDROOT
BRANCH   1  16
HETATM   16  C2  UNL     1      33.176   3.248  47.162  1.00  0.00     0.025 C 
HETATM   17  C1  UNL     1      32.888   1.949  47.156  1.00  0.00     0.037 C 
HETATM   18 CL1  UNL     1      34.732   3.206  47.955  1.00  0.00    -0.085 Cl
ENDBRANCH   1  16
BRANCH   4  19
HETATM   19  N2  UNL     1      31.698   5.636  50.077  1.00  0.00    -0.267 NA
HETATM   20  H6  UNL     1      31.171   5.937  50.915  1.00  0.00     0.137 HD
HETATM   21  H7  UNL     1      32.682   5.407  50.331  1.00  0.00     0.137 HD
ENDBRANCH   4  19
BRANCH   9  22
HETATM   22  C9  UNL     1      29.191   5.947  48.148  1.00  0.00     0.414 C 
HETATM   23  O1  UNL     1      28.251   5.191  48.494  1.00  0.00    -0.428 OA
ENDBRANCH   9  22
TORSDOF 3
ENDMDL
