MODEL 1
REMARK VINA RESULT:      -8.2      0.000      0.000
REMARK  4 active torsions:
REMARK  status: ('A' for Active; 'I' for Inactive)
REMARK    1  A    between atoms: N1_4  and  C4_5 
REMARK    2  A    between atoms: C4_5  and  C5_6 
REMARK    3  A    between atoms: C8_9  and  O1_10 
REMARK    4  A    between atoms: C18_23  and  O3_24 
ROOT
HETATM    1  C1  UNL     1      22.293  -1.451  54.951  1.00  0.00     0.023 C 
HETATM    2  C2  UNL     1      22.992  -0.880  53.992  1.00  0.00    -0.004 C 
HETATM    3  C3  UNL     1      22.184  -0.532  52.770  1.00  0.00     0.321 C 
HETATM    4  N1  UNL     1      21.980   0.958  52.722  1.00  0.00     0.121 N 
HETATM    5  C11 UNL     1      22.512   2.254  52.449  1.00  0.00     0.447 A 
HETATM    6  O2  UNL     1      23.089   1.191  52.534  1.00  0.00    -0.123 OA
HETATM    7  N2  UNL     1      23.763   2.901  52.196  1.00  0.00    -0.355 N 
HETATM    8  C12 UNL     1      25.244   2.780  52.056  1.00  0.00     0.147 C 
HETATM    9  C13 UNL     1      25.796   2.309  53.360  1.00  0.00     0.005 C 
HETATM   10  C14 UNL     1      27.080   2.072  53.082  1.00  0.00    -0.016 C 
HETATM   11  C15 UNL     1      27.087   1.164  52.121  1.00  0.00    -0.012 C 
HETATM   12  C16 UNL     1      26.096   0.341  52.283  1.00  0.00     0.040 C 
HETATM   13  C17 UNL     1      25.601  -0.253  53.524  1.00  0.00     0.068 C 
HETATM   14 CL1  UNL     1      27.110  -0.436  54.394  1.00  0.00    -0.081 Cl
HETATM   15  C18 UNL     1      24.476  -0.682  54.107  1.00  0.00     0.094 C 
HETATM   16  H12 UNL     1      23.075   3.691  52.127  1.00  0.00     0.158 HD
ENDROOT
BRANCH   4  17
HETATM   17  C4  UNL     1      20.613   1.346  53.117  1.00  0.00     0.319 C 
BRANCH  17  18
HETATM   18  C5  UNL     1      19.586   0.823  52.177  1.00  0.00    -0.029 A 
HETATM   19  C6  UNL     1      19.595   1.436  50.918  1.00  0.00     0.012 A 
HETATM   20  C7  UNL     1      18.680   1.022  49.971  1.00  0.00     0.037 A 
HETATM   21  C8  UNL     1      17.766   0.024  50.238  1.00  0.00     0.065 A 
HETATM   22  C9  UNL     1      17.759  -0.582  51.486  1.00  0.00     0.037 A 
HETATM   23  C10 UNL     1      18.674  -0.180  52.459  1.00  0.00     0.012 A 
BRANCH  21  24
HETATM   24  O1  UNL     1      16.809  -0.454  49.340  1.00  0.00    -0.361 OA
HETATM   25  H9  UNL     1      16.113  -1.128  49.662  1.00  0.00     0.217 HD
ENDBRANCH  21  24
ENDBRANCH  17  18
ENDBRANCH   4  17
BRANCH  15  26
HETATM   26  O3  UNL     1      24.786  -1.170  55.408  1.00  0.00    -0.358 OA
HETATM   27  H17 UNL     1      24.647  -2.160  55.595  1.00  0.00     0.217 HD
ENDBRANCH  15  26
TORSDOF 4
ENDMDL
MODEL 2
REMARK VINA RESULT:      -8.1      2.844      7.067
REMARK  4 active torsions:
REMARK  status: ('A' for Active; 'I' for Inactive)
REMARK    1  A    between atoms: N1_4  and  C4_5 
REMARK    2  A    between atoms: C4_5  and  C5_6 
REMARK    3  A    between atoms: C8_9  and  O1_10 
REMARK    4  A    between atoms: C18_23  and  O3_24 
ROOT
HETATM    1  C1  UNL     1      24.934   3.082  53.428  1.00  0.00     0.023 C 
HETATM    2  C2  UNL     1      24.064   2.474  52.647  1.00  0.00    -0.004 C 
HETATM    3  C3  UNL     1      24.449   1.064  52.285  1.00  0.00     0.321 C 
HETATM    4  N1  UNL     1      23.573   0.103  53.043  1.00  0.00     0.121 N 
HETATM    5  C11 UNL     1      22.304  -0.533  53.191  1.00  0.00     0.447 A 
HETATM    6  O2  UNL     1      22.614   0.401  52.483  1.00  0.00    -0.123 OA
HETATM    7  N2  UNL     1      20.960  -0.437  52.709  1.00  0.00    -0.355 N 
HETATM    8  C12 UNL     1      19.974   0.274  51.843  1.00  0.00     0.147 C 
HETATM    9  C13 UNL     1      19.857   1.678  52.332  1.00  0.00     0.005 C 
HETATM   10  C14 UNL     1      19.098   2.264  51.402  1.00  0.00    -0.016 C 
HETATM   11  C15 UNL     1      19.749   2.131  50.259  1.00  0.00    -0.012 C 
HETATM   12  C16 UNL     1      21.028   2.203  50.467  1.00  0.00     0.040 C 
HETATM   13  C17 UNL     1      21.756   3.113  51.349  1.00  0.00     0.068 C 
HETATM   14 CL1  UNL     1      20.761   4.545  51.193  1.00  0.00    -0.081 Cl
HETATM   15  C18 UNL     1      22.849   3.180  52.119  1.00  0.00     0.094 C 
HETATM   16  H12 UNL     1      20.917  -1.264  53.355  1.00  0.00     0.158 HD
ENDROOT
BRANCH   4  17
HETATM   17  C4  UNL     1      24.285  -0.529  54.169  1.00  0.00     0.319 C 
BRANCH  17  18
HETATM   18  C5  UNL     1      25.755  -0.566  53.955  1.00  0.00    -0.029 A 
HETATM   19  C6  UNL     1      26.491   0.175  54.888  1.00  0.00     0.012 A 
HETATM   20  C7  UNL     1      27.866   0.206  54.777  1.00  0.00     0.037 A 
HETATM   21  C8  UNL     1      28.525  -0.474  53.774  1.00  0.00     0.065 A 
HETATM   22  C9  UNL     1      27.794  -1.208  52.850  1.00  0.00     0.037 A 
HETATM   23  C10 UNL     1      26.403  -1.254  52.942  1.00  0.00     0.012 A 
BRANCH  21  24
HETATM   24  O1  UNL     1      29.909  -0.497  53.590  1.00  0.00    -0.361 OA
HETATM   25  H9  UNL     1      30.287  -0.632  52.651  1.00  0.00     0.217 HD
ENDBRANCH  21  24
ENDBRANCH  17  18
ENDBRANCH   4  17
BRANCH  15  26
HETATM   26  O3  UNL     1      22.919   4.471  52.712  1.00  0.00    -0.358 OA
HETATM   27  H17 UNL     1      23.749   5.033  52.542  1.00  0.00     0.217 HD
ENDBRANCH  15  26
TORSDOF 4
ENDMDL
MODEL 3
REMARK VINA RESULT:      -7.9      3.899      6.583
REMARK  4 active torsions:
REMARK  status: ('A' for Active; 'I' for Inactive)
REMARK    1  A    between atoms: N1_4  and  C4_5 
REMARK    2  A    between atoms: C4_5  and  C5_6 
REMARK    3  A    between atoms: C8_9  and  O1_10 
REMARK    4  A    between atoms: C18_23  and  O3_24 
ROOT
HETATM    1  C1  UNL     1      21.238   4.103  52.142  1.00  0.00     0.023 C 
HETATM    2  C2  UNL     1      22.463   4.538  51.930  1.00  0.00    -0.004 C 
HETATM    3  C3  UNL     1      23.535   3.644  52.496  1.00  0.00     0.321 C 
HETATM    4  N1  UNL     1      24.215   2.915  51.368  1.00  0.00     0.121 N 
HETATM    5  C11 UNL     1      25.140   2.940  50.282  1.00  0.00     0.447 A 
HETATM    6  O2  UNL     1      24.691   3.863  50.927  1.00  0.00    -0.123 OA
HETATM    7  N2  UNL     1      25.887   3.871  49.492  1.00  0.00    -0.355 N 
HETATM    8  C12 UNL     1      26.230   5.294  49.201  1.00  0.00     0.147 C 
HETATM    9  C13 UNL     1      24.984   5.993  48.774  1.00  0.00     0.005 C 
HETATM   10  C14 UNL     1      25.359   7.273  48.706  1.00  0.00    -0.016 C 
HETATM   11  C15 UNL     1      25.785   7.596  49.916  1.00  0.00    -0.012 C 
HETATM   12  C16 UNL     1      25.086   6.971  50.813  1.00  0.00     0.040 C 
HETATM   13  C17 UNL     1      23.643   6.739  50.841  1.00  0.00     0.068 C 
HETATM   14 CL1  UNL     1      23.083   8.222  50.097  1.00  0.00    -0.081 Cl
HETATM   15  C18 UNL     1      22.730   5.852  51.253  1.00  0.00     0.094 C 
HETATM   16  H12 UNL     1      26.177   2.942  49.095  1.00  0.00     0.158 HD
ENDROOT
BRANCH   4  17
HETATM   17  C4  UNL     1      23.791   1.505  51.282  1.00  0.00     0.319 C 
BRANCH  17  18
HETATM   18  C5  UNL     1      24.177   0.727  52.488  1.00  0.00    -0.029 A 
HETATM   19  C6  UNL     1      23.116   0.045  53.096  1.00  0.00     0.012 A 
HETATM   20  C7  UNL     1      23.370  -0.708  54.225  1.00  0.00     0.037 A 
HETATM   21  C8  UNL     1      24.637  -0.801  54.761  1.00  0.00     0.065 A 
HETATM   22  C9  UNL     1      25.688  -0.124  54.157  1.00  0.00     0.037 A 
HETATM   23  C10 UNL     1      25.455   0.643  53.015  1.00  0.00     0.012 A 
BRANCH  21  24
HETATM   24  O1  UNL     1      24.980  -1.539  55.896  1.00  0.00    -0.361 OA
HETATM   25  H9  UNL     1      24.926  -1.097  56.815  1.00  0.00     0.217 HD
ENDBRANCH  21  24
ENDBRANCH  17  18
ENDBRANCH   4  17
BRANCH  15  26
HETATM   26  O3  UNL     1      21.433   6.332  50.917  1.00  0.00    -0.358 OA
HETATM   27  H17 UNL     1      21.128   6.256  49.950  1.00  0.00     0.217 HD
ENDBRANCH  15  26
TORSDOF 4
ENDMDL
MODEL 4
REMARK VINA RESULT:      -7.9      4.483      6.161
REMARK  4 active torsions:
REMARK  status: ('A' for Active; 'I' for Inactive)
REMARK    1  A    between atoms: N1_4  and  C4_5 
REMARK    2  A    between atoms: C4_5  and  C5_6 
REMARK    3  A    between atoms: C8_9  and  O1_10 
REMARK    4  A    between atoms: C18_23  and  O3_24 
ROOT
HETATM    1  C1  UNL     1      26.457   2.739  50.334  1.00  0.00     0.023 C 
HETATM    2  C2  UNL     1      25.838   3.823  49.914  1.00  0.00    -0.004 C 
HETATM    3  C3  UNL     1      24.349   3.804  50.142  1.00  0.00     0.321 C 
HETATM    4  N1  UNL     1      24.010   4.743  51.268  1.00  0.00     0.121 N 
HETATM    5  C11 UNL     1      23.825   6.082  51.726  1.00  0.00     0.447 A 
HETATM    6  O2  UNL     1      24.303   5.688  50.684  1.00  0.00    -0.123 OA
HETATM    7  N2  UNL     1      24.065   7.432  51.313  1.00  0.00    -0.355 N 
HETATM    8  C12 UNL     1      24.613   8.360  50.281  1.00  0.00     0.147 C 
HETATM    9  C13 UNL     1      26.077   8.103  50.157  1.00  0.00     0.005 C 
HETATM   10  C14 UNL     1      26.431   8.849  49.107  1.00  0.00    -0.016 C 
HETATM   11  C15 UNL     1      25.708   8.416  48.088  1.00  0.00    -0.012 C 
HETATM   12  C16 UNL     1      25.527   7.134  48.186  1.00  0.00     0.040 C 
HETATM   13  C17 UNL     1      26.490   6.108  48.583  1.00  0.00     0.068 C 
HETATM   14 CL1  UNL     1      27.953   6.788  47.903  1.00  0.00    -0.081 Cl
HETATM   15  C18 UNL     1      26.569   4.925  49.203  1.00  0.00     0.094 C 
HETATM   16  H12 UNL     1      23.590   7.553  52.242  1.00  0.00     0.158 HD
ENDROOT
BRANCH   4  17
HETATM   17  C4  UNL     1      23.702   4.024  52.519  1.00  0.00     0.319 C 
BRANCH  17  18
HETATM   18  C5  UNL     1      22.721   2.927  52.309  1.00  0.00    -0.029 A 
HETATM   19  C6  UNL     1      21.396   3.360  52.174  1.00  0.00     0.012 A 
HETATM   20  C7  UNL     1      20.406   2.418  51.975  1.00  0.00     0.037 A 
HETATM   21  C8  UNL     1      20.695   1.071  51.907  1.00  0.00     0.065 A 
HETATM   22  C9  UNL     1      22.009   0.645  52.042  1.00  0.00     0.037 A 
HETATM   23  C10 UNL     1      23.026   1.578  52.243  1.00  0.00     0.012 A 
BRANCH  21  24
HETATM   24  O1  UNL     1      19.758   0.055  51.709  1.00  0.00    -0.361 OA
HETATM   25  H9  UNL     1      18.766   0.254  51.854  1.00  0.00     0.217 HD
ENDBRANCH  21  24
ENDBRANCH  17  18
ENDBRANCH   4  17
BRANCH  15  26
HETATM   26  O3  UNL     1      27.925   4.496  49.212  1.00  0.00    -0.358 OA
HETATM   27  H17 UNL     1      28.442   4.518  48.336  1.00  0.00     0.217 HD
ENDBRANCH  15  26
TORSDOF 4
ENDMDL
MODEL 5
REMARK VINA RESULT:      -7.7      4.065      6.875
REMARK  4 active torsions:
REMARK  status: ('A' for Active; 'I' for Inactive)
REMARK    1  A    between atoms: N1_4  and  C4_5 
REMARK    2  A    between atoms: C4_5  and  C5_6 
REMARK    3  A    between atoms: C8_9  and  O1_10 
REMARK    4  A    between atoms: C18_23  and  O3_24 
ROOT
HETATM    1  C1  UNL     1      26.232   2.292  50.274  1.00  0.00     0.023 C 
HETATM    2  C2  UNL     1      25.491   3.314  49.898  1.00  0.00    -0.004 C 
HETATM    3  C3  UNL     1      24.022   2.997  49.790  1.00  0.00     0.321 C 
HETATM    4  N1  UNL     1      23.295   3.632  50.944  1.00  0.00     0.121 N 
HETATM    5  C11 UNL     1      22.755   4.807  51.548  1.00  0.00     0.447 A 
HETATM    6  O2  UNL     1      23.488   4.707  50.588  1.00  0.00    -0.123 OA
HETATM    7  N2  UNL     1      22.783   6.232  51.407  1.00  0.00    -0.355 N 
HETATM    8  C12 UNL     1      23.309   7.420  50.672  1.00  0.00     0.147 C 
HETATM    9  C13 UNL     1      24.791   7.446  50.834  1.00  0.00     0.005 C 
HETATM   10  C14 UNL     1      25.172   8.427  50.012  1.00  0.00    -0.016 C 
HETATM   11  C15 UNL     1      24.755   8.080  48.806  1.00  0.00    -0.012 C 
HETATM   12  C16 UNL     1      24.828   6.792  48.667  1.00  0.00     0.040 C 
HETATM   13  C17 UNL     1      25.892   5.889  49.104  1.00  0.00     0.068 C 
HETATM   14 CL1  UNL     1      27.283   6.926  48.871  1.00  0.00    -0.081 Cl
HETATM   15  C18 UNL     1      26.097   4.641  49.540  1.00  0.00     0.094 C 
HETATM   16  H12 UNL     1      22.130   6.091  52.217  1.00  0.00     0.158 HD
ENDROOT
BRANCH   4  17
HETATM   17  C4  UNL     1      22.916   2.646  51.973  1.00  0.00     0.319 C 
BRANCH  17  18
HETATM   18  C5  UNL     1      24.098   2.098  52.688  1.00  0.00    -0.029 A 
HETATM   19  C6  UNL     1      24.222   0.705  52.610  1.00  0.00     0.012 A 
HETATM   20  C7  UNL     1      25.288   0.096  53.242  1.00  0.00     0.037 A 
HETATM   21  C8  UNL     1      26.226   0.827  53.941  1.00  0.00     0.065 A 
HETATM   22  C9  UNL     1      26.101   2.207  54.018  1.00  0.00     0.037 A 
HETATM   23  C10 UNL     1      25.032   2.845  53.387  1.00  0.00     0.012 A 
BRANCH  21  24
HETATM   24  O1  UNL     1      27.331   0.293  54.606  1.00  0.00    -0.361 OA
HETATM   25  H9  UNL     1      27.184  -0.331  55.402  1.00  0.00     0.217 HD
ENDBRANCH  21  24
ENDBRANCH  17  18
ENDBRANCH   4  17
BRANCH  15  26
HETATM   26  O3  UNL     1      27.488   4.456  49.780  1.00  0.00    -0.358 OA
HETATM   27  H17 UNL     1      27.895   3.548  49.572  1.00  0.00     0.217 HD
ENDBRANCH  15  26
TORSDOF 4
ENDMDL
MODEL 6
REMARK VINA RESULT:      -7.5      3.318      7.584
REMARK  4 active torsions:
REMARK  status: ('A' for Active; 'I' for Inactive)
REMARK    1  A    between atoms: N1_4  and  C4_5 
REMARK    2  A    between atoms: C4_5  and  C5_6 
REMARK    3  A    between atoms: C8_9  and  O1_10 
REMARK    4  A    between atoms: C18_23  and  O3_24 
ROOT
HETATM    1  C1  UNL     1      26.052   4.109  50.161  1.00  0.00     0.023 C 
HETATM    2  C2  UNL     1      25.127   3.171  50.160  1.00  0.00    -0.004 C 
HETATM    3  C3  UNL     1      25.488   1.956  50.974  1.00  0.00     0.321 C 
HETATM    4  N1  UNL     1      24.676   1.952  52.241  1.00  0.00     0.121 N 
HETATM    5  C11 UNL     1      23.424   1.720  52.886  1.00  0.00     0.447 A 
HETATM    6  O2  UNL     1      23.676   1.776  51.702  1.00  0.00    -0.123 OA
HETATM    7  N2  UNL     1      22.047   1.492  52.571  1.00  0.00    -0.355 N 
HETATM    8  C12 UNL     1      20.995   1.356  51.520  1.00  0.00     0.147 C 
HETATM    9  C13 UNL     1      20.911   2.647  50.779  1.00  0.00     0.005 C 
HETATM   10  C14 UNL     1      20.081   2.368  49.770  1.00  0.00    -0.016 C 
HETATM   11  C15 UNL     1      20.643   1.380  49.094  1.00  0.00    -0.012 C 
HETATM   12  C16 UNL     1      21.935   1.514  49.108  1.00  0.00     0.040 C 
HETATM   13  C17 UNL     1      22.724   2.734  48.953  1.00  0.00     0.068 C 
HETATM   14 CL1  UNL     1      21.716   3.605  47.818  1.00  0.00    -0.081 Cl
HETATM   15  C18 UNL     1      23.872   3.299  49.345  1.00  0.00     0.094 C 
HETATM   16  H12 UNL     1      22.057   1.444  53.620  1.00  0.00     0.158 HD
ENDROOT
BRANCH   4  17
HETATM   17  C4  UNL     1      25.474   2.352  53.415  1.00  0.00     0.319 C 
BRANCH  17  18
HETATM   18  C5  UNL     1      26.767   1.622  53.491  1.00  0.00    -0.029 A 
HETATM   19  C6  UNL     1      26.637   0.230  53.568  1.00  0.00     0.012 A 
HETATM   20  C7  UNL     1      27.780  -0.541  53.642  1.00  0.00     0.037 A 
HETATM   21  C8  UNL     1      29.036   0.029  53.642  1.00  0.00     0.065 A 
HETATM   22  C9  UNL     1      29.162   1.409  53.566  1.00  0.00     0.037 A 
HETATM   23  C10 UNL     1      28.021   2.208  53.489  1.00  0.00     0.012 A 
BRANCH  21  24
HETATM   24  O1  UNL     1      30.240  -0.675  53.714  1.00  0.00    -0.361 OA
HETATM   25  H9  UNL     1      30.762  -0.863  52.856  1.00  0.00     0.217 HD
ENDBRANCH  21  24
ENDBRANCH  17  18
ENDBRANCH   4  17
BRANCH  15  26
HETATM   26  O3  UNL     1      23.983   4.586  48.748  1.00  0.00    -0.358 OA
HETATM   27  H17 UNL     1      24.521   5.297  49.236  1.00  0.00     0.217 HD
ENDBRANCH  15  26
TORSDOF 4
ENDMDL
MODEL 7
REMARK VINA RESULT:      -7.5      4.500      7.189
REMARK  4 active torsions:
REMARK  status: ('A' for Active; 'I' for Inactive)
REMARK    1  A    between atoms: N1_4  and  C4_5 
REMARK    2  A    between atoms: C4_5  and  C5_6 
REMARK    3  A    between atoms: C8_9  and  O1_10 
REMARK    4  A    between atoms: C18_23  and  O3_24 
ROOT
HETATM    1  C1  UNL     1      26.793   3.573  50.061  1.00  0.00     0.023 C 
HETATM    2  C2  UNL     1      25.492   3.775  50.007  1.00  0.00    -0.004 C 
HETATM    3  C3  UNL     1      24.685   2.776  50.795  1.00  0.00     0.321 C 
HETATM    4  N1  UNL     1      24.156   3.440  52.038  1.00  0.00     0.121 N 
HETATM    5  C11 UNL     1      23.212   4.324  52.641  1.00  0.00     0.447 A 
HETATM    6  O2  UNL     1      23.452   4.146  51.466  1.00  0.00    -0.123 OA
HETATM    7  N2  UNL     1      22.235   5.307  52.280  1.00  0.00    -0.355 N 
HETATM    8  C12 UNL     1      21.553   6.074  51.197  1.00  0.00     0.147 C 
HETATM    9  C13 UNL     1      22.581   6.893  50.491  1.00  0.00     0.005 C 
HETATM   10  C14 UNL     1      21.910   7.397  49.452  1.00  0.00    -0.016 C 
HETATM   11  C15 UNL     1      21.465   6.360  48.764  1.00  0.00    -0.012 C 
HETATM   12  C16 UNL     1      22.326   5.390  48.818  1.00  0.00     0.040 C 
HETATM   13  C17 UNL     1      23.783   5.462  48.721  1.00  0.00     0.068 C 
HETATM   14 CL1  UNL     1      23.946   6.783  47.583  1.00  0.00    -0.081 Cl
HETATM   15  C18 UNL     1      24.896   4.863  49.161  1.00  0.00     0.094 C 
HETATM   16  H12 UNL     1      22.160   5.276  53.327  1.00  0.00     0.158 HD
ENDROOT
BRANCH   4  17
HETATM   17  C4  UNL     1      24.900   3.034  53.245  1.00  0.00     0.319 C 
BRANCH  17  18
HETATM   18  C5  UNL     1      25.491   1.677  53.110  1.00  0.00    -0.029 A 
HETATM   19  C6  UNL     1      24.580   0.631  53.304  1.00  0.00     0.012 A 
HETATM   20  C7  UNL     1      25.029  -0.670  53.200  1.00  0.00     0.037 A 
HETATM   21  C8  UNL     1      26.346  -0.958  52.912  1.00  0.00     0.065 A 
HETATM   22  C9  UNL     1      27.248   0.080  52.721  1.00  0.00     0.037 A 
HETATM   23  C10 UNL     1      26.817   1.403  52.820  1.00  0.00     0.012 A 
BRANCH  21  24
HETATM   24  O1  UNL     1      26.883  -2.241  52.789  1.00  0.00    -0.361 OA
HETATM   25  H9  UNL     1      27.879  -2.351  52.592  1.00  0.00     0.217 HD
ENDBRANCH  21  24
ENDBRANCH  17  18
ENDBRANCH   4  17
BRANCH  15  26
HETATM   26  O3  UNL     1      26.028   5.522  48.605  1.00  0.00    -0.358 OA
HETATM   27  H17 UNL     1      26.115   6.526  48.743  1.00  0.00     0.217 HD
ENDBRANCH  15  26
TORSDOF 4
ENDMDL
MODEL 8
REMARK VINA RESULT:      -7.3      3.744      6.922
REMARK  4 active torsions:
REMARK  status: ('A' for Active; 'I' for Inactive)
REMARK    1  A    between atoms: N1_4  and  C4_5 
REMARK    2  A    between atoms: C4_5  and  C5_6 
REMARK    3  A    between atoms: C8_9  and  O1_10 
REMARK    4  A    between atoms: C18_23  and  O3_24 
ROOT
HETATM    1  C1  UNL     1      26.423   2.708  50.961  1.00  0.00     0.023 C 
HETATM    2  C2  UNL     1      25.192   2.708  51.431  1.00  0.00    -0.004 C 
HETATM    3  C3  UNL     1      24.506   4.046  51.348  1.00  0.00     0.321 C 
HETATM    4  N1  UNL     1      23.475   4.005  50.253  1.00  0.00     0.121 N 
HETATM    5  C11 UNL     1      22.187   3.583  49.806  1.00  0.00     0.447 A 
HETATM    6  O2  UNL     1      22.799   3.254  50.800  1.00  0.00    -0.123 OA
HETATM    7  N2  UNL     1      21.122   2.703  50.184  1.00  0.00    -0.355 N 
HETATM    8  C12 UNL     1      20.598   1.695  51.151  1.00  0.00     0.147 C 
HETATM    9  C13 UNL     1      21.512   0.517  51.135  1.00  0.00     0.005 C 
HETATM   10  C14 UNL     1      21.059  -0.237  52.140  1.00  0.00    -0.016 C 
HETATM   11  C15 UNL     1      21.143   0.511  53.227  1.00  0.00    -0.012 C 
HETATM   12  C16 UNL     1      22.188   1.278  53.157  1.00  0.00     0.040 C 
HETATM   13  C17 UNL     1      23.528   0.947  52.677  1.00  0.00     0.068 C 
HETATM   14 CL1  UNL     1      23.636  -0.718  53.207  1.00  0.00    -0.081 Cl
HETATM   15  C18 UNL     1      24.586   1.486  52.060  1.00  0.00     0.094 C 
HETATM   16  H12 UNL     1      20.758   3.146  49.304  1.00  0.00     0.158 HD
ENDROOT
BRANCH   4  17
HETATM   17  C4  UNL     1      23.918   4.723  49.044  1.00  0.00     0.319 C 
BRANCH  17  18
HETATM   18  C5  UNL     1      24.626   5.989  49.370  1.00  0.00    -0.029 A 
HETATM   19  C6  UNL     1      23.803   6.984  49.912  1.00  0.00     0.012 A 
HETATM   20  C7  UNL     1      24.364   8.200  50.249  1.00  0.00     0.037 A 
HETATM   21  C8  UNL     1      25.708   8.450  50.065  1.00  0.00     0.065 A 
HETATM   22  C9  UNL     1      26.522   7.462  49.528  1.00  0.00     0.037 A 
HETATM   23  C10 UNL     1      25.977   6.226  49.180  1.00  0.00     0.012 A 
BRANCH  21  24
HETATM   24  O1  UNL     1      26.355   9.647  50.379  1.00  0.00    -0.361 OA
HETATM   25  H9  UNL     1      27.362   9.642  50.552  1.00  0.00     0.217 HD
ENDBRANCH  21  24
ENDBRANCH  17  18
ENDBRANCH   4  17
BRANCH  15  26
HETATM   26  O3  UNL     1      25.598   0.495  51.923  1.00  0.00    -0.358 OA
HETATM   27  H17 UNL     1      26.073   0.174  52.763  1.00  0.00     0.217 HD
ENDBRANCH  15  26
TORSDOF 4
ENDMDL
MODEL 9
REMARK VINA RESULT:      -7.2      2.321      3.713
REMARK  4 active torsions:
REMARK  status: ('A' for Active; 'I' for Inactive)
REMARK    1  A    between atoms: N1_4  and  C4_5 
REMARK    2  A    between atoms: C4_5  and  C5_6 
REMARK    3  A    between atoms: C8_9  and  O1_10 
REMARK    4  A    between atoms: C18_23  and  O3_24 
ROOT
HETATM    1  C1  UNL     1      24.478   3.234  49.792  1.00  0.00     0.023 C 
HETATM    2  C2  UNL     1      24.522   2.790  51.031  1.00  0.00    -0.004 C 
HETATM    3  C3  UNL     1      23.180   2.757  51.716  1.00  0.00     0.321 C 
HETATM    4  N1  UNL     1      22.720   1.329  51.829  1.00  0.00     0.121 N 
HETATM    5  C11 UNL     1      22.819   0.063  52.480  1.00  0.00     0.447 A 
HETATM    6  O2  UNL     1      23.544   1.031  52.572  1.00  0.00    -0.123 OA
HETATM    7  N2  UNL     1      23.662  -0.641  53.399  1.00  0.00    -0.355 N 
HETATM    8  C12 UNL     1      24.891  -0.637  54.245  1.00  0.00     0.147 C 
HETATM    9  C13 UNL     1      26.071  -0.475  53.348  1.00  0.00     0.005 C 
HETATM   10  C14 UNL     1      27.085  -0.313  54.201  1.00  0.00    -0.016 C 
HETATM   11  C15 UNL     1      26.791   0.755  54.923  1.00  0.00    -0.012 C 
HETATM   12  C16 UNL     1      26.161   1.623  54.192  1.00  0.00     0.040 C 
HETATM   13  C17 UNL     1      26.433   2.017  52.811  1.00  0.00     0.068 C 
HETATM   14 CL1  UNL     1      28.179   1.888  52.798  1.00  0.00    -0.081 Cl
HETATM   15  C18 UNL     1      25.819   2.434  51.698  1.00  0.00     0.094 C 
HETATM   16  H12 UNL     1      22.897  -1.335  53.206  1.00  0.00     0.158 HD
ENDROOT
BRANCH   4  17
HETATM   17  C4  UNL     1      21.664   1.006  50.851  1.00  0.00     0.319 C 
BRANCH  17  18
HETATM   18  C5  UNL     1      20.634   2.074  50.763  1.00  0.00    -0.029 A 
HETATM   19  C6  UNL     1      20.547   2.687  49.507  1.00  0.00     0.012 A 
HETATM   20  C7  UNL     1      19.620   3.693  49.320  1.00  0.00     0.037 A 
HETATM   21  C8  UNL     1      18.784   4.101  50.338  1.00  0.00     0.065 A 
HETATM   22  C9  UNL     1      18.871   3.493  51.583  1.00  0.00     0.037 A 
HETATM   23  C10 UNL     1      19.801   2.474  51.794  1.00  0.00     0.012 A 
BRANCH  21  24
HETATM   24  O1  UNL     1      17.821   5.107  50.235  1.00  0.00    -0.361 OA
HETATM   25  H9  UNL     1      17.237   5.326  51.044  1.00  0.00     0.217 HD
ENDBRANCH  21  24
ENDBRANCH  17  18
ENDBRANCH   4  17
BRANCH  15  26
HETATM   26  O3  UNL     1      26.792   2.636  50.680  1.00  0.00    -0.358 OA
HETATM   27  H17 UNL     1      27.522   1.936  50.566  1.00  0.00     0.217 HD
ENDBRANCH  15  26
TORSDOF 4
ENDMDL
