MODEL 1
REMARK VINA RESULT:      -7.4      0.000      0.000
REMARK  6 active torsions:
REMARK  status: ('A' for Active; 'I' for Inactive)
REMARK    1  A    between atoms: C2_2  and  N1_3 
REMARK    2  A    between atoms: C7_10  and  N4_13 
REMARK    3  A    between atoms: N4_13  and  C9_14 
REMARK    4  A    between atoms: C9_14  and  S2_15 
REMARK    5  A    between atoms: S2_15  and  C10_16 
REMARK    6  A    between atoms: C16_24  and  O1_25 
ROOT
HETATM    1  N1  UNL     1      28.230   1.114  54.155  1.00  0.00     0.088 N 
HETATM    2  C3  UNL     1      27.694   1.446  52.896  1.00  0.00     0.280 C 
HETATM    3  C4  UNL     1      26.399   2.166  53.003  1.00  0.00     0.071 C 
HETATM    4  C5  UNL     1      25.082   2.499  52.900  1.00  0.00     0.257 A 
HETATM    5  N2  UNL     1      24.560   3.882  53.518  1.00  0.00     0.130 N 
HETATM    6  C6  UNL     1      23.651   3.554  52.808  1.00  0.00     0.299 A 
HETATM    7  S1  UNL     1      22.659   3.165  52.016  1.00  0.00    -0.073 SA
HETATM    8  C7  UNL     1      21.291   2.585  50.898  1.00  0.00     0.187 C 
HETATM    9  C8  UNL     1      20.158   2.476  51.780  1.00  0.00     0.104 C 
HETATM   10  N3  UNL     1      19.238   2.378  52.473  1.00  0.00    -0.194 NA
HETATM   11  C13 UNL     1      22.164   1.357  50.785  1.00  0.00     0.207 C 
HETATM   12  N5  UNL     1      23.282   0.892  51.382  1.00  0.00    -0.287 NA
HETATM   13  C14 UNL     1      24.298   1.295  52.120  1.00  0.00     0.074 C 
HETATM   14  C15 UNL     1      24.990   0.052  52.369  1.00  0.00     0.061 C 
HETATM   15  C16 UNL     1      25.634  -0.284  53.476  1.00  0.00     0.049 C 
HETATM   16  C18 UNL     1      26.013   0.187  54.841  1.00  0.00     0.095 C 
HETATM   17  C19 UNL     1      27.492   0.190  54.961  1.00  0.00     0.279 C 
HETATM   18  H9  UNL     1      25.467   3.774  53.943  1.00  0.00     0.320 HD
ENDROOT
BRANCH   8  19
HETATM   19  N4  UNL     1      21.093   3.325  49.706  1.00  0.00    -0.376 N 
HETATM   20  H10 UNL     1      20.318   2.927  49.144  1.00  0.00     0.157 HD
BRANCH  19  21
HETATM   21  C9  UNL     1      22.078   4.353  49.761  1.00  0.00     0.279 C 
BRANCH  21  22
HETATM   22  S2  UNL     1      23.029   4.491  48.363  1.00  0.00    -0.189 SA
BRANCH  22  23
HETATM   23  C10 UNL     1      24.501   5.094  49.004  1.00  0.00    -0.035 C 
HETATM   24  C11 UNL     1      24.125   6.478  48.691  1.00  0.00     0.052 C 
HETATM   25  C12 UNL     1      25.111   3.910  49.433  1.00  0.00     0.261 C 
HETATM   26  F1  UNL     1      26.409   4.134  48.886  1.00  0.00    -0.250 F 
ENDBRANCH  22  23
ENDBRANCH  21  22
ENDBRANCH  19  21
ENDBRANCH   8  19
BRANCH  15  27
HETATM   27  O1  UNL     1      26.204  -1.573  53.405  1.00  0.00    -0.360 OA
HETATM   28  C17 UNL     1      26.763  -1.999  52.177  1.00  0.00     0.209 C 
ENDBRANCH  15  27
BRANCH   1  29
HETATM   29  C2  UNL     1      29.595   0.735  54.228  1.00  0.00     0.268 C 
HETATM   30  C1  UNL     1      29.936  -0.581  53.614  1.00  0.00     0.037 C 
ENDBRANCH   1  29
TORSDOF 6
ENDMDL
MODEL 2
REMARK VINA RESULT:      -7.3      1.890      2.238
REMARK  6 active torsions:
REMARK  status: ('A' for Active; 'I' for Inactive)
REMARK    1  A    between atoms: C2_2  and  N1_3 
REMARK    2  A    between atoms: C7_10  and  N4_13 
REMARK    3  A    between atoms: N4_13  and  C9_14 
REMARK    4  A    between atoms: C9_14  and  S2_15 
REMARK    5  A    between atoms: S2_15  and  C10_16 
REMARK    6  A    between atoms: C16_24  and  O1_25 
ROOT
HETATM    1  N1  UNL     1      28.139   0.128  53.286  1.00  0.00     0.088 N 
HETATM    2  C3  UNL     1      27.222  -0.323  52.319  1.00  0.00     0.280 C 
HETATM    3  C4  UNL     1      26.256   0.732  51.917  1.00  0.00     0.071 C 
HETATM    4  C5  UNL     1      25.108   1.433  51.703  1.00  0.00     0.257 A 
HETATM    5  N2  UNL     1      25.174   2.876  51.008  1.00  0.00     0.130 N 
HETATM    6  C6  UNL     1      24.010   2.599  50.927  1.00  0.00     0.299 A 
HETATM    7  S1  UNL     1      22.725   2.268  50.852  1.00  0.00    -0.073 SA
HETATM    8  C7  UNL     1      20.936   1.770  50.769  1.00  0.00     0.187 C 
HETATM    9  C8  UNL     1      20.258   2.825  51.477  1.00  0.00     0.104 C 
HETATM   10  N3  UNL     1      19.698   3.661  52.046  1.00  0.00    -0.194 NA
HETATM   11  C13 UNL     1      21.419   0.611  51.610  1.00  0.00     0.207 C 
HETATM   12  N5  UNL     1      22.562   0.268  52.241  1.00  0.00    -0.287 NA
HETATM   13  C14 UNL     1      23.848   0.558  52.270  1.00  0.00     0.074 C 
HETATM   14  C15 UNL     1      24.312  -0.277  53.353  1.00  0.00     0.061 C 
HETATM   15  C16 UNL     1      25.265   0.018  54.224  1.00  0.00     0.049 C 
HETATM   16  C18 UNL     1      26.249   1.066  54.625  1.00  0.00     0.095 C 
HETATM   17  C19 UNL     1      27.618   0.495  54.567  1.00  0.00     0.279 C 
HETATM   18  H9  UNL     1      26.132   2.707  51.269  1.00  0.00     0.320 HD
ENDROOT
BRANCH   8  19
HETATM   19  N4  UNL     1      20.430   1.446  49.487  1.00  0.00    -0.376 N 
HETATM   20  H10 UNL     1      19.594   0.836  49.558  1.00  0.00     0.157 HD
BRANCH  19  21
HETATM   21  C9  UNL     1      21.307   2.110  48.582  1.00  0.00     0.279 C 
BRANCH  21  22
HETATM   22  S2  UNL     1      20.542   3.201  47.532  1.00  0.00    -0.189 SA
BRANCH  22  23
HETATM   23  C10 UNL     1      21.858   4.181  47.032  1.00  0.00    -0.035 C 
HETATM   24  C11 UNL     1      21.792   3.653  45.664  1.00  0.00     0.052 C 
HETATM   25  C12 UNL     1      22.143   4.869  48.217  1.00  0.00     0.261 C 
HETATM   26  F1  UNL     1      23.559   4.699  48.219  1.00  0.00    -0.250 F 
ENDBRANCH  22  23
ENDBRANCH  21  22
ENDBRANCH  19  21
ENDBRANCH   8  19
BRANCH  15  27
HETATM   27  O1  UNL     1      25.482  -1.012  55.164  1.00  0.00    -0.360 OA
HETATM   28  C17 UNL     1      24.405  -1.414  55.987  1.00  0.00     0.209 C 
ENDBRANCH  15  27
BRANCH   1  29
HETATM   29  C2  UNL     1      29.309  -0.641  53.516  1.00  0.00     0.268 C 
HETATM   30  C1  UNL     1      29.179  -2.106  53.271  1.00  0.00     0.037 C 
ENDBRANCH   1  29
TORSDOF 6
ENDMDL
MODEL 3
REMARK VINA RESULT:      -7.2      2.235      2.876
REMARK  6 active torsions:
REMARK  status: ('A' for Active; 'I' for Inactive)
REMARK    1  A    between atoms: C2_2  and  N1_3 
REMARK    2  A    between atoms: C7_10  and  N4_13 
REMARK    3  A    between atoms: N4_13  and  C9_14 
REMARK    4  A    between atoms: C9_14  and  S2_15 
REMARK    5  A    between atoms: S2_15  and  C10_16 
REMARK    6  A    between atoms: C16_24  and  O1_25 
ROOT
HETATM    1  N1  UNL     1      27.670  -0.126  52.969  1.00  0.00     0.088 N 
HETATM    2  C3  UNL     1      26.862  -0.080  51.817  1.00  0.00     0.280 C 
HETATM    3  C4  UNL     1      26.453   1.305  51.466  1.00  0.00     0.071 C 
HETATM    4  C5  UNL     1      25.711   2.418  51.211  1.00  0.00     0.257 A 
HETATM    5  N2  UNL     1      26.441   3.782  50.788  1.00  0.00     0.130 N 
HETATM    6  C6  UNL     1      25.298   3.995  50.495  1.00  0.00     0.299 A 
HETATM    7  S1  UNL     1      24.024   4.205  50.181  1.00  0.00    -0.073 SA
HETATM    8  C7  UNL     1      22.232   4.461  49.758  1.00  0.00     0.187 C 
HETATM    9  C8  UNL     1      21.865   5.620  50.530  1.00  0.00     0.104 C 
HETATM   10  N3  UNL     1      21.551   6.546  51.146  1.00  0.00    -0.194 NA
HETATM   11  C13 UNL     1      22.077   3.127  50.450  1.00  0.00     0.207 C 
HETATM   12  N5  UNL     1      22.863   2.300  51.171  1.00  0.00    -0.287 NA
HETATM   13  C14 UNL     1      24.133   2.057  51.434  1.00  0.00     0.074 C 
HETATM   14  C15 UNL     1      24.031   1.002  52.414  1.00  0.00     0.061 C 
HETATM   15  C16 UNL     1      24.833   0.809  53.451  1.00  0.00     0.049 C 
HETATM   16  C18 UNL     1      26.033   1.339  54.162  1.00  0.00     0.095 C 
HETATM   17  C19 UNL     1      27.078   0.285  54.205  1.00  0.00     0.279 C 
HETATM   18  H9  UNL     1      27.198   3.225  51.152  1.00  0.00     0.320 HD
ENDROOT
BRANCH   8  19
HETATM   19  N4  UNL     1      21.907   4.494  48.380  1.00  0.00    -0.376 N 
HETATM   20  H10 UNL     1      21.034   3.967  48.189  1.00  0.00     0.157 HD
BRANCH  19  21
HETATM   21  C9  UNL     1      22.951   5.262  47.789  1.00  0.00     0.279 C 
BRANCH  21  22
HETATM   22  S2  UNL     1      22.423   6.644  46.956  1.00  0.00    -0.189 SA
BRANCH  22  23
HETATM   23  C10 UNL     1      23.198   7.895  47.837  1.00  0.00    -0.035 C 
HETATM   24  C11 UNL     1      24.481   7.183  47.810  1.00  0.00     0.052 C 
HETATM   25  C12 UNL     1      22.142   8.799  48.002  1.00  0.00     0.261 C 
HETATM   26  F1  UNL     1      22.315   9.068  49.393  1.00  0.00    -0.250 F 
ENDBRANCH  22  23
ENDBRANCH  21  22
ENDBRANCH  19  21
ENDBRANCH   8  19
BRANCH  15  27
HETATM   27  O1  UNL     1      24.464  -0.313  54.224  1.00  0.00    -0.360 OA
HETATM   28  C17 UNL     1      23.150  -0.820  54.096  1.00  0.00     0.209 C 
ENDBRANCH  15  27
BRANCH   1  29
HETATM   29  C2  UNL     1      28.403  -1.312  53.230  1.00  0.00     0.268 C 
HETATM   30  C1  UNL     1      29.836  -1.120  53.597  1.00  0.00     0.037 C 
ENDBRANCH   1  29
TORSDOF 6
ENDMDL
MODEL 4
REMARK VINA RESULT:      -7.1      2.630      3.697
REMARK  6 active torsions:
REMARK  status: ('A' for Active; 'I' for Inactive)
REMARK    1  A    between atoms: C2_2  and  N1_3 
REMARK    2  A    between atoms: C7_10  and  N4_13 
REMARK    3  A    between atoms: N4_13  and  C9_14 
REMARK    4  A    between atoms: C9_14  and  S2_15 
REMARK    5  A    between atoms: S2_15  and  C10_16 
REMARK    6  A    between atoms: C16_24  and  O1_25 
ROOT
HETATM    1  N1  UNL     1      28.442  -0.359  53.413  1.00  0.00     0.088 N 
HETATM    2  C3  UNL     1      27.503  -0.577  52.388  1.00  0.00     0.280 C 
HETATM    3  C4  UNL     1      26.834   0.676  51.954  1.00  0.00     0.071 C 
HETATM    4  C5  UNL     1      25.895   1.627  51.689  1.00  0.00     0.257 A 
HETATM    5  N2  UNL     1      26.336   3.019  51.027  1.00  0.00     0.130 N 
HETATM    6  C6  UNL     1      25.146   3.022  50.877  1.00  0.00     0.299 A 
HETATM    7  S1  UNL     1      23.827   3.001  50.724  1.00  0.00    -0.073 SA
HETATM    8  C7  UNL     1      21.979   2.935  50.533  1.00  0.00     0.187 C 
HETATM    9  C8  UNL     1      21.525   4.115  51.222  1.00  0.00     0.104 C 
HETATM   10  N3  UNL     1      21.142   5.055  51.775  1.00  0.00    -0.194 NA
HETATM   11  C13 UNL     1      22.129   1.690  51.376  1.00  0.00     0.207 C 
HETATM   12  N5  UNL     1      23.121   1.086  52.063  1.00  0.00    -0.287 NA
HETATM   13  C14 UNL     1      24.436   1.068  52.169  1.00  0.00     0.074 C 
HETATM   14  C15 UNL     1      24.628   0.141  53.260  1.00  0.00     0.061 C 
HETATM   15  C16 UNL     1      25.571   0.201  54.188  1.00  0.00     0.049 C 
HETATM   16  C18 UNL     1      26.747   0.988  54.663  1.00  0.00     0.095 C 
HETATM   17  C19 UNL     1      27.947   0.113  54.670  1.00  0.00     0.279 C 
HETATM   18  H9  UNL     1      27.212   2.630  51.338  1.00  0.00     0.320 HD
ENDROOT
BRANCH   8  19
HETATM   19  N4  UNL     1      21.487   2.746  49.219  1.00  0.00    -0.376 N 
HETATM   20  H10 UNL     1      21.994   3.343  48.539  1.00  0.00     0.157 HD
BRANCH  19  21
HETATM   21  C9  UNL     1      20.452   1.777  49.365  1.00  0.00     0.279 C 
BRANCH  21  22
HETATM   22  S2  UNL     1      18.880   2.416  49.332  1.00  0.00    -0.189 SA
BRANCH  22  23
HETATM   23  C10 UNL     1      18.161   1.635  50.680  1.00  0.00    -0.035 C 
HETATM   24  C11 UNL     1      18.166   2.878  51.461  1.00  0.00     0.052 C 
HETATM   25  C12 UNL     1      18.008   0.335  50.185  1.00  0.00     0.261 C 
HETATM   26  F1  UNL     1      18.526  -0.377  51.307  1.00  0.00    -0.250 F 
ENDBRANCH  22  23
ENDBRANCH  21  22
ENDBRANCH  19  21
ENDBRANCH   8  19
BRANCH  15  27
HETATM   27  O1  UNL     1      25.487  -0.857  55.118  1.00  0.00    -0.360 OA
HETATM   28  C17 UNL     1      24.207  -1.293  55.532  1.00  0.00     0.209 C 
ENDBRANCH  15  27
BRANCH   1  29
HETATM   29  C2  UNL     1      29.385  -1.381  53.692  1.00  0.00     0.268 C 
HETATM   30  C1  UNL     1      29.032  -2.742  53.195  1.00  0.00     0.037 C 
ENDBRANCH   1  29
TORSDOF 6
ENDMDL
MODEL 5
REMARK VINA RESULT:      -6.9      2.645      3.431
REMARK  6 active torsions:
REMARK  status: ('A' for Active; 'I' for Inactive)
REMARK    1  A    between atoms: C2_2  and  N1_3 
REMARK    2  A    between atoms: C7_10  and  N4_13 
REMARK    3  A    between atoms: N4_13  and  C9_14 
REMARK    4  A    between atoms: C9_14  and  S2_15 
REMARK    5  A    between atoms: S2_15  and  C10_16 
REMARK    6  A    between atoms: C16_24  and  O1_25 
ROOT
HETATM    1  N1  UNL     1      27.655   0.084  52.925  1.00  0.00     0.088 N 
HETATM    2  C3  UNL     1      26.865   0.114  51.761  1.00  0.00     0.280 C 
HETATM    3  C4  UNL     1      26.491   1.495  51.364  1.00  0.00     0.071 C 
HETATM    4  C5  UNL     1      25.776   2.616  51.065  1.00  0.00     0.257 A 
HETATM    5  N2  UNL     1      26.540   3.951  50.615  1.00  0.00     0.130 N 
HETATM    6  C6  UNL     1      25.406   4.179  50.298  1.00  0.00     0.299 A 
HETATM    7  S1  UNL     1      24.142   4.406  49.958  1.00  0.00    -0.073 SA
HETATM    8  C7  UNL     1      22.362   4.686  49.500  1.00  0.00     0.187 C 
HETATM    9  C8  UNL     1      22.008   5.874  50.233  1.00  0.00     0.104 C 
HETATM   10  N3  UNL     1      21.704   6.824  50.817  1.00  0.00    -0.194 NA
HETATM   11  C13 UNL     1      22.169   3.376  50.228  1.00  0.00     0.207 C 
HETATM   12  N5  UNL     1      22.926   2.554  50.985  1.00  0.00    -0.287 NA
HETATM   13  C14 UNL     1      24.187   2.293  51.274  1.00  0.00     0.074 C 
HETATM   14  C15 UNL     1      24.049   1.269  52.282  1.00  0.00     0.061 C 
HETATM   15  C16 UNL     1      24.831   1.090  53.336  1.00  0.00     0.049 C 
HETATM   16  C18 UNL     1      26.031   1.616  54.051  1.00  0.00     0.095 C 
HETATM   17  C19 UNL     1      27.053   0.542  54.140  1.00  0.00     0.279 C 
HETATM   18  H9  UNL     1      27.279   3.390  51.007  1.00  0.00     0.320 HD
ENDROOT
BRANCH   8  19
HETATM   19  N4  UNL     1      22.058   4.686  48.117  1.00  0.00    -0.376 N 
HETATM   20  H10 UNL     1      22.731   5.269  47.586  1.00  0.00     0.157 HD
BRANCH  19  21
HETATM   21  C9  UNL     1      20.906   3.855  48.009  1.00  0.00     0.279 C 
BRANCH  21  22
HETATM   22  S2  UNL     1      19.552   4.615  47.323  1.00  0.00    -0.189 SA
BRANCH  22  23
HETATM   23  C10 UNL     1      18.779   5.263  48.710  1.00  0.00    -0.035 C 
HETATM   24  C11 UNL     1      18.888   6.631  48.188  1.00  0.00     0.052 C 
HETATM   25  C12 UNL     1      18.517   4.098  49.438  1.00  0.00     0.261 C 
HETATM   26  F1  UNL     1      18.980   4.541  50.712  1.00  0.00    -0.250 F 
ENDBRANCH  22  23
ENDBRANCH  21  22
ENDBRANCH  19  21
ENDBRANCH   8  19
BRANCH  15  27
HETATM   27  O1  UNL     1      24.427  -0.002  54.135  1.00  0.00    -0.360 OA
HETATM   28  C17 UNL     1      23.261  -0.713  53.769  1.00  0.00     0.209 C 
ENDBRANCH  15  27
BRANCH   1  29
HETATM   29  C2  UNL     1      28.359  -1.108  53.232  1.00  0.00     0.268 C 
HETATM   30  C1  UNL     1      29.826  -0.956  53.452  1.00  0.00     0.037 C 
ENDBRANCH   1  29
TORSDOF 6
ENDMDL
MODEL 6
REMARK VINA RESULT:      -6.8      3.371      5.074
REMARK  6 active torsions:
REMARK  status: ('A' for Active; 'I' for Inactive)
REMARK    1  A    between atoms: C2_2  and  N1_3 
REMARK    2  A    between atoms: C7_10  and  N4_13 
REMARK    3  A    between atoms: N4_13  and  C9_14 
REMARK    4  A    between atoms: C9_14  and  S2_15 
REMARK    5  A    between atoms: S2_15  and  C10_16 
REMARK    6  A    between atoms: C16_24  and  O1_25 
ROOT
HETATM    1  N1  UNL     1      22.683   0.564  53.455  1.00  0.00     0.088 N 
HETATM    2  C3  UNL     1      23.496   1.081  52.429  1.00  0.00     0.280 C 
HETATM    3  C4  UNL     1      23.483   2.566  52.388  1.00  0.00     0.071 C 
HETATM    4  C5  UNL     1      23.315   3.856  51.984  1.00  0.00     0.257 A 
HETATM    5  N2  UNL     1      23.733   5.057  52.959  1.00  0.00     0.130 N 
HETATM    6  C6  UNL     1      23.611   5.609  51.902  1.00  0.00     0.299 A 
HETATM    7  S1  UNL     1      23.468   6.196  50.719  1.00  0.00    -0.073 SA
HETATM    8  C7  UNL     1      23.254   6.980  49.047  1.00  0.00     0.187 C 
HETATM    9  C8  UNL     1      22.237   7.976  49.268  1.00  0.00     0.104 C 
HETATM   10  N3  UNL     1      21.420   8.777  49.425  1.00  0.00    -0.194 NA
HETATM   11  C13 UNL     1      22.762   5.600  48.676  1.00  0.00     0.207 C 
HETATM   12  N5  UNL     1      22.464   4.458  49.330  1.00  0.00    -0.287 NA
HETATM   13  C14 UNL     1      22.659   3.853  50.486  1.00  0.00     0.074 C 
HETATM   14  C15 UNL     1      21.871   2.654  50.325  1.00  0.00     0.061 C 
HETATM   15  C16 UNL     1      21.186   2.028  51.271  1.00  0.00     0.049 C 
HETATM   16  C18 UNL     1      20.822   2.061  52.718  1.00  0.00     0.095 C 
HETATM   17  C19 UNL     1      21.275   0.802  53.362  1.00  0.00     0.279 C 
HETATM   18  H9  UNL     1      23.719   4.261  53.576  1.00  0.00     0.320 HD
ENDROOT
BRANCH   8  19
HETATM   19  N4  UNL     1      24.435   7.419  48.399  1.00  0.00    -0.376 N 
HETATM   20  H10 UNL     1      24.356   8.412  48.111  1.00  0.00     0.157 HD
BRANCH  19  21
HETATM   21  C9  UNL     1      25.285   6.275  48.402  1.00  0.00     0.279 C 
BRANCH  21  22
HETATM   22  S2  UNL     1      26.944   6.631  48.418  1.00  0.00    -0.189 SA
BRANCH  22  23
HETATM   23  C10 UNL     1      27.619   5.114  48.847  1.00  0.00    -0.035 C 
HETATM   24  C11 UNL     1      28.891   5.443  48.193  1.00  0.00     0.052 C 
HETATM   25  C12 UNL     1      26.557   4.540  49.556  1.00  0.00     0.261 C 
HETATM   26  F1  UNL     1      26.568   3.253  48.940  1.00  0.00    -0.250 F 
ENDBRANCH  22  23
ENDBRANCH  21  22
ENDBRANCH  19  21
ENDBRANCH   8  19
BRANCH  15  27
HETATM   27  O1  UNL     1      20.518   0.882  50.791  1.00  0.00    -0.360 OA
HETATM   28  C17 UNL     1      19.163   1.001  50.404  1.00  0.00     0.209 C 
ENDBRANCH  15  27
BRANCH   1  29
HETATM   29  C2  UNL     1      22.854  -0.793  53.831  1.00  0.00     0.268 C 
HETATM   30  C1  UNL     1      21.648  -1.466  54.394  1.00  0.00     0.037 C 
ENDBRANCH   1  29
TORSDOF 6
ENDMDL
MODEL 7
REMARK VINA RESULT:      -6.6      3.402      5.543
REMARK  6 active torsions:
REMARK  status: ('A' for Active; 'I' for Inactive)
REMARK    1  A    between atoms: C2_2  and  N1_3 
REMARK    2  A    between atoms: C7_10  and  N4_13 
REMARK    3  A    between atoms: N4_13  and  C9_14 
REMARK    4  A    between atoms: C9_14  and  S2_15 
REMARK    5  A    between atoms: S2_15  and  C10_16 
REMARK    6  A    between atoms: C16_24  and  O1_25 
ROOT
HETATM    1  N1  UNL     1      23.716   1.908  52.606  1.00  0.00     0.088 N 
HETATM    2  C3  UNL     1      24.586   2.527  51.689  1.00  0.00     0.280 C 
HETATM    3  C4  UNL     1      24.385   3.998  51.620  1.00  0.00     0.071 C 
HETATM    4  C5  UNL     1      24.108   5.255  51.174  1.00  0.00     0.257 A 
HETATM    5  N2  UNL     1      24.230   6.500  52.175  1.00  0.00     0.130 N 
HETATM    6  C6  UNL     1      24.182   7.032  51.101  1.00  0.00     0.299 A 
HETATM    7  S1  UNL     1      24.125   7.594  49.899  1.00  0.00    -0.073 SA
HETATM    8  C7  UNL     1      24.039   8.343  48.200  1.00  0.00     0.187 C 
HETATM    9  C8  UNL     1      22.881   9.197  48.265  1.00  0.00     0.104 C 
HETATM   10  N3  UNL     1      21.952   9.884  48.297  1.00  0.00    -0.194 NA
HETATM   11  C13 UNL     1      23.786   6.911  47.791  1.00  0.00     0.207 C 
HETATM   12  N5  UNL     1      23.553   5.739  48.420  1.00  0.00    -0.287 NA
HETATM   13  C14 UNL     1      23.666   5.165  49.603  1.00  0.00     0.074 C 
HETATM   14  C15 UNL     1      23.071   3.873  49.359  1.00  0.00     0.061 C 
HETATM   15  C16 UNL     1      22.351   3.163  50.214  1.00  0.00     0.049 C 
HETATM   16  C18 UNL     1      21.793   3.147  51.599  1.00  0.00     0.095 C 
HETATM   17  C19 UNL     1      22.315   1.959  52.320  1.00  0.00     0.279 C 
HETATM   18  H9  UNL     1      24.236   5.709  52.799  1.00  0.00     0.320 HD
ENDROOT
BRANCH   8  19
HETATM   19  N4  UNL     1      25.229   8.933  47.709  1.00  0.00    -0.376 N 
HETATM   20  H10 UNL     1      25.020   9.714  47.060  1.00  0.00     0.157 HD
BRANCH  19  21
HETATM   21  C9  UNL     1      26.274   8.186  48.326  1.00  0.00     0.279 C 
BRANCH  21  22
HETATM   22  S2  UNL     1      27.501   7.684  47.266  1.00  0.00    -0.189 SA
BRANCH  22  23
HETATM   23  C10 UNL     1      28.318   6.510  48.214  1.00  0.00    -0.035 C 
HETATM   24  C11 UNL     1      29.618   7.142  47.958  1.00  0.00     0.052 C 
HETATM   25  C12 UNL     1      27.246   5.720  48.642  1.00  0.00     0.261 C 
HETATM   26  F1  UNL     1      27.807   4.439  48.361  1.00  0.00    -0.250 F 
ENDBRANCH  22  23
ENDBRANCH  21  22
ENDBRANCH  19  21
ENDBRANCH   8  19
BRANCH  15  27
HETATM   27  O1  UNL     1      21.909   1.939  49.670  1.00  0.00    -0.360 OA
HETATM   28  C17 UNL     1      22.021   1.739  48.274  1.00  0.00     0.209 C 
ENDBRANCH  15  27
BRANCH   1  29
HETATM   29  C2  UNL     1      24.009   0.585  53.025  1.00  0.00     0.268 C 
HETATM   30  C1  UNL     1      25.400   0.116  52.764  1.00  0.00     0.037 C 
ENDBRANCH   1  29
TORSDOF 6
ENDMDL
MODEL 8
REMARK VINA RESULT:      -6.6      8.149     11.303
REMARK  6 active torsions:
REMARK  status: ('A' for Active; 'I' for Inactive)
REMARK    1  A    between atoms: C2_2  and  N1_3 
REMARK    2  A    between atoms: C7_10  and  N4_13 
REMARK    3  A    between atoms: N4_13  and  C9_14 
REMARK    4  A    between atoms: C9_14  and  S2_15 
REMARK    5  A    between atoms: S2_15  and  C10_16 
REMARK    6  A    between atoms: C16_24  and  O1_25 
ROOT
HETATM    1  N1  UNL     1      26.440   7.490  49.364  1.00  0.00     0.088 N 
HETATM    2  C3  UNL     1      27.164   7.076  48.231  1.00  0.00     0.280 C 
HETATM    3  C4  UNL     1      28.614   6.909  48.513  1.00  0.00     0.071 C 
HETATM    4  C5  UNL     1      29.968   7.049  48.494  1.00  0.00     0.257 A 
HETATM    5  N2  UNL     1      30.877   6.132  49.444  1.00  0.00     0.130 N 
HETATM    6  C6  UNL     1      31.676   6.580  48.670  1.00  0.00     0.299 A 
HETATM    7  S1  UNL     1      32.541   7.090  47.800  1.00  0.00    -0.073 SA
HETATM    8  C7  UNL     1      33.719   7.828  46.566  1.00  0.00     0.187 C 
HETATM    9  C8  UNL     1      34.664   8.540  47.385  1.00  0.00     0.104 C 
HETATM   10  N3  UNL     1      35.431   9.121  48.026  1.00  0.00    -0.194 NA
HETATM   11  C13 UNL     1      32.491   8.602  46.145  1.00  0.00     0.207 C 
HETATM   12  N5  UNL     1      31.234   8.771  46.606  1.00  0.00    -0.287 NA
HETATM   13  C14 UNL     1      30.357   8.226  47.428  1.00  0.00     0.074 C 
HETATM   14  C15 UNL     1      29.263   9.165  47.352  1.00  0.00     0.061 C 
HETATM   15  C16 UNL     1      28.448   9.508  48.339  1.00  0.00     0.049 C 
HETATM   16  C18 UNL     1      28.137   9.278  49.780  1.00  0.00     0.095 C 
HETATM   17  C19 UNL     1      26.743   8.780  49.904  1.00  0.00     0.279 C 
HETATM   18  H9  UNL     1      29.954   6.012  49.831  1.00  0.00     0.320 HD
ENDROOT
BRANCH   8  19
HETATM   19  N4  UNL     1      34.261   6.942  45.603  1.00  0.00    -0.376 N 
HETATM   20  H10 UNL     1      35.239   7.196  45.370  1.00  0.00     0.157 HD
BRANCH  19  21
HETATM   21  C9  UNL     1      33.204   6.027  45.330  1.00  0.00     0.279 C 
BRANCH  21  22
HETATM   22  S2  UNL     1      33.712   4.517  44.745  1.00  0.00    -0.189 SA
BRANCH  22  23
HETATM   23  C10 UNL     1      33.573   3.539  46.147  1.00  0.00    -0.035 C 
HETATM   24  C11 UNL     1      35.029   3.371  46.230  1.00  0.00     0.052 C 
HETATM   25  C12 UNL     1      32.187   3.537  46.335  1.00  0.00     0.261 C 
HETATM   26  F1  UNL     1      32.008   2.138  46.550  1.00  0.00    -0.250 F 
ENDBRANCH  22  23
ENDBRANCH  21  22
ENDBRANCH  19  21
ENDBRANCH   8  19
BRANCH  15  27
HETATM   27  O1  UNL     1      27.479  10.454  47.942  1.00  0.00    -0.360 OA
HETATM   28  C17 UNL     1      26.953  10.373  46.632  1.00  0.00     0.209 C 
ENDBRANCH  15  27
BRANCH   1  29
HETATM   29  C2  UNL     1      25.027   7.367  49.343  1.00  0.00     0.268 C 
HETATM   30  C1  UNL     1      24.329   7.696  50.619  1.00  0.00     0.037 C 
ENDBRANCH   1  29
TORSDOF 6
ENDMDL
MODEL 9
REMARK VINA RESULT:      -6.6      3.714      7.694
REMARK  6 active torsions:
REMARK  status: ('A' for Active; 'I' for Inactive)
REMARK    1  A    between atoms: C2_2  and  N1_3 
REMARK    2  A    between atoms: C7_10  and  N4_13 
REMARK    3  A    between atoms: N4_13  and  C9_14 
REMARK    4  A    between atoms: C9_14  and  S2_15 
REMARK    5  A    between atoms: S2_15  and  C10_16 
REMARK    6  A    between atoms: C16_24  and  O1_25 
ROOT
HETATM    1  N1  UNL     1      24.084   8.084  48.027  1.00  0.00     0.088 N 
HETATM    2  C3  UNL     1      23.970   6.685  47.922  1.00  0.00     0.280 C 
HETATM    3  C4  UNL     1      23.979   6.014  49.248  1.00  0.00     0.071 C 
HETATM    4  C5  UNL     1      24.322   5.232  50.309  1.00  0.00     0.257 A 
HETATM    5  N2  UNL     1      23.412   5.236  51.629  1.00  0.00     0.130 N 
HETATM    6  C6  UNL     1      24.092   4.260  51.783  1.00  0.00     0.299 A 
HETATM    7  S1  UNL     1      24.860   3.186  51.929  1.00  0.00    -0.073 SA
HETATM    8  C7  UNL     1      25.954   1.692  52.098  1.00  0.00     0.187 C 
HETATM    9  C8  UNL     1      26.659   1.928  53.331  1.00  0.00     0.104 C 
HETATM   10  N3  UNL     1      27.238   2.102  54.316  1.00  0.00    -0.194 NA
HETATM   11  C13 UNL     1      26.592   2.258  50.850  1.00  0.00     0.207 C 
HETATM   12  N5  UNL     1      26.495   3.394  50.129  1.00  0.00    -0.287 NA
HETATM   13  C14 UNL     1      25.700   4.431  49.944  1.00  0.00     0.074 C 
HETATM   14  C15 UNL     1      26.464   5.222  49.008  1.00  0.00     0.061 C 
HETATM   15  C16 UNL     1      26.518   6.544  48.953  1.00  0.00     0.049 C 
HETATM   16  C18 UNL     1      26.015   7.799  49.587  1.00  0.00     0.095 C 
HETATM   17  C19 UNL     1      25.302   8.607  48.567  1.00  0.00     0.279 C 
HETATM   18  H9  UNL     1      23.094   6.054  51.133  1.00  0.00     0.320 HD
ENDROOT
BRANCH   8  19
HETATM   19  N4  UNL     1      25.325   0.431  51.963  1.00  0.00    -0.376 N 
HETATM   20  H10 UNL     1      25.979  -0.273  51.572  1.00  0.00     0.157 HD
BRANCH  19  21
HETATM   21  C9  UNL     1      23.998   0.645  52.434  1.00  0.00     0.279 C 
BRANCH  21  22
HETATM   22  S2  UNL     1      23.427  -0.545  53.500  1.00  0.00    -0.189 SA
BRANCH  22  23
HETATM   23  C10 UNL     1      21.743  -0.219  53.513  1.00  0.00    -0.035 C 
HETATM   24  C11 UNL     1      21.768   0.205  52.108  1.00  0.00     0.052 C 
HETATM   25  C12 UNL     1      21.412  -0.578  54.825  1.00  0.00     0.261 C 
HETATM   26  F1  UNL     1      20.630   0.566  55.162  1.00  0.00    -0.250 F 
ENDBRANCH  22  23
ENDBRANCH  21  22
ENDBRANCH  19  21
ENDBRANCH   8  19
BRANCH  15  27
HETATM   27  O1  UNL     1      27.359   7.012  47.922  1.00  0.00    -0.360 OA
HETATM   28  C17 UNL     1      28.716   6.615  47.923  1.00  0.00     0.209 C 
ENDBRANCH  15  27
BRANCH   1  29
HETATM   29  C2  UNL     1      23.756   8.873  46.895  1.00  0.00     0.268 C 
HETATM   30  C1  UNL     1      22.301   9.003  46.595  1.00  0.00     0.037 C 
ENDBRANCH   1  29
TORSDOF 6
ENDMDL
