MODEL 1
REMARK VINA RESULT:      -9.8      0.000      0.000
REMARK  4 active torsions:
REMARK  status: ('A' for Active; 'I' for Inactive)
REMARK    1  A    between atoms: N1_7  and  C7_8 
REMARK    2  A    between atoms: C12_15  and  N4_16 
REMARK    3  A    between atoms: N4_16  and  C13_17 
REMARK    4  A    between atoms: C13_17  and  C14_18 
ROOT
HETATM    1  C7  UNL     1      25.379  -0.467  54.184  1.00  0.00     0.148 A 
HETATM    2  N2  UNL     1      24.885  -1.264  55.149  1.00  0.00    -0.223 NA
HETATM    3  C8  UNL     1      23.563  -1.404  55.313  1.00  0.00     0.236 A 
HETATM    4  N3  UNL     1      22.721  -0.736  54.498  1.00  0.00    -0.241 NA
HETATM    5  C9  UNL     1      23.142   0.073  53.517  1.00  0.00     0.072 A 
HETATM    6  C10 UNL     1      22.267   0.741  52.701  1.00  0.00     0.035 A 
HETATM    7  C11 UNL     1      22.833   1.540  51.735  1.00  0.00     0.031 A 
HETATM    8  C12 UNL     1      24.180   1.728  51.513  1.00  0.00     0.029 A 
HETATM    9  C20 UNL     1      24.990   1.026  52.368  1.00  0.00     0.046 A 
HETATM   10  C21 UNL     1      24.504   0.208  53.359  1.00  0.00     0.041 A 
ENDROOT
BRANCH   8  11
HETATM   11  N4  UNL     1      24.729   2.562  50.513  1.00  0.00    -0.386 N 
HETATM   12  H10 UNL     1      25.470   2.080  49.910  1.00  0.00     0.160 HD
BRANCH  11  13
HETATM   13  C13 UNL     1      24.521   3.914  50.119  1.00  0.00     0.158 C 
BRANCH  13  14
HETATM   14  C14 UNL     1      25.704   4.567  49.480  1.00  0.00    -0.041 A 
HETATM   15  C15 UNL     1      26.982   4.126  49.220  1.00  0.00     0.010 A 
HETATM   16  C16 UNL     1      27.890   4.940  48.586  1.00  0.00     0.024 A 
HETATM   17  C17 UNL     1      27.612   6.217  48.172  1.00  0.00     0.034 A 
HETATM   18 CL1  UNL     1      28.892   7.098  47.386  1.00  0.00    -0.084 Cl
HETATM   19  C18 UNL     1      26.344   6.683  48.421  1.00  0.00     0.024 A 
HETATM   20  C19 UNL     1      25.427   5.873  49.054  1.00  0.00     0.010 A 
ENDBRANCH  13  14
ENDBRANCH  11  13
ENDBRANCH   8  11
BRANCH   1  21
HETATM   21  N1  UNL     1      26.794  -0.358  54.057  1.00  0.00    -0.307 N 
HETATM   22  C2  UNL     1      27.541  -1.229  53.214  1.00  0.00     0.031 A 
HETATM   23  C1  UNL     1      26.846  -2.127  52.571  1.00  0.00     0.043 C 
HETATM   24  C3  UNL     1      28.987  -1.184  53.028  1.00  0.00     0.029 A 
HETATM   25  C4  UNL     1      29.619  -0.241  53.717  1.00  0.00     0.004 A 
HETATM   26  C5  UNL     1      28.893   0.682  54.601  1.00  0.00     0.018 A 
HETATM   27  C6  UNL     1      27.561   0.637  54.768  1.00  0.00     0.099 A 
ENDBRANCH   1  21
TORSDOF 4
ENDMDL
MODEL 2
REMARK VINA RESULT:      -9.7      0.972      1.446
REMARK  4 active torsions:
REMARK  status: ('A' for Active; 'I' for Inactive)
REMARK    1  A    between atoms: N1_7  and  C7_8 
REMARK    2  A    between atoms: C12_15  and  N4_16 
REMARK    3  A    between atoms: N4_16  and  C13_17 
REMARK    4  A    between atoms: C13_17  and  C14_18 
ROOT
HETATM    1  C7  UNL     1      25.449  -0.108  53.745  1.00  0.00     0.148 A 
HETATM    2  N2  UNL     1      24.675  -0.959  54.442  1.00  0.00    -0.223 NA
HETATM    3  C8  UNL     1      23.340  -0.848  54.420  1.00  0.00     0.236 A 
HETATM    4  N3  UNL     1      22.770   0.130  53.686  1.00  0.00    -0.241 NA
HETATM    5  C9  UNL     1      23.479   1.010  52.967  1.00  0.00     0.072 A 
HETATM    6  C10 UNL     1      22.877   1.996  52.229  1.00  0.00     0.035 A 
HETATM    7  C11 UNL     1      23.723   2.834  51.539  1.00  0.00     0.031 A 
HETATM    8  C12 UNL     1      25.098   2.775  51.519  1.00  0.00     0.029 A 
HETATM    9  C20 UNL     1      25.625   1.763  52.280  1.00  0.00     0.046 A 
HETATM   10  C21 UNL     1      24.850   0.886  52.999  1.00  0.00     0.041 A 
ENDROOT
BRANCH   8  11
HETATM   11  N4  UNL     1      25.939   3.657  50.803  1.00  0.00    -0.386 N 
HETATM   12  H10 UNL     1      26.111   4.588  51.302  1.00  0.00     0.160 HD
BRANCH  11  13
HETATM   13  C13 UNL     1      26.616   3.592  49.552  1.00  0.00     0.158 C 
BRANCH  13  14
HETATM   14  C14 UNL     1      26.903   4.920  48.928  1.00  0.00    -0.041 A 
HETATM   15  C15 UNL     1      26.120   6.027  48.698  1.00  0.00     0.010 A 
HETATM   16  C16 UNL     1      26.649   7.153  48.112  1.00  0.00     0.024 A 
HETATM   17  C17 UNL     1      27.958   7.265  47.721  1.00  0.00     0.034 A 
HETATM   18 CL1  UNL     1      28.448   8.771  46.995  1.00  0.00    -0.084 Cl
HETATM   19  C18 UNL     1      28.763   6.173  47.938  1.00  0.00     0.024 A 
HETATM   20  C19 UNL     1      28.239   5.042  48.526  1.00  0.00     0.010 A 
ENDBRANCH  13  14
ENDBRANCH  11  13
ENDBRANCH   8  11
BRANCH   1  21
HETATM   21  N1  UNL     1      26.863  -0.275  53.807  1.00  0.00    -0.307 N 
HETATM   22  C2  UNL     1      27.535  -1.273  53.044  1.00  0.00     0.031 A 
HETATM   23  C1  UNL     1      26.773  -2.016  52.290  1.00  0.00     0.043 C 
HETATM   24  C3  UNL     1      28.974  -1.509  53.051  1.00  0.00     0.029 A 
HETATM   25  C4  UNL     1      29.677  -0.709  53.845  1.00  0.00     0.004 A 
HETATM   26  C5  UNL     1      29.030   0.335  54.653  1.00  0.00     0.018 A 
HETATM   27  C6  UNL     1      27.704   0.548  54.642  1.00  0.00     0.099 A 
ENDBRANCH   1  21
TORSDOF 4
ENDMDL
MODEL 3
REMARK VINA RESULT:      -8.9      1.815      2.284
REMARK  4 active torsions:
REMARK  status: ('A' for Active; 'I' for Inactive)
REMARK    1  A    between atoms: N1_7  and  C7_8 
REMARK    2  A    between atoms: C12_15  and  N4_16 
REMARK    3  A    between atoms: N4_16  and  C13_17 
REMARK    4  A    between atoms: C13_17  and  C14_18 
ROOT
HETATM    1  C7  UNL     1      25.513  -0.055  53.604  1.00  0.00     0.148 A 
HETATM    2  N2  UNL     1      24.672  -0.884  54.247  1.00  0.00    -0.223 NA
HETATM    3  C8  UNL     1      23.346  -0.720  54.159  1.00  0.00     0.236 A 
HETATM    4  N3  UNL     1      22.852   0.291  53.414  1.00  0.00    -0.241 NA
HETATM    5  C9  UNL     1      23.631   1.153  52.747  1.00  0.00     0.072 A 
HETATM    6  C10 UNL     1      23.106   2.173  51.997  1.00  0.00     0.035 A 
HETATM    7  C11 UNL     1      24.018   2.987  51.365  1.00  0.00     0.031 A 
HETATM    8  C12 UNL     1      25.390   2.873  51.414  1.00  0.00     0.029 A 
HETATM    9  C20 UNL     1      25.837   1.830  52.183  1.00  0.00     0.046 A 
HETATM   10  C21 UNL     1      24.993   0.974  52.847  1.00  0.00     0.041 A 
ENDROOT
BRANCH   8  11
HETATM   11  N4  UNL     1      26.300   3.732  50.756  1.00  0.00    -0.386 N 
HETATM   12  H10 UNL     1      27.195   3.918  51.312  1.00  0.00     0.160 HD
BRANCH  11  13
HETATM   13  C13 UNL     1      26.298   4.417  49.508  1.00  0.00     0.158 C 
BRANCH  13  14
HETATM   14  C14 UNL     1      25.481   5.668  49.483  1.00  0.00    -0.041 A 
HETATM   15  C15 UNL     1      25.626   6.885  50.108  1.00  0.00     0.010 A 
HETATM   16  C16 UNL     1      24.722   7.898  49.891  1.00  0.00     0.024 A 
HETATM   17  C17 UNL     1      23.635   7.787  49.062  1.00  0.00     0.034 A 
HETATM   18 CL1  UNL     1      22.599   9.178  48.913  1.00  0.00    -0.084 Cl
HETATM   19  C18 UNL     1      23.467   6.581  48.426  1.00  0.00     0.024 A 
HETATM   20  C19 UNL     1      24.369   5.562  48.638  1.00  0.00     0.010 A 
ENDBRANCH  13  14
ENDBRANCH  11  13
ENDBRANCH   8  11
BRANCH   1  21
HETATM   21  N1  UNL     1      26.914  -0.279  53.735  1.00  0.00    -0.307 N 
HETATM   22  C2  UNL     1      27.579  -1.314  53.016  1.00  0.00     0.031 A 
HETATM   23  C1  UNL     1      26.823  -2.035  52.235  1.00  0.00     0.043 C 
HETATM   24  C3  UNL     1      29.005  -1.609  53.093  1.00  0.00     0.029 A 
HETATM   25  C4  UNL     1      29.703  -0.829  53.910  1.00  0.00     0.004 A 
HETATM   26  C5  UNL     1      29.063   0.252  54.674  1.00  0.00     0.018 A 
HETATM   27  C6  UNL     1      27.750   0.520  54.599  1.00  0.00     0.099 A 
ENDBRANCH   1  21
TORSDOF 4
ENDMDL
MODEL 4
REMARK VINA RESULT:      -8.9      2.686      5.784
REMARK  4 active torsions:
REMARK  status: ('A' for Active; 'I' for Inactive)
REMARK    1  A    between atoms: N1_7  and  C7_8 
REMARK    2  A    between atoms: C12_15  and  N4_16 
REMARK    3  A    between atoms: N4_16  and  C13_17 
REMARK    4  A    between atoms: C13_17  and  C14_18 
ROOT
HETATM    1  C7  UNL     1      20.356   0.591  51.548  1.00  0.00     0.148 A 
HETATM    2  N2  UNL     1      19.023   0.410  51.538  1.00  0.00    -0.223 NA
HETATM    3  C8  UNL     1      18.425  -0.338  52.475  1.00  0.00     0.236 A 
HETATM    4  N3  UNL     1      19.173  -0.914  53.438  1.00  0.00    -0.241 NA
HETATM    5  C9  UNL     1      20.504  -0.776  53.510  1.00  0.00     0.072 A 
HETATM    6  C10 UNL     1      21.243  -1.371  54.499  1.00  0.00     0.035 A 
HETATM    7  C11 UNL     1      22.600  -1.148  54.454  1.00  0.00     0.031 A 
HETATM    8  C12 UNL     1      23.276  -0.392  53.522  1.00  0.00     0.029 A 
HETATM    9  C20 UNL     1      22.468   0.170  52.567  1.00  0.00     0.046 A 
HETATM   10  C21 UNL     1      21.106  -0.004  52.541  1.00  0.00     0.041 A 
ENDROOT
BRANCH   8  11
HETATM   11  N4  UNL     1      24.674  -0.188  53.502  1.00  0.00    -0.386 N 
HETATM   12  H10 UNL     1      25.235  -1.075  53.292  1.00  0.00     0.160 HD
BRANCH  11  13
HETATM   13  C13 UNL     1      25.520   0.940  53.700  1.00  0.00     0.158 C 
BRANCH  13  14
HETATM   14  C14 UNL     1      25.667   1.828  52.507  1.00  0.00    -0.041 A 
HETATM   15  C15 UNL     1      26.543   1.820  51.446  1.00  0.00     0.010 A 
HETATM   16  C16 UNL     1      26.445   2.760  50.448  1.00  0.00     0.024 A 
HETATM   17  C17 UNL     1      25.500   3.753  50.424  1.00  0.00     0.034 A 
HETATM   18 CL1  UNL     1      25.532   4.855  49.076  1.00  0.00    -0.084 Cl
HETATM   19  C18 UNL     1      24.613   3.784  51.473  1.00  0.00     0.024 A 
HETATM   20  C19 UNL     1      24.704   2.845  52.476  1.00  0.00     0.010 A 
ENDBRANCH  13  14
ENDBRANCH  11  13
ENDBRANCH   8  11
BRANCH   1  21
HETATM   21  N1  UNL     1      20.935   1.397  50.527  1.00  0.00    -0.307 N 
HETATM   22  C2  UNL     1      21.041   2.812  50.656  1.00  0.00     0.031 A 
HETATM   23  C1  UNL     1      20.574   3.314  51.766  1.00  0.00     0.043 C 
HETATM   24  C3  UNL     1      21.618   3.707  49.659  1.00  0.00     0.029 A 
HETATM   25  C4  UNL     1      22.071   3.116  48.559  1.00  0.00     0.004 A 
HETATM   26  C5  UNL     1      21.985   1.659  48.378  1.00  0.00     0.018 A 
HETATM   27  C6  UNL     1      21.452   0.840  49.299  1.00  0.00     0.099 A 
ENDBRANCH   1  21
TORSDOF 4
ENDMDL
MODEL 5
REMARK VINA RESULT:      -8.5      3.786      7.939
REMARK  4 active torsions:
REMARK  status: ('A' for Active; 'I' for Inactive)
REMARK    1  A    between atoms: N1_7  and  C7_8 
REMARK    2  A    between atoms: C12_15  and  N4_16 
REMARK    3  A    between atoms: N4_16  and  C13_17 
REMARK    4  A    between atoms: C13_17  and  C14_18 
ROOT
HETATM    1  C7  UNL     1      24.449   2.654  51.176  1.00  0.00     0.148 A 
HETATM    2  N2  UNL     1      25.490   3.306  50.627  1.00  0.00    -0.223 NA
HETATM    3  C8  UNL     1      26.747   2.900  50.847  1.00  0.00     0.236 A 
HETATM    4  N3  UNL     1      26.968   1.824  51.630  1.00  0.00    -0.241 NA
HETATM    5  C9  UNL     1      25.980   1.127  52.208  1.00  0.00     0.072 A 
HETATM    6  C10 UNL     1      26.229   0.037  53.000  1.00  0.00     0.035 A 
HETATM    7  C11 UNL     1      25.124  -0.586  53.533  1.00  0.00     0.031 A 
HETATM    8  C12 UNL     1      23.808  -0.222  53.346  1.00  0.00     0.029 A 
HETATM    9  C20 UNL     1      23.642   0.877  52.543  1.00  0.00     0.046 A 
HETATM   10  C21 UNL     1      24.692   1.555  51.974  1.00  0.00     0.041 A 
ENDROOT
BRANCH   8  11
HETATM   11  N4  UNL     1      22.695  -0.881  53.915  1.00  0.00    -0.386 N 
HETATM   12  H10 UNL     1      22.812  -1.943  53.981  1.00  0.00     0.160 HD
BRANCH  11  13
HETATM   13  C13 UNL     1      21.437  -0.453  54.425  1.00  0.00     0.158 C 
BRANCH  13  14
HETATM   14  C14 UNL     1      20.361  -0.311  53.396  1.00  0.00    -0.041 A 
HETATM   15  C15 UNL     1      20.265   0.447  52.252  1.00  0.00     0.010 A 
HETATM   16  C16 UNL     1      19.149   0.373  51.453  1.00  0.00     0.024 A 
HETATM   17  C17 UNL     1      18.072  -0.433  51.718  1.00  0.00     0.034 A 
HETATM   18 CL1  UNL     1      16.746  -0.392  50.590  1.00  0.00    -0.084 Cl
HETATM   19  C18 UNL     1      18.142  -1.199  52.856  1.00  0.00     0.024 A 
HETATM   20  C19 UNL     1      19.258  -1.132  53.661  1.00  0.00     0.010 A 
ENDBRANCH  13  14
ENDBRANCH  11  13
ENDBRANCH   8  11
BRANCH   1  21
HETATM   21  N1  UNL     1      23.134   3.132  50.907  1.00  0.00    -0.307 N 
HETATM   22  C2  UNL     1      22.539   4.168  51.681  1.00  0.00     0.031 A 
HETATM   23  C1  UNL     1      23.274   4.645  52.647  1.00  0.00     0.043 C 
HETATM   24  C3  UNL     1      21.202   4.713  51.472  1.00  0.00     0.029 A 
HETATM   25  C4  UNL     1      20.519   4.172  50.469  1.00  0.00     0.004 A 
HETATM   26  C5  UNL     1      21.090   3.100  49.640  1.00  0.00     0.018 A 
HETATM   27  C6  UNL     1      22.321   2.603  49.837  1.00  0.00     0.099 A 
ENDBRANCH   1  21
TORSDOF 4
ENDMDL
MODEL 6
REMARK VINA RESULT:      -8.5      3.548      7.116
REMARK  4 active torsions:
REMARK  status: ('A' for Active; 'I' for Inactive)
REMARK    1  A    between atoms: N1_7  and  C7_8 
REMARK    2  A    between atoms: C12_15  and  N4_16 
REMARK    3  A    between atoms: N4_16  and  C13_17 
REMARK    4  A    between atoms: C13_17  and  C14_18 
ROOT
HETATM    1  C7  UNL     1      19.879   0.933  50.853  1.00  0.00     0.148 A 
HETATM    2  N2  UNL     1      18.574   0.856  50.538  1.00  0.00    -0.223 NA
HETATM    3  C8  UNL     1      17.721   0.168  51.309  1.00  0.00     0.236 A 
HETATM    4  N3  UNL     1      18.183  -0.453  52.415  1.00  0.00    -0.241 NA
HETATM    5  C9  UNL     1      19.468  -0.417  52.789  1.00  0.00     0.072 A 
HETATM    6  C10 UNL     1      19.913  -1.056  53.916  1.00  0.00     0.035 A 
HETATM    7  C11 UNL     1      21.259  -0.941  54.184  1.00  0.00     0.031 A 
HETATM    8  C12 UNL     1      22.186  -0.251  53.435  1.00  0.00     0.029 A 
HETATM    9  C20 UNL     1      21.665   0.361  52.324  1.00  0.00     0.046 A 
HETATM   10  C21 UNL     1      20.334   0.292  51.987  1.00  0.00     0.041 A 
ENDROOT
BRANCH   8  11
HETATM   11  N4  UNL     1      23.564  -0.158  53.735  1.00  0.00    -0.386 N 
HETATM   12  H10 UNL     1      23.904  -0.898  54.429  1.00  0.00     0.160 HD
BRANCH  11  13
HETATM   13  C13 UNL     1      24.617   0.707  53.323  1.00  0.00     0.158 C 
BRANCH  13  14
HETATM   14  C14 UNL     1      25.979   0.090  53.349  1.00  0.00    -0.041 A 
HETATM   15  C15 UNL     1      26.541  -0.950  52.645  1.00  0.00     0.010 A 
HETATM   16  C16 UNL     1      27.852  -1.309  52.852  1.00  0.00     0.024 A 
HETATM   17  C17 UNL     1      28.683  -0.685  53.746  1.00  0.00     0.034 A 
HETATM   18 CL1  UNL     1      30.314  -1.282  53.870  1.00  0.00    -0.084 Cl
HETATM   19  C18 UNL     1      28.146   0.356  54.462  1.00  0.00     0.024 A 
HETATM   20  C19 UNL     1      26.833   0.724  54.261  1.00  0.00     0.010 A 
ENDBRANCH  13  14
ENDBRANCH  11  13
ENDBRANCH   8  11
BRANCH   1  21
HETATM   21  N1  UNL     1      20.738   1.678  49.995  1.00  0.00    -0.307 N 
HETATM   22  C2  UNL     1      20.961   3.073  50.183  1.00  0.00     0.031 A 
HETATM   23  C1  UNL     1      20.329   3.615  51.188  1.00  0.00     0.043 C 
HETATM   24  C3  UNL     1      21.822   3.907  49.352  1.00  0.00     0.029 A 
HETATM   25  C4  UNL     1      22.428   3.278  48.352  1.00  0.00     0.004 A 
HETATM   26  C5  UNL     1      22.230   1.840  48.116  1.00  0.00     0.018 A 
HETATM   27  C6  UNL     1      21.437   1.077  48.884  1.00  0.00     0.099 A 
ENDBRANCH   1  21
TORSDOF 4
ENDMDL
MODEL 7
REMARK VINA RESULT:      -8.4      3.889      7.473
REMARK  4 active torsions:
REMARK  status: ('A' for Active; 'I' for Inactive)
REMARK    1  A    between atoms: N1_7  and  C7_8 
REMARK    2  A    between atoms: C12_15  and  N4_16 
REMARK    3  A    between atoms: N4_16  and  C13_17 
REMARK    4  A    between atoms: C13_17  and  C14_18 
ROOT
HETATM    1  C7  UNL     1      19.183   1.741  50.642  1.00  0.00     0.148 A 
HETATM    2  N2  UNL     1      18.274   2.148  49.738  1.00  0.00    -0.223 NA
HETATM    3  C8  UNL     1      17.072   1.561  49.662  1.00  0.00     0.236 A 
HETATM    4  N3  UNL     1      16.774   0.551  50.506  1.00  0.00    -0.241 NA
HETATM    5  C9  UNL     1      17.630   0.096  51.430  1.00  0.00     0.072 A 
HETATM    6  C10 UNL     1      17.305  -0.932  52.276  1.00  0.00     0.035 A 
HETATM    7  C11 UNL     1      18.277  -1.302  53.177  1.00  0.00     0.031 A 
HETATM    8  C12 UNL     1      19.529  -0.743  53.307  1.00  0.00     0.029 A 
HETATM    9  C20 UNL     1      19.779   0.278  52.427  1.00  0.00     0.046 A 
HETATM   10  C21 UNL     1      18.863   0.707  51.497  1.00  0.00     0.041 A 
ENDROOT
BRANCH   8  11
HETATM   11  N4  UNL     1      20.507  -1.152  54.241  1.00  0.00    -0.386 N 
HETATM   12  H10 UNL     1      20.466  -2.195  54.478  1.00  0.00     0.160 HD
BRANCH  11  13
HETATM   13  C13 UNL     1      21.548  -0.488  54.950  1.00  0.00     0.158 C 
BRANCH  13  14
HETATM   14  C14 UNL     1      22.784  -0.230  54.148  1.00  0.00    -0.041 A 
HETATM   15  C15 UNL     1      23.025   0.543  53.036  1.00  0.00     0.010 A 
HETATM   16  C16 UNL     1      24.287   0.624  52.498  1.00  0.00     0.024 A 
HETATM   17  C17 UNL     1      25.377  -0.036  53.005  1.00  0.00     0.034 A 
HETATM   18 CL1  UNL     1      26.898   0.188  52.187  1.00  0.00    -0.084 Cl
HETATM   19  C18 UNL     1      25.163  -0.816  54.115  1.00  0.00     0.024 A 
HETATM   20  C19 UNL     1      23.901  -0.901  54.661  1.00  0.00     0.010 A 
ENDBRANCH  13  14
ENDBRANCH  11  13
ENDBRANCH   8  11
BRANCH   1  21
HETATM   21  N1  UNL     1      20.445   2.402  50.676  1.00  0.00    -0.307 N 
HETATM   22  C2  UNL     1      21.529   1.993  49.848  1.00  0.00     0.031 A 
HETATM   23  C1  UNL     1      21.288   0.980  49.061  1.00  0.00     0.043 C 
HETATM   24  C3  UNL     1      22.848   2.614  49.821  1.00  0.00     0.029 A 
HETATM   25  C4  UNL     1      23.010   3.639  50.650  1.00  0.00     0.004 A 
HETATM   26  C5  UNL     1      21.922   4.099  51.526  1.00  0.00     0.018 A 
HETATM   27  C6  UNL     1      20.709   3.523  51.546  1.00  0.00     0.099 A 
ENDBRANCH   1  21
TORSDOF 4
ENDMDL
MODEL 8
REMARK VINA RESULT:      -8.4      5.412      9.271
REMARK  4 active torsions:
REMARK  status: ('A' for Active; 'I' for Inactive)
REMARK    1  A    between atoms: N1_7  and  C7_8 
REMARK    2  A    between atoms: C12_15  and  N4_16 
REMARK    3  A    between atoms: N4_16  and  C13_17 
REMARK    4  A    between atoms: C13_17  and  C14_18 
ROOT
HETATM    1  C7  UNL     1      23.471   1.129  52.051  1.00  0.00     0.148 A 
HETATM    2  N2  UNL     1      24.814   1.204  52.033  1.00  0.00    -0.223 NA
HETATM    3  C8  UNL     1      25.552   0.493  52.896  1.00  0.00     0.236 A 
HETATM    4  N3  UNL     1      24.935  -0.307  53.792  1.00  0.00    -0.241 NA
HETATM    5  C9  UNL     1      23.604  -0.429  53.865  1.00  0.00     0.072 A 
HETATM    6  C10 UNL     1      23.000  -1.248  54.784  1.00  0.00     0.035 A 
HETATM    7  C11 UNL     1      21.625  -1.280  54.752  1.00  0.00     0.031 A 
HETATM    8  C12 UNL     1      20.809  -0.576  53.893  1.00  0.00     0.029 A 
HETATM    9  C20 UNL     1      21.486   0.219  53.005  1.00  0.00     0.046 A 
HETATM   10  C21 UNL     1      22.856   0.307  52.973  1.00  0.00     0.041 A 
ENDROOT
BRANCH   8  11
HETATM   11  N4  UNL     1      19.396  -0.627  53.892  1.00  0.00    -0.386 N 
HETATM   12  H10 UNL     1      18.970  -0.771  54.863  1.00  0.00     0.160 HD
BRANCH  11  13
HETATM   13  C13 UNL     1      18.397  -0.532  52.882  1.00  0.00     0.158 C 
BRANCH  13  14
HETATM   14  C14 UNL     1      17.400  -1.646  52.883  1.00  0.00    -0.041 A 
HETATM   15  C15 UNL     1      16.145  -1.769  52.332  1.00  0.00     0.010 A 
HETATM   16  C16 UNL     1      15.432  -2.937  52.466  1.00  0.00     0.024 A 
HETATM   17  C17 UNL     1      15.892  -4.040  53.137  1.00  0.00     0.034 A 
HETATM   18 CL1  UNL     1      14.845  -5.429  53.203  1.00  0.00    -0.084 Cl
HETATM   19  C18 UNL     1      17.142  -3.942  53.698  1.00  0.00     0.024 A 
HETATM   20  C19 UNL     1      17.864  -2.776  53.567  1.00  0.00     0.010 A 
ENDBRANCH  13  14
ENDBRANCH  11  13
ENDBRANCH   8  11
BRANCH   1  21
HETATM   21  N1  UNL     1      22.739   1.909  51.109  1.00  0.00    -0.307 N 
HETATM   22  C2  UNL     1      22.496   3.297  51.312  1.00  0.00     0.031 A 
HETATM   23  C1  UNL     1      22.987   3.803  52.410  1.00  0.00     0.043 C 
HETATM   24  C3  UNL     1      21.759   4.165  50.400  1.00  0.00     0.029 A 
HETATM   25  C4  UNL     1      21.293   3.573  49.306  1.00  0.00     0.004 A 
HETATM   26  C5  UNL     1      21.517   2.142  49.051  1.00  0.00     0.018 A 
HETATM   27  C6  UNL     1      22.197   1.349  49.894  1.00  0.00     0.099 A 
ENDBRANCH   1  21
TORSDOF 4
ENDMDL
MODEL 9
REMARK VINA RESULT:      -8.3      2.029      5.108
REMARK  4 active torsions:
REMARK  status: ('A' for Active; 'I' for Inactive)
REMARK    1  A    between atoms: N1_7  and  C7_8 
REMARK    2  A    between atoms: C12_15  and  N4_16 
REMARK    3  A    between atoms: N4_16  and  C13_17 
REMARK    4  A    between atoms: C13_17  and  C14_18 
ROOT
HETATM    1  C7  UNL     1      22.492   0.871  51.858  1.00  0.00     0.148 A 
HETATM    2  N2  UNL     1      21.902  -0.086  52.598  1.00  0.00    -0.223 NA
HETATM    3  C8  UNL     1      22.576  -0.715  53.570  1.00  0.00     0.236 A 
HETATM    4  N3  UNL     1      23.862  -0.381  53.806  1.00  0.00    -0.241 NA
HETATM    5  C9  UNL     1      24.511   0.561  53.109  1.00  0.00     0.072 A 
HETATM    6  C10 UNL     1      25.818   0.883  53.367  1.00  0.00     0.035 A 
HETATM    7  C11 UNL     1      26.364   1.868  52.576  1.00  0.00     0.031 A 
HETATM    8  C12 UNL     1      25.728   2.552  51.564  1.00  0.00     0.029 A 
HETATM    9  C20 UNL     1      24.425   2.174  51.367  1.00  0.00     0.046 A 
HETATM   10  C21 UNL     1      23.807   1.200  52.113  1.00  0.00     0.041 A 
ENDROOT
BRANCH   8  11
HETATM   11  N4  UNL     1      26.321   3.555  50.765  1.00  0.00    -0.386 N 
HETATM   12  H10 UNL     1      26.515   4.467  51.292  1.00  0.00     0.160 HD
BRANCH  11  13
HETATM   13  C13 UNL     1      26.725   3.635  49.402  1.00  0.00     0.158 C 
BRANCH  13  14
HETATM   14  C14 UNL     1      26.944   5.024  48.895  1.00  0.00    -0.041 A 
HETATM   15  C15 UNL     1      26.123   6.126  48.820  1.00  0.00     0.010 A 
HETATM   16  C16 UNL     1      26.591   7.317  48.319  1.00  0.00     0.024 A 
HETATM   17  C17 UNL     1      27.872   7.504  47.865  1.00  0.00     0.034 A 
HETATM   18 CL1  UNL     1      28.283   9.085  47.263  1.00  0.00    -0.084 Cl
HETATM   19  C18 UNL     1      28.712   6.419  47.927  1.00  0.00     0.024 A 
HETATM   20  C19 UNL     1      28.251   5.222  48.430  1.00  0.00     0.010 A 
ENDBRANCH  13  14
ENDBRANCH  11  13
ENDBRANCH   8  11
BRANCH   1  21
HETATM   21  N1  UNL     1      21.724   1.504  50.839  1.00  0.00    -0.307 N 
HETATM   22  C2  UNL     1      20.927   2.654  51.105  1.00  0.00     0.031 A 
HETATM   23  C1  UNL     1      20.947   3.083  52.337  1.00  0.00     0.043 C 
HETATM   24  C3  UNL     1      20.114   3.361  50.121  1.00  0.00     0.029 A 
HETATM   25  C4  UNL     1      20.149   2.860  48.892  1.00  0.00     0.004 A 
HETATM   26  C5  UNL     1      20.956   1.675  48.566  1.00  0.00     0.018 A 
HETATM   27  C6  UNL     1      21.703   1.029  49.476  1.00  0.00     0.099 A 
ENDBRANCH   1  21
TORSDOF 4
ENDMDL
