MODEL 1
REMARK VINA RESULT:      -8.9      0.000      0.000
REMARK  6 active torsions:
REMARK  status: ('A' for Active; 'I' for Inactive)
REMARK    1  A    between atoms: N1_2  and  C3_4 
REMARK    2  A    between atoms: C3_4  and  C4_5 
REMARK    3  A    between atoms: C5_6  and  C6_7 
REMARK       I    between atoms: C6_7  and  N2_9 
REMARK    4  A    between atoms: N2_9  and  C7_10 
REMARK    5  A    between atoms: C14_19  and  N5_20 
REMARK    6  A    between atoms: N5_20  and  C15_21 
ROOT
HETATM    1  C7  UNL     1      24.133   3.391  50.332  1.00  0.00     0.020 C 
HETATM    2  C8  UNL     1      23.766   2.824  51.470  1.00  0.00     0.041 C 
HETATM    3  C9  UNL     1      22.833   1.712  51.589  1.00  0.00     0.019 A 
HETATM    4  C10 UNL     1      21.851   1.276  50.724  1.00  0.00     0.053 A 
HETATM    5  N3  UNL     1      21.082   0.226  51.004  1.00  0.00    -0.263 NA
HETATM    6  C11 UNL     1      21.230  -0.460  52.150  1.00  0.00     0.142 A 
HETATM    7  C12 UNL     1      22.186  -0.104  53.085  1.00  0.00     0.089 A 
HETATM    8  C13 UNL     1      22.416  -0.768  54.322  1.00  0.00     0.103 C 
HETATM    9  N4  UNL     1      22.583  -1.294  55.323  1.00  0.00    -0.191 NA
HETATM   10  C14 UNL     1      22.974   0.988  52.777  1.00  0.00     0.067 A 
HETATM   11  C21 UNL     1      21.461   1.832  49.394  1.00  0.00     0.138 C 
HETATM   12  C22 UNL     1      22.596   2.434  48.660  1.00  0.00     0.138 C 
HETATM   13  O2  UNL     1      22.548   2.277  47.431  1.00  0.00    -0.297 OA
HETATM   14  C23 UNL     1      23.826   3.197  48.914  1.00  0.00     0.135 C 
ENDROOT
BRANCH  10  15
HETATM   15  N5  UNL     1      23.982   1.425  53.680  1.00  0.00    -0.354 N 
HETATM   16  H14 UNL     1      23.794   2.070  54.469  1.00  0.00     0.166 HD
BRANCH  15  17
HETATM   17  C15 UNL     1      25.312   0.961  53.502  1.00  0.00     0.034 A 
HETATM   18  C16 UNL     1      25.597  -0.330  53.107  1.00  0.00     0.032 A 
HETATM   19  C17 UNL     1      26.890  -0.799  52.928  1.00  0.00     0.046 A 
HETATM   20  C18 UNL     1      27.950   0.082  53.161  1.00  0.00     0.138 A 
HETATM   21  F1  UNL     1      29.235  -0.303  53.008  1.00  0.00    -0.204 F 
HETATM   22  C19 UNL     1      27.716   1.370  53.554  1.00  0.00     0.074 A 
HETATM   23 CL1  UNL     1      29.000   2.522  53.861  1.00  0.00    -0.081 Cl
HETATM   24  C20 UNL     1      26.403   1.764  53.710  1.00  0.00     0.056 A 
ENDBRANCH  15  17
ENDBRANCH  10  15
BRANCH   1  25
HETATM   25  N2  UNL     1      25.049   4.432  50.648  1.00  0.00    -0.327 N 
HETATM   26  C6  UNL     1      24.467   5.729  50.527  1.00  0.00     0.245 C 
HETATM   27  O1  UNL     1      23.334   6.168  50.205  1.00  0.00    -0.268 OA
HETATM   28  H11 UNL     1      26.035   4.448  50.943  1.00  0.00     0.169 HD
BRANCH  26  29
HETATM   29  C5  UNL     1      25.218   6.952  50.800  1.00  0.00     0.072 C 
HETATM   30  C4  UNL     1      26.005   7.391  49.832  1.00  0.00     0.008 C 
BRANCH  30  31
HETATM   31  C3  UNL     1      26.840   8.612  49.925  1.00  0.00     0.299 C 
BRANCH  31  32
HETATM   32  N1  UNL     1      27.869   8.685  48.923  1.00  0.00     0.083 N 
HETATM   33  C1  UNL     1      28.309   7.385  48.499  1.00  0.00     0.309 C 
HETATM   34  C2  UNL     1      28.992   9.474  49.334  1.00  0.00     0.309 C 
ENDBRANCH  31  32
ENDBRANCH  30  31
ENDBRANCH  26  29
ENDBRANCH   1  25
TORSDOF 6
ENDMDL
MODEL 2
REMARK VINA RESULT:      -8.9      3.199      5.051
REMARK  6 active torsions:
REMARK  status: ('A' for Active; 'I' for Inactive)
REMARK    1  A    between atoms: N1_2  and  C3_4 
REMARK    2  A    between atoms: C3_4  and  C4_5 
REMARK    3  A    between atoms: C5_6  and  C6_7 
REMARK       I    between atoms: C6_7  and  N2_9 
REMARK    4  A    between atoms: N2_9  and  C7_10 
REMARK    5  A    between atoms: C14_19  and  N5_20 
REMARK    6  A    between atoms: N5_20  and  C15_21 
ROOT
HETATM    1  C7  UNL     1      25.047   2.427  52.747  1.00  0.00     0.020 C 
HETATM    2  C8  UNL     1      23.875   1.928  52.390  1.00  0.00     0.041 C 
HETATM    3  C9  UNL     1      23.249   0.754  52.982  1.00  0.00     0.019 A 
HETATM    4  C10 UNL     1      23.808  -0.299  53.677  1.00  0.00     0.053 A 
HETATM    5  N3  UNL     1      23.070  -1.300  54.151  1.00  0.00    -0.263 NA
HETATM    6  C11 UNL     1      21.738  -1.328  53.973  1.00  0.00     0.142 A 
HETATM    7  C12 UNL     1      21.080  -0.320  53.290  1.00  0.00     0.089 A 
HETATM    8  C13 UNL     1      19.678  -0.264  53.054  1.00  0.00     0.103 C 
HETATM    9  N4  UNL     1      18.554  -0.234  52.850  1.00  0.00    -0.191 NA
HETATM   10  C14 UNL     1      21.863   0.709  52.805  1.00  0.00     0.067 A 
HETATM   11  C21 UNL     1      25.241  -0.536  54.024  1.00  0.00     0.138 C 
HETATM   12  C22 UNL     1      26.001   0.715  54.241  1.00  0.00     0.138 C 
HETATM   13  O2  UNL     1      26.866   0.638  55.125  1.00  0.00    -0.297 OA
HETATM   14  C23 UNL     1      26.078   2.091  53.731  1.00  0.00     0.135 C 
ENDROOT
BRANCH  10  15
HETATM   15  N5  UNL     1      21.271   1.788  52.092  1.00  0.00    -0.354 N 
HETATM   16  H14 UNL     1      20.648   2.486  52.536  1.00  0.00     0.166 HD
BRANCH  15  17
HETATM   17  C15 UNL     1      21.541   1.924  50.704  1.00  0.00     0.034 A 
HETATM   18  C16 UNL     1      21.456   0.861  49.828  1.00  0.00     0.032 A 
HETATM   19  C17 UNL     1      21.716   0.977  48.471  1.00  0.00     0.046 A 
HETATM   20  C18 UNL     1      22.082   2.231  47.973  1.00  0.00     0.138 A 
HETATM   21  F1  UNL     1      22.350   2.421  46.663  1.00  0.00    -0.204 F 
HETATM   22  C19 UNL     1      22.179   3.313  48.803  1.00  0.00     0.074 A 
HETATM   23 CL1  UNL     1      22.631   4.910  48.242  1.00  0.00    -0.081 Cl
HETATM   24  C20 UNL     1      21.905   3.120  50.141  1.00  0.00     0.056 A 
ENDBRANCH  15  17
ENDBRANCH  10  15
BRANCH   1  25
HETATM   25  N2  UNL     1      25.295   3.565  51.930  1.00  0.00    -0.327 N 
HETATM   26  C6  UNL     1      26.072   3.251  50.775  1.00  0.00     0.245 C 
HETATM   27  O1  UNL     1      26.589   2.205  50.309  1.00  0.00    -0.268 OA
HETATM   28  H11 UNL     1      25.034   4.559  51.995  1.00  0.00     0.169 HD
BRANCH  26  29
HETATM   29  C5  UNL     1      26.452   4.262  49.790  1.00  0.00     0.072 C 
HETATM   30  C4  UNL     1      25.731   5.370  49.773  1.00  0.00     0.008 C 
BRANCH  30  31
HETATM   31  C3  UNL     1      25.967   6.504  48.847  1.00  0.00     0.299 C 
BRANCH  31  32
HETATM   32  N1  UNL     1      25.614   7.784  49.400  1.00  0.00     0.083 N 
HETATM   33  C1  UNL     1      26.753   8.481  49.929  1.00  0.00     0.309 C 
HETATM   34  C2  UNL     1      24.585   7.697  50.393  1.00  0.00     0.309 C 
ENDBRANCH  31  32
ENDBRANCH  30  31
ENDBRANCH  26  29
ENDBRANCH   1  25
TORSDOF 6
ENDMDL
MODEL 3
REMARK VINA RESULT:      -8.8      3.283      5.070
REMARK  6 active torsions:
REMARK  status: ('A' for Active; 'I' for Inactive)
REMARK    1  A    between atoms: N1_2  and  C3_4 
REMARK    2  A    between atoms: C3_4  and  C4_5 
REMARK    3  A    between atoms: C5_6  and  C6_7 
REMARK       I    between atoms: C6_7  and  N2_9 
REMARK    4  A    between atoms: N2_9  and  C7_10 
REMARK    5  A    between atoms: C14_19  and  N5_20 
REMARK    6  A    between atoms: N5_20  and  C15_21 
ROOT
HETATM    1  C7  UNL     1      25.892   1.302  52.100  1.00  0.00     0.020 C 
HETATM    2  C8  UNL     1      24.676   0.894  51.776  1.00  0.00     0.041 C 
HETATM    3  C9  UNL     1      23.723   0.287  52.695  1.00  0.00     0.019 A 
HETATM    4  C10 UNL     1      23.931  -0.361  53.896  1.00  0.00     0.053 A 
HETATM    5  N3  UNL     1      22.925  -0.858  54.610  1.00  0.00    -0.263 NA
HETATM    6  C11 UNL     1      21.652  -0.750  54.191  1.00  0.00     0.142 A 
HETATM    7  C12 UNL     1      21.336  -0.118  53.001  1.00  0.00     0.089 A 
HETATM    8  C13 UNL     1      20.023   0.045  52.478  1.00  0.00     0.103 C 
HETATM    9  N4  UNL     1      18.968   0.156  52.054  1.00  0.00    -0.191 NA
HETATM   10  C14 UNL     1      22.394   0.392  52.274  1.00  0.00     0.067 A 
HETATM   11  C21 UNL     1      25.218  -0.629  54.604  1.00  0.00     0.138 C 
HETATM   12  C22 UNL     1      26.236   0.421  54.375  1.00  0.00     0.138 C 
HETATM   13  O2  UNL     1      26.961   0.649  55.355  1.00  0.00    -0.297 OA
HETATM   14  C23 UNL     1      26.701   1.331  53.320  1.00  0.00     0.135 C 
ENDROOT
BRANCH  10  15
HETATM   15  N5  UNL     1      22.162   1.058  51.039  1.00  0.00    -0.354 N 
HETATM   16  H14 UNL     1      22.005   0.555  50.146  1.00  0.00     0.166 HD
BRANCH  15  17
HETATM   17  C15 UNL     1      22.144   2.478  51.016  1.00  0.00     0.034 A 
HETATM   18  C16 UNL     1      21.837   3.229  52.132  1.00  0.00     0.032 A 
HETATM   19  C17 UNL     1      21.814   4.616  52.127  1.00  0.00     0.046 A 
HETATM   20  C18 UNL     1      22.116   5.277  50.933  1.00  0.00     0.138 A 
HETATM   21  F1  UNL     1      22.114   6.625  50.851  1.00  0.00    -0.204 F 
HETATM   22  C19 UNL     1      22.426   4.574  49.802  1.00  0.00     0.074 A 
HETATM   23 CL1  UNL     1      22.815   5.343  48.277  1.00  0.00    -0.081 Cl
HETATM   24  C20 UNL     1      22.429   3.197  49.885  1.00  0.00     0.056 A 
ENDBRANCH  15  17
ENDBRANCH  10  15
BRANCH   1  25
HETATM   25  N2  UNL     1      26.494   1.830  50.925  1.00  0.00    -0.327 N 
HETATM   26  C6  UNL     1      26.122   3.185  50.680  1.00  0.00     0.245 C 
HETATM   27  O1  UNL     1      25.386   4.024  51.260  1.00  0.00    -0.268 OA
HETATM   28  H11 UNL     1      27.136   1.444  50.219  1.00  0.00     0.169 HD
BRANCH  26  29
HETATM   29  C5  UNL     1      26.617   3.937  49.529  1.00  0.00     0.072 C 
HETATM   30  C4  UNL     1      26.347   5.231  49.508  1.00  0.00     0.008 C 
BRANCH  30  31
HETATM   31  C3  UNL     1      26.767   6.153  48.426  1.00  0.00     0.299 C 
BRANCH  31  32
HETATM   32  N1  UNL     1      26.739   7.540  48.805  1.00  0.00     0.083 N 
HETATM   33  C1  UNL     1      28.056   8.111  48.873  1.00  0.00     0.309 C 
HETATM   34  C2  UNL     1      26.041   7.767  50.035  1.00  0.00     0.309 C 
ENDBRANCH  31  32
ENDBRANCH  30  31
ENDBRANCH  26  29
ENDBRANCH   1  25
TORSDOF 6
ENDMDL
MODEL 4
REMARK VINA RESULT:      -8.5      3.442      6.274
REMARK  6 active torsions:
REMARK  status: ('A' for Active; 'I' for Inactive)
REMARK    1  A    between atoms: N1_2  and  C3_4 
REMARK    2  A    between atoms: C3_4  and  C4_5 
REMARK    3  A    between atoms: C5_6  and  C6_7 
REMARK       I    between atoms: C6_7  and  N2_9 
REMARK    4  A    between atoms: N2_9  and  C7_10 
REMARK    5  A    between atoms: C14_19  and  N5_20 
REMARK    6  A    between atoms: N5_20  and  C15_21 
ROOT
HETATM    1  C7  UNL     1      23.026   0.830  52.184  1.00  0.00     0.020 C 
HETATM    2  C8  UNL     1      22.576   1.069  50.963  1.00  0.00     0.041 C 
HETATM    3  C9  UNL     1      21.179   1.280  50.611  1.00  0.00     0.019 A 
HETATM    4  C10 UNL     1      20.027   0.902  51.269  1.00  0.00     0.053 A 
HETATM    5  N3  UNL     1      18.818   1.184  50.791  1.00  0.00    -0.263 NA
HETATM    6  C11 UNL     1      18.665   1.856  49.637  1.00  0.00     0.142 A 
HETATM    7  C12 UNL     1      19.756   2.281  48.900  1.00  0.00     0.089 A 
HETATM    8  C13 UNL     1      19.693   2.996  47.671  1.00  0.00     0.103 C 
HETATM    9  N4  UNL     1      19.636   3.554  46.675  1.00  0.00    -0.191 NA
HETATM   10  C14 UNL     1      21.002   1.978  49.412  1.00  0.00     0.067 A 
HETATM   11  C21 UNL     1      19.886   0.154  52.555  1.00  0.00     0.138 C 
HETATM   12  C22 UNL     1      20.986   0.424  53.507  1.00  0.00     0.138 C 
HETATM   13  O2  UNL     1      20.637   0.441  54.696  1.00  0.00    -0.297 OA
HETATM   14  C23 UNL     1      22.431   0.691  53.515  1.00  0.00     0.135 C 
ENDROOT
BRANCH  10  15
HETATM   15  N5  UNL     1      22.180   2.376  48.721  1.00  0.00    -0.354 N 
HETATM   16  H14 UNL     1      22.519   1.904  47.863  1.00  0.00     0.166 HD
BRANCH  15  17
HETATM   17  C15 UNL     1      22.936   3.469  49.223  1.00  0.00     0.034 A 
HETATM   18  C16 UNL     1      22.354   4.514  49.910  1.00  0.00     0.032 A 
HETATM   19  C17 UNL     1      23.076   5.589  50.406  1.00  0.00     0.046 A 
HETATM   20  C18 UNL     1      24.458   5.609  50.197  1.00  0.00     0.138 A 
HETATM   21  F1  UNL     1      25.228   6.621  50.650  1.00  0.00    -0.204 F 
HETATM   22  C19 UNL     1      25.079   4.594  49.522  1.00  0.00     0.074 A 
HETATM   23 CL1  UNL     1      26.806   4.560  49.227  1.00  0.00    -0.081 Cl
HETATM   24  C20 UNL     1      24.293   3.559  49.058  1.00  0.00     0.056 A 
ENDBRANCH  15  17
ENDBRANCH  10  15
BRANCH   1  25
HETATM   25  N2  UNL     1      24.438   0.685  52.100  1.00  0.00    -0.327 N 
HETATM   26  C6  UNL     1      25.128   1.914  52.325  1.00  0.00     0.245 C 
HETATM   27  O1  UNL     1      24.781   3.095  52.579  1.00  0.00    -0.268 OA
HETATM   28  H11 UNL     1      25.062  -0.111  51.914  1.00  0.00     0.169 HD
BRANCH  26  29
HETATM   29  C5  UNL     1      26.586   2.010  52.287  1.00  0.00     0.072 C 
HETATM   30  C4  UNL     1      27.214   1.926  53.448  1.00  0.00     0.008 C 
BRANCH  30  31
HETATM   31  C3  UNL     1      28.686   2.001  53.607  1.00  0.00     0.299 C 
BRANCH  31  32
HETATM   32  N1  UNL     1      29.247   0.884  54.318  1.00  0.00     0.083 N 
HETATM   33  C1  UNL     1      29.981   0.002  53.452  1.00  0.00     0.309 C 
HETATM   34  C2  UNL     1      28.268   0.144  55.057  1.00  0.00     0.309 C 
ENDBRANCH  31  32
ENDBRANCH  30  31
ENDBRANCH  26  29
ENDBRANCH   1  25
TORSDOF 6
ENDMDL
MODEL 5
REMARK VINA RESULT:      -8.4      1.954      2.377
REMARK  6 active torsions:
REMARK  status: ('A' for Active; 'I' for Inactive)
REMARK    1  A    between atoms: N1_2  and  C3_4 
REMARK    2  A    between atoms: C3_4  and  C4_5 
REMARK    3  A    between atoms: C5_6  and  C6_7 
REMARK       I    between atoms: C6_7  and  N2_9 
REMARK    4  A    between atoms: N2_9  and  C7_10 
REMARK    5  A    between atoms: C14_19  and  N5_20 
REMARK    6  A    between atoms: N5_20  and  C15_21 
ROOT
HETATM    1  C7  UNL     1      23.678   3.841  49.566  1.00  0.00     0.020 C 
HETATM    2  C8  UNL     1      23.692   2.963  50.556  1.00  0.00     0.041 C 
HETATM    3  C9  UNL     1      22.576   2.692  51.452  1.00  0.00     0.019 A 
HETATM    4  C10 UNL     1      21.486   3.473  51.778  1.00  0.00     0.053 A 
HETATM    5  N3  UNL     1      20.552   3.056  52.629  1.00  0.00    -0.263 NA
HETATM    6  C11 UNL     1      20.629   1.847  53.211  1.00  0.00     0.142 A 
HETATM    7  C12 UNL     1      21.682   0.988  52.951  1.00  0.00     0.089 A 
HETATM    8  C13 UNL     1      21.848  -0.307  53.517  1.00  0.00     0.103 C 
HETATM    9  N4  UNL     1      21.986  -1.339  53.990  1.00  0.00    -0.191 NA
HETATM   10  C14 UNL     1      22.641   1.438  52.066  1.00  0.00     0.067 A 
HETATM   11  C21 UNL     1      21.137   4.843  51.296  1.00  0.00     0.138 C 
HETATM   12  C22 UNL     1      21.590   5.103  49.911  1.00  0.00     0.138 C 
HETATM   13  O2  UNL     1      20.822   5.818  49.250  1.00  0.00    -0.297 OA
HETATM   14  C23 UNL     1      22.705   4.783  49.010  1.00  0.00     0.135 C 
ENDROOT
BRANCH  10  15
HETATM   15  N5  UNL     1      23.758   0.621  51.739  1.00  0.00    -0.354 N 
HETATM   16  H14 UNL     1      23.765  -0.032  50.934  1.00  0.00     0.166 HD
BRANCH  15  17
HETATM   17  C15 UNL     1      24.924   0.695  52.546  1.00  0.00     0.034 A 
HETATM   18  C16 UNL     1      25.152   1.739  53.419  1.00  0.00     0.032 A 
HETATM   19  C17 UNL     1      26.285   1.827  54.214  1.00  0.00     0.046 A 
HETATM   20  C18 UNL     1      27.237   0.808  54.122  1.00  0.00     0.138 A 
HETATM   21  F1  UNL     1      28.365   0.825  54.864  1.00  0.00    -0.204 F 
HETATM   22  C19 UNL     1      27.054  -0.247  53.271  1.00  0.00     0.074 A 
HETATM   23 CL1  UNL     1      28.208  -1.555  53.111  1.00  0.00    -0.081 Cl
HETATM   24  C20 UNL     1      25.902  -0.265  52.513  1.00  0.00     0.056 A 
ENDBRANCH  15  17
ENDBRANCH  10  15
BRANCH   1  25
HETATM   25  N2  UNL     1      24.954   3.799  48.939  1.00  0.00    -0.327 N 
HETATM   26  C6  UNL     1      25.779   4.905  49.304  1.00  0.00     0.245 C 
HETATM   27  O1  UNL     1      25.643   5.908  50.050  1.00  0.00    -0.268 OA
HETATM   28  H11 UNL     1      25.405   3.147  48.284  1.00  0.00     0.169 HD
BRANCH  26  29
HETATM   29  C5  UNL     1      27.134   5.076  48.784  1.00  0.00     0.072 C 
HETATM   30  C4  UNL     1      27.507   6.312  48.502  1.00  0.00     0.008 C 
BRANCH  30  31
HETATM   31  C3  UNL     1      28.840   6.680  47.968  1.00  0.00     0.299 C 
BRANCH  31  32
HETATM   32  N1  UNL     1      29.236   8.027  48.280  1.00  0.00     0.083 N 
HETATM   33  C1  UNL     1      30.533   8.083  48.896  1.00  0.00     0.309 C 
HETATM   34  C2  UNL     1      28.276   8.716  49.090  1.00  0.00     0.309 C 
ENDBRANCH  31  32
ENDBRANCH  30  31
ENDBRANCH  26  29
ENDBRANCH   1  25
TORSDOF 6
ENDMDL
MODEL 6
REMARK VINA RESULT:      -8.2      4.354      8.050
REMARK  6 active torsions:
REMARK  status: ('A' for Active; 'I' for Inactive)
REMARK    1  A    between atoms: N1_2  and  C3_4 
REMARK    2  A    between atoms: C3_4  and  C4_5 
REMARK    3  A    between atoms: C5_6  and  C6_7 
REMARK       I    between atoms: C6_7  and  N2_9 
REMARK    4  A    between atoms: N2_9  and  C7_10 
REMARK    5  A    between atoms: C14_19  and  N5_20 
REMARK    6  A    between atoms: N5_20  and  C15_21 
ROOT
HETATM    1  C7  UNL     1      21.371   1.643  52.711  1.00  0.00     0.020 C 
HETATM    2  C8  UNL     1      22.393   2.384  52.314  1.00  0.00     0.041 C 
HETATM    3  C9  UNL     1      23.757   1.906  52.138  1.00  0.00     0.019 A 
HETATM    4  C10 UNL     1      24.394   0.811  52.684  1.00  0.00     0.053 A 
HETATM    5  N3  UNL     1      25.664   0.525  52.405  1.00  0.00    -0.263 NA
HETATM    6  C11 UNL     1      26.386   1.295  51.573  1.00  0.00     0.142 A 
HETATM    7  C12 UNL     1      25.840   2.416  50.973  1.00  0.00     0.089 A 
HETATM    8  C13 UNL     1      26.523   3.289  50.082  1.00  0.00     0.103 C 
HETATM    9  N4  UNL     1      27.083   3.997  49.381  1.00  0.00    -0.191 NA
HETATM   10  C14 UNL     1      24.521   2.697  51.275  1.00  0.00     0.067 A 
HETATM   11  C21 UNL     1      23.855  -0.212  53.628  1.00  0.00     0.138 C 
HETATM   12  C22 UNL     1      22.409  -0.469  53.442  1.00  0.00     0.138 C 
HETATM   13  O2  UNL     1      22.073  -1.647  53.631  1.00  0.00    -0.297 OA
HETATM   14  C23 UNL     1      21.173   0.243  53.091  1.00  0.00     0.135 C 
ENDROOT
BRANCH  10  15
HETATM   15  N5  UNL     1      23.878   3.829  50.703  1.00  0.00    -0.354 N 
HETATM   16  H14 UNL     1      23.817   4.746  51.181  1.00  0.00     0.166 HD
BRANCH  15  17
HETATM   17  C15 UNL     1      23.288   3.708  49.417  1.00  0.00     0.034 A 
HETATM   18  C16 UNL     1      22.879   2.494  48.904  1.00  0.00     0.032 A 
HETATM   19  C17 UNL     1      22.302   2.359  47.650  1.00  0.00     0.046 A 
HETATM   20  C18 UNL     1      22.129   3.509  46.875  1.00  0.00     0.138 A 
HETATM   21  F1  UNL     1      21.575   3.456  45.645  1.00  0.00    -0.204 F 
HETATM   22  C19 UNL     1      22.519   4.733  47.342  1.00  0.00     0.074 A 
HETATM   23 CL1  UNL     1      22.330   6.211  46.420  1.00  0.00    -0.081 Cl
HETATM   24  C20 UNL     1      23.086   4.789  48.598  1.00  0.00     0.056 A 
ENDBRANCH  15  17
ENDBRANCH  10  15
BRANCH   1  25
HETATM   25  N2  UNL     1      20.224   2.483  52.754  1.00  0.00    -0.327 N 
HETATM   26  C6  UNL     1      19.517   2.506  51.515  1.00  0.00     0.245 C 
HETATM   27  O1  UNL     1      19.670   1.960  50.393  1.00  0.00    -0.268 OA
HETATM   28  H11 UNL     1      19.799   3.072  53.483  1.00  0.00     0.169 HD
BRANCH  26  29
HETATM   29  C5  UNL     1      18.306   3.301  51.321  1.00  0.00     0.072 C 
HETATM   30  C4  UNL     1      17.181   2.629  51.146  1.00  0.00     0.008 C 
BRANCH  30  31
HETATM   31  C3  UNL     1      15.856   3.261  50.936  1.00  0.00     0.299 C 
BRANCH  31  32
HETATM   32  N1  UNL     1      14.943   3.065  52.029  1.00  0.00     0.083 N 
HETATM   33  C1  UNL     1      15.146   4.019  53.084  1.00  0.00     0.309 C 
HETATM   34  C2  UNL     1      14.981   1.733  52.556  1.00  0.00     0.309 C 
ENDBRANCH  31  32
ENDBRANCH  30  31
ENDBRANCH  26  29
ENDBRANCH   1  25
TORSDOF 6
ENDMDL
MODEL 7
REMARK VINA RESULT:      -8.0      3.239      6.516
REMARK  6 active torsions:
REMARK  status: ('A' for Active; 'I' for Inactive)
REMARK    1  A    between atoms: N1_2  and  C3_4 
REMARK    2  A    between atoms: C3_4  and  C4_5 
REMARK    3  A    between atoms: C5_6  and  C6_7 
REMARK       I    between atoms: C6_7  and  N2_9 
REMARK    4  A    between atoms: N2_9  and  C7_10 
REMARK    5  A    between atoms: C14_19  and  N5_20 
REMARK    6  A    between atoms: N5_20  and  C15_21 
ROOT
HETATM    1  C7  UNL     1      22.982   1.846  52.684  1.00  0.00     0.020 C 
HETATM    2  C8  UNL     1      23.211   2.832  51.833  1.00  0.00     0.041 C 
HETATM    3  C9  UNL     1      22.224   3.406  50.929  1.00  0.00     0.019 A 
HETATM    4  C10 UNL     1      21.050   2.873  50.438  1.00  0.00     0.053 A 
HETATM    5  N3  UNL     1      20.261   3.553  49.609  1.00  0.00    -0.263 NA
HETATM    6  C11 UNL     1      20.576   4.798  49.211  1.00  0.00     0.142 A 
HETATM    7  C12 UNL     1      21.732   5.422  49.646  1.00  0.00     0.089 A 
HETATM    8  C13 UNL     1      22.147   6.733  49.281  1.00  0.00     0.103 C 
HETATM    9  N4  UNL     1      22.486   7.779  48.969  1.00  0.00    -0.191 NA
HETATM   10  C14 UNL     1      22.537   4.701  50.505  1.00  0.00     0.067 A 
HETATM   11  C21 UNL     1      20.448   1.532  50.701  1.00  0.00     0.138 C 
HETATM   12  C22 UNL     1      20.749   1.016  52.055  1.00  0.00     0.138 C 
HETATM   13  O2  UNL     1      19.828   0.361  52.566  1.00  0.00    -0.297 OA
HETATM   14  C23 UNL     1      21.830   1.018  53.049  1.00  0.00     0.135 C 
ENDROOT
BRANCH  10  15
HETATM   15  N5  UNL     1      23.745   5.265  51.003  1.00  0.00    -0.354 N 
HETATM   16  H14 UNL     1      23.797   5.793  51.893  1.00  0.00     0.166 HD
BRANCH  15  17
HETATM   17  C15 UNL     1      24.940   5.101  50.254  1.00  0.00     0.034 A 
HETATM   18  C16 UNL     1      25.569   3.880  50.125  1.00  0.00     0.032 A 
HETATM   19  C17 UNL     1      26.736   3.703  49.397  1.00  0.00     0.046 A 
HETATM   20  C18 UNL     1      27.297   4.818  48.767  1.00  0.00     0.138 A 
HETATM   21  F1  UNL     1      28.432   4.724  48.042  1.00  0.00    -0.204 F 
HETATM   22  C19 UNL     1      26.708   6.048  48.867  1.00  0.00     0.074 A 
HETATM   23 CL1  UNL     1      27.361   7.483  48.102  1.00  0.00    -0.081 Cl
HETATM   24  C20 UNL     1      25.549   6.146  49.608  1.00  0.00     0.056 A 
ENDBRANCH  15  17
ENDBRANCH  10  15
BRANCH   1  25
HETATM   25  N2  UNL     1      24.197   1.585  53.375  1.00  0.00    -0.327 N 
HETATM   26  C6  UNL     1      24.484   0.190  53.469  1.00  0.00     0.245 C 
HETATM   27  O1  UNL     1      23.914  -0.863  53.085  1.00  0.00    -0.268 OA
HETATM   28  H11 UNL     1      24.908   2.183  53.817  1.00  0.00     0.169 HD
BRANCH  26  29
HETATM   29  C5  UNL     1      25.680  -0.319  54.137  1.00  0.00     0.072 C 
HETATM   30  C4  UNL     1      26.679   0.533  54.291  1.00  0.00     0.008 C 
BRANCH  30  31
HETATM   31  C3  UNL     1      27.968   0.200  54.944  1.00  0.00     0.299 C 
BRANCH  31  32
HETATM   32  N1  UNL     1      29.096   0.892  54.382  1.00  0.00     0.083 N 
HETATM   33  C1  UNL     1      28.698   1.991  53.546  1.00  0.00     0.309 C 
HETATM   34  C2  UNL     1      29.982   0.024  53.666  1.00  0.00     0.309 C 
ENDBRANCH  31  32
ENDBRANCH  30  31
ENDBRANCH  26  29
ENDBRANCH   1  25
TORSDOF 6
ENDMDL
MODEL 8
REMARK VINA RESULT:      -7.8      3.512      5.282
REMARK  6 active torsions:
REMARK  status: ('A' for Active; 'I' for Inactive)
REMARK    1  A    between atoms: N1_2  and  C3_4 
REMARK    2  A    between atoms: C3_4  and  C4_5 
REMARK    3  A    between atoms: C5_6  and  C6_7 
REMARK       I    between atoms: C6_7  and  N2_9 
REMARK    4  A    between atoms: N2_9  and  C7_10 
REMARK    5  A    between atoms: C14_19  and  N5_20 
REMARK    6  A    between atoms: N5_20  and  C15_21 
ROOT
HETATM    1  C7  UNL     1      26.188   2.721  51.037  1.00  0.00     0.020 C 
HETATM    2  C8  UNL     1      24.876   2.774  50.876  1.00  0.00     0.041 C 
HETATM    3  C9  UNL     1      23.901   2.072  51.700  1.00  0.00     0.019 A 
HETATM    4  C10 UNL     1      24.047   0.952  52.494  1.00  0.00     0.053 A 
HETATM    5  N3  UNL     1      23.031   0.444  53.186  1.00  0.00    -0.263 NA
HETATM    6  C11 UNL     1      21.809   1.003  53.144  1.00  0.00     0.142 A 
HETATM    7  C12 UNL     1      21.558   2.129  52.379  1.00  0.00     0.089 A 
HETATM    8  C13 UNL     1      20.302   2.789  52.272  1.00  0.00     0.103 C 
HETATM    9  N4  UNL     1      19.287   3.305  52.175  1.00  0.00    -0.191 NA
HETATM   10  C14 UNL     1      22.625   2.642  51.667  1.00  0.00     0.067 A 
HETATM   11  C21 UNL     1      25.268   0.128  52.734  1.00  0.00     0.138 C 
HETATM   12  C22 UNL     1      26.520   0.915  52.680  1.00  0.00     0.138 C 
HETATM   13  O2  UNL     1      27.392   0.541  53.478  1.00  0.00    -0.297 OA
HETATM   14  C23 UNL     1      27.108   2.052  51.958  1.00  0.00     0.135 C 
ENDROOT
BRANCH  10  15
HETATM   15  N5  UNL     1      22.459   3.797  50.855  1.00  0.00    -0.354 N 
HETATM   16  H14 UNL     1      22.444   4.760  51.237  1.00  0.00     0.166 HD
BRANCH  15  17
HETATM   17  C15 UNL     1      22.305   3.635  49.452  1.00  0.00     0.034 A 
HETATM   18  C16 UNL     1      22.039   2.410  48.876  1.00  0.00     0.032 A 
HETATM   19  C17 UNL     1      21.886   2.235  47.509  1.00  0.00     0.046 A 
HETATM   20  C18 UNL     1      22.010   3.354  46.681  1.00  0.00     0.138 A 
HETATM   21  F1  UNL     1      21.874   3.262  45.341  1.00  0.00    -0.204 F 
HETATM   22  C19 UNL     1      22.274   4.588  47.208  1.00  0.00     0.074 A 
HETATM   23 CL1  UNL     1      22.440   6.030  46.225  1.00  0.00    -0.081 Cl
HETATM   24  C20 UNL     1      22.412   4.684  48.577  1.00  0.00     0.056 A 
ENDBRANCH  15  17
ENDBRANCH  10  15
BRANCH   1  25
HETATM   25  N2  UNL     1      26.775   3.540  50.034  1.00  0.00    -0.327 N 
HETATM   26  C6  UNL     1      26.128   4.806  49.913  1.00  0.00     0.245 C 
HETATM   27  O1  UNL     1      25.160   5.368  50.486  1.00  0.00    -0.268 OA
HETATM   28  H11 UNL     1      27.562   3.415  49.382  1.00  0.00     0.169 HD
BRANCH  26  29
HETATM   29  C5  UNL     1      26.558   5.815  48.947  1.00  0.00     0.072 C 
HETATM   30  C4  UNL     1      26.367   7.078  49.288  1.00  0.00     0.008 C 
BRANCH  30  31
HETATM   31  C3  UNL     1      26.738   8.237  48.440  1.00  0.00     0.299 C 
BRANCH  31  32
HETATM   32  N1  UNL     1      28.032   8.111  47.826  1.00  0.00     0.083 N 
HETATM   33  C1  UNL     1      29.045   8.837  48.540  1.00  0.00     0.309 C 
HETATM   34  C2  UNL     1      28.033   8.494  46.445  1.00  0.00     0.309 C 
ENDBRANCH  31  32
ENDBRANCH  30  31
ENDBRANCH  26  29
ENDBRANCH   1  25
TORSDOF 6
ENDMDL
MODEL 9
REMARK VINA RESULT:      -7.7      3.667      6.969
REMARK  6 active torsions:
REMARK  status: ('A' for Active; 'I' for Inactive)
REMARK    1  A    between atoms: N1_2  and  C3_4 
REMARK    2  A    between atoms: C3_4  and  C4_5 
REMARK    3  A    between atoms: C5_6  and  C6_7 
REMARK       I    between atoms: C6_7  and  N2_9 
REMARK    4  A    between atoms: N2_9  and  C7_10 
REMARK    5  A    between atoms: C14_19  and  N5_20 
REMARK    6  A    between atoms: N5_20  and  C15_21 
ROOT
HETATM    1  C7  UNL     1      25.946   3.543  49.646  1.00  0.00     0.020 C 
HETATM    2  C8  UNL     1      24.646   3.433  49.431  1.00  0.00     0.041 C 
HETATM    3  C9  UNL     1      23.841   4.373  48.662  1.00  0.00     0.019 A 
HETATM    4  C10 UNL     1      24.071   5.698  48.353  1.00  0.00     0.053 A 
HETATM    5  N3  UNL     1      23.212   6.411  47.628  1.00  0.00    -0.263 NA
HETATM    6  C11 UNL     1      22.076   5.866  47.160  1.00  0.00     0.142 A 
HETATM    7  C12 UNL     1      21.752   4.545  47.413  1.00  0.00     0.089 A 
HETATM    8  C13 UNL     1      20.576   3.883  46.962  1.00  0.00     0.103 C 
HETATM    9  N4  UNL     1      19.620   3.362  46.612  1.00  0.00    -0.191 NA
HETATM   10  C14 UNL     1      22.655   3.822  48.168  1.00  0.00     0.067 A 
HETATM   11  C21 UNL     1      25.231   6.560  48.729  1.00  0.00     0.138 C 
HETATM   12  C22 UNL     1      26.500   5.807  48.845  1.00  0.00     0.138 C 
HETATM   13  O2  UNL     1      27.501   6.437  48.474  1.00  0.00    -0.297 OA
HETATM   14  C23 UNL     1      26.997   4.493  49.276  1.00  0.00     0.135 C 
ENDROOT
BRANCH  10  15
HETATM   15  N5  UNL     1      22.404   2.456  48.476  1.00  0.00    -0.354 N 
HETATM   16  H14 UNL     1      22.625   1.680  47.826  1.00  0.00     0.166 HD
BRANCH  15  17
HETATM   17  C15 UNL     1      21.826   2.130  49.731  1.00  0.00     0.034 A 
HETATM   18  C16 UNL     1      22.360   1.167  50.562  1.00  0.00     0.032 A 
HETATM   19  C17 UNL     1      21.808   0.836  51.791  1.00  0.00     0.046 A 
HETATM   20  C18 UNL     1      20.656   1.513  52.200  1.00  0.00     0.138 A 
HETATM   21  F1  UNL     1      20.062   1.246  53.383  1.00  0.00    -0.204 F 
HETATM   22  C19 UNL     1      20.091   2.476  51.411  1.00  0.00     0.074 A 
HETATM   23 CL1  UNL     1      18.649   3.360  51.867  1.00  0.00    -0.081 Cl
HETATM   24  C20 UNL     1      20.697   2.750  50.202  1.00  0.00     0.056 A 
ENDBRANCH  15  17
ENDBRANCH  10  15
BRANCH   1  25
HETATM   25  N2  UNL     1      26.345   2.430  50.437  1.00  0.00    -0.327 N 
HETATM   26  C6  UNL     1      25.668   2.380  51.692  1.00  0.00     0.245 C 
HETATM   27  O1  UNL     1      24.802   3.090  52.264  1.00  0.00    -0.268 OA
HETATM   28  H11 UNL     1      27.012   1.659  50.297  1.00  0.00     0.169 HD
BRANCH  26  29
HETATM   29  C5  UNL     1      25.915   1.325  52.673  1.00  0.00     0.072 C 
HETATM   30  C4  UNL     1      27.100   0.740  52.624  1.00  0.00     0.008 C 
BRANCH  30  31
HETATM   31  C3  UNL     1      27.531  -0.347  53.536  1.00  0.00     0.299 C 
BRANCH  31  32
HETATM   32  N1  UNL     1      28.805  -0.107  54.159  1.00  0.00     0.083 N 
HETATM   33  C1  UNL     1      29.142   1.290  54.185  1.00  0.00     0.309 C 
HETATM   34  C2  UNL     1      29.868  -0.859  53.562  1.00  0.00     0.309 C 
ENDBRANCH  31  32
ENDBRANCH  30  31
ENDBRANCH  26  29
ENDBRANCH   1  25
TORSDOF 6
ENDMDL
