MODEL 1
REMARK VINA RESULT:      -8.6      0.000      0.000
REMARK  5 active torsions:
REMARK  status: ('A' for Active; 'I' for Inactive)
REMARK    1  A    between atoms: C2_2  and  C3_3 
REMARK    2  A    between atoms: C7_9  and  C8_10 
REMARK    3  A    between atoms: C7_9  and  N3_12 
REMARK    4  A    between atoms: C8_10  and  O1_11 
REMARK    5  A    between atoms: N3_12  and  C9_13 
ROOT
HETATM    1  C3  UNL     1      22.384   0.376  53.202  1.00  0.00    -0.056 C 
HETATM    2  C4  UNL     1      23.624   0.786  53.375  1.00  0.00     0.024 C 
HETATM    3  C5  UNL     1      24.876   1.356  52.858  1.00  0.00     0.118 C 
HETATM    4  N1  UNL     1      25.124   1.704  51.681  1.00  0.00    -0.255 NA
HETATM    5  C6  UNL     1      26.281   2.254  51.105  1.00  0.00     0.229 C 
HETATM    6  N2  UNL     1      26.071   3.330  50.484  1.00  0.00    -0.246 NA
HETATM    7  C7  UNL     1      24.874   4.065  50.270  1.00  0.00     0.176 C 
HETATM    8  C15 UNL     1      24.221   4.609  51.495  1.00  0.00     0.205 C 
HETATM    9  C16 UNL     1      22.987   3.956  51.965  1.00  0.00     0.311 C 
HETATM   10  N4  UNL     1      21.923   4.853  51.708  1.00  0.00     0.114 N 
HETATM   11  C17 UNL     1      20.829   4.372  50.945  1.00  0.00     0.277 C 
HETATM   12  C18 UNL     1      20.650   2.887  51.022  1.00  0.00     0.056 C 
HETATM   13  C19 UNL     1      20.355   2.336  52.380  1.00  0.00     0.169 C 
HETATM   14  O2  UNL     1      20.241   0.976  52.324  1.00  0.00    -0.387 OA
HETATM   15  C20 UNL     1      21.374   0.275  52.077  1.00  0.00     0.202 C 
HETATM   16  C21 UNL     1      22.532   6.043  51.213  1.00  0.00     0.441 C 
HETATM   17  O3  UNL     1      23.887   5.944  51.358  1.00  0.00    -0.351 OA
ENDROOT
BRANCH   7  18
HETATM   18  C8  UNL     1      23.938   3.181  49.432  1.00  0.00     0.222 C 
BRANCH  18  19
HETATM   19  O1  UNL     1      23.358   4.046  48.487  1.00  0.00    -0.396 OA
HETATM   20  H11 UNL     1      23.239   4.909  48.957  1.00  0.00     0.209 HD
ENDBRANCH  18  19
ENDBRANCH   7  18
BRANCH   7  21
HETATM   21  N3  UNL     1      25.103   5.222  49.384  1.00  0.00    -0.358 N 
HETATM   22  H12 UNL     1      24.298   5.782  48.966  1.00  0.00     0.162 HD
BRANCH  21  23
HETATM   23  C9  UNL     1      26.377   5.695  49.009  1.00  0.00     0.031 A 
HETATM   24  C10 UNL     1      27.440   4.907  48.628  1.00  0.00     0.032 A 
HETATM   25  C11 UNL     1      28.692   5.349  48.268  1.00  0.00     0.046 A 
HETATM   26  C12 UNL     1      28.940   6.691  48.278  1.00  0.00     0.138 A 
HETATM   27  F1  UNL     1      30.158   7.172  47.932  1.00  0.00    -0.204 F 
HETATM   28  C13 UNL     1      27.922   7.540  48.651  1.00  0.00     0.074 A 
HETATM   29 CL1  UNL     1      28.180   9.270  48.683  1.00  0.00    -0.081 Cl
HETATM   30  C14 UNL     1      26.688   7.038  49.001  1.00  0.00     0.056 A 
ENDBRANCH  21  23
ENDBRANCH   7  21
BRANCH   1  31
HETATM   31  C2  UNL     1      21.562  -0.176  54.337  1.00  0.00     0.032 C 
HETATM   32  C1  UNL     1      21.790  -1.665  54.545  1.00  0.00     0.010 C 
ENDBRANCH   1  31
TORSDOF 5
ENDMDL
MODEL 2
REMARK VINA RESULT:      -8.3      1.145      1.476
REMARK  5 active torsions:
REMARK  status: ('A' for Active; 'I' for Inactive)
REMARK    1  A    between atoms: C2_2  and  C3_3 
REMARK    2  A    between atoms: C7_9  and  C8_10 
REMARK    3  A    between atoms: C7_9  and  N3_12 
REMARK    4  A    between atoms: C8_10  and  O1_11 
REMARK    5  A    between atoms: N3_12  and  C9_13 
ROOT
HETATM    1  C3  UNL     1      22.479   0.424  52.517  1.00  0.00    -0.056 C 
HETATM    2  C4  UNL     1      23.635   0.990  52.795  1.00  0.00     0.024 C 
HETATM    3  C5  UNL     1      24.804   1.790  52.404  1.00  0.00     0.118 C 
HETATM    4  N1  UNL     1      25.038   2.297  51.283  1.00  0.00    -0.255 NA
HETATM    5  C6  UNL     1      26.118   3.070  50.827  1.00  0.00     0.229 C 
HETATM    6  N2  UNL     1      25.771   4.166  50.310  1.00  0.00    -0.246 NA
HETATM    7  C7  UNL     1      24.485   4.737  50.113  1.00  0.00     0.176 C 
HETATM    8  C15 UNL     1      23.715   5.042  51.352  1.00  0.00     0.205 C 
HETATM    9  C16 UNL     1      22.578   4.168  51.690  1.00  0.00     0.311 C 
HETATM   10  N4  UNL     1      21.401   4.923  51.473  1.00  0.00     0.114 N 
HETATM   11  C17 UNL     1      20.419   4.374  50.609  1.00  0.00     0.277 C 
HETATM   12  C18 UNL     1      20.463   2.879  50.523  1.00  0.00     0.056 C 
HETATM   13  C19 UNL     1      20.207   2.146  51.800  1.00  0.00     0.169 C 
HETATM   14  O2  UNL     1      20.302   0.798  51.598  1.00  0.00    -0.387 OA
HETATM   15  C20 UNL     1      21.535   0.302  51.339  1.00  0.00     0.202 C 
HETATM   16  C21 UNL     1      21.840   6.236  51.135  1.00  0.00     0.441 C 
HETATM   17  O3  UNL     1      23.189   6.321  51.338  1.00  0.00    -0.351 OA
ENDROOT
BRANCH   7  18
HETATM   18  C8  UNL     1      23.723   3.824  49.141  1.00  0.00     0.222 C 
BRANCH  18  19
HETATM   19  O1  UNL     1      23.123   4.690  48.210  1.00  0.00    -0.396 OA
HETATM   20  H11 UNL     1      23.856   4.989  47.617  1.00  0.00     0.209 HD
ENDBRANCH  18  19
ENDBRANCH   7  18
BRANCH   7  21
HETATM   21  N3  UNL     1      24.568   6.005  49.365  1.00  0.00    -0.358 N 
HETATM   22  H12 UNL     1      23.746   6.384  48.801  1.00  0.00     0.162 HD
BRANCH  21  23
HETATM   23  C9  UNL     1      25.712   6.827  49.318  1.00  0.00     0.031 A 
HETATM   24  C10 UNL     1      25.952   7.907  50.138  1.00  0.00     0.032 A 
HETATM   25  C11 UNL     1      27.058   8.725  50.102  1.00  0.00     0.046 A 
HETATM   26  C12 UNL     1      28.029   8.473  49.178  1.00  0.00     0.138 A 
HETATM   27  F1  UNL     1      29.134   9.252  49.105  1.00  0.00    -0.204 F 
HETATM   28  C13 UNL     1      27.855   7.407  48.323  1.00  0.00     0.074 A 
HETATM   29 CL1  UNL     1      29.066   7.034  47.116  1.00  0.00    -0.081 Cl
HETATM   30  C14 UNL     1      26.727   6.622  48.406  1.00  0.00     0.056 A 
ENDBRANCH  21  23
ENDBRANCH   7  21
BRANCH   1  31
HETATM   31  C2  UNL     1      21.710  -0.363  53.546  1.00  0.00     0.032 C 
HETATM   32  C1  UNL     1      22.615  -0.964  54.610  1.00  0.00     0.010 C 
ENDBRANCH   1  31
TORSDOF 5
ENDMDL
MODEL 3
REMARK VINA RESULT:      -8.1      4.012      7.792
REMARK  5 active torsions:
REMARK  status: ('A' for Active; 'I' for Inactive)
REMARK    1  A    between atoms: C2_2  and  C3_3 
REMARK    2  A    between atoms: C7_9  and  C8_10 
REMARK    3  A    between atoms: C7_9  and  N3_12 
REMARK    4  A    between atoms: C8_10  and  O1_11 
REMARK    5  A    between atoms: N3_12  and  C9_13 
ROOT
HETATM    1  C3  UNL     1      26.729   6.736  48.878  1.00  0.00    -0.056 C 
HETATM    2  C4  UNL     1      26.688   5.424  48.777  1.00  0.00     0.024 C 
HETATM    3  C5  UNL     1      26.380   4.098  49.333  1.00  0.00     0.118 C 
HETATM    4  N1  UNL     1      25.911   3.839  50.465  1.00  0.00    -0.255 NA
HETATM    5  C6  UNL     1      25.587   2.614  51.072  1.00  0.00     0.229 C 
HETATM    6  N2  UNL     1      24.403   2.562  51.500  1.00  0.00    -0.246 NA
HETATM    7  C7  UNL     1      23.359   3.525  51.474  1.00  0.00     0.176 C 
HETATM    8  C15 UNL     1      22.884   3.929  50.120  1.00  0.00     0.205 C 
HETATM    9  C16 UNL     1      23.267   5.262  49.624  1.00  0.00     0.311 C 
HETATM   10  N4  UNL     1      22.097   6.056  49.631  1.00  0.00     0.114 N 
HETATM   11  C17 UNL     1      22.141   7.285  50.338  1.00  0.00     0.277 C 
HETATM   12  C18 UNL     1      23.521   7.856  50.465  1.00  0.00     0.056 C 
HETATM   13  C19 UNL     1      24.201   8.204  49.180  1.00  0.00     0.169 C 
HETATM   14  O2  UNL     1      25.456   8.686  49.426  1.00  0.00    -0.387 OA
HETATM   15  C20 UNL     1      26.371   7.804  49.892  1.00  0.00     0.202 C 
HETATM   16  C21 UNL     1      21.037   5.179  50.005  1.00  0.00     0.441 C 
HETATM   17  O3  UNL     1      21.505   3.896  50.021  1.00  0.00    -0.351 OA
ENDROOT
BRANCH   7  18
HETATM   18  C8  UNL     1      23.814   4.716  52.331  1.00  0.00     0.222 C 
BRANCH  18  19
HETATM   19  O1  UNL     1      22.677   5.104  53.062  1.00  0.00    -0.396 OA
HETATM   20  H11 UNL     1      22.073   5.529  52.404  1.00  0.00     0.209 HD
ENDBRANCH  18  19
ENDBRANCH   7  18
BRANCH   7  21
HETATM   21  N3  UNL     1      22.166   3.047  52.197  1.00  0.00    -0.358 N 
HETATM   22  H12 UNL     1      21.327   3.677  52.385  1.00  0.00     0.162 HD
BRANCH  21  23
HETATM   23  C9  UNL     1      22.015   1.739  52.702  1.00  0.00     0.031 A 
HETATM   24  C10 UNL     1      23.032   0.952  53.194  1.00  0.00     0.032 A 
HETATM   25  C11 UNL     1      22.905  -0.329  53.681  1.00  0.00     0.046 A 
HETATM   26  C12 UNL     1      21.669  -0.906  53.692  1.00  0.00     0.138 A 
HETATM   27  F1  UNL     1      21.497  -2.164  54.162  1.00  0.00    -0.204 F 
HETATM   28  C13 UNL     1      20.604  -0.176  53.213  1.00  0.00     0.074 A 
HETATM   29 CL1  UNL     1      18.994  -0.862  53.201  1.00  0.00    -0.081 Cl
HETATM   30  C14 UNL     1      20.792   1.103  52.737  1.00  0.00     0.056 A 
ENDBRANCH  21  23
ENDBRANCH   7  21
BRANCH   1  31
HETATM   31  C2  UNL     1      27.237   7.605  47.758  1.00  0.00     0.032 C 
HETATM   32  C1  UNL     1      28.703   7.348  47.445  1.00  0.00     0.010 C 
ENDBRANCH   1  31
TORSDOF 5
ENDMDL
MODEL 4
REMARK VINA RESULT:      -8.0      5.584      8.624
REMARK  5 active torsions:
REMARK  status: ('A' for Active; 'I' for Inactive)
REMARK    1  A    between atoms: C2_2  and  C3_3 
REMARK    2  A    between atoms: C7_9  and  C8_10 
REMARK    3  A    between atoms: C7_9  and  N3_12 
REMARK    4  A    between atoms: C8_10  and  O1_11 
REMARK    5  A    between atoms: N3_12  and  C9_13 
ROOT
HETATM    1  C3  UNL     1      25.089   0.487  53.365  1.00  0.00    -0.056 C 
HETATM    2  C4  UNL     1      24.172  -0.458  53.369  1.00  0.00     0.024 C 
HETATM    3  C5  UNL     1      22.771  -0.893  53.460  1.00  0.00     0.118 C 
HETATM    4  N1  UNL     1      21.760  -0.171  53.619  1.00  0.00    -0.255 NA
HETATM    5  C6  UNL     1      20.397  -0.499  53.714  1.00  0.00     0.229 C 
HETATM    6  N2  UNL     1      19.671   0.124  52.894  1.00  0.00    -0.246 NA
HETATM    7  C7  UNL     1      19.999   1.092  51.907  1.00  0.00     0.176 C 
HETATM    8  C15 UNL     1      20.888   0.620  50.808  1.00  0.00     0.205 C 
HETATM    9  C16 UNL     1      22.289   1.076  50.811  1.00  0.00     0.311 C 
HETATM   10  N4  UNL     1      22.427   1.991  49.740  1.00  0.00     0.114 N 
HETATM   11  C17 UNL     1      22.938   3.279  50.039  1.00  0.00     0.277 C 
HETATM   12  C18 UNL     1      23.800   3.314  51.265  1.00  0.00     0.056 C 
HETATM   13  C19 UNL     1      25.042   2.484  51.210  1.00  0.00     0.169 C 
HETATM   14  O2  UNL     1      25.724   2.577  52.390  1.00  0.00    -0.387 OA
HETATM   15  C20 UNL     1      25.157   1.997  53.474  1.00  0.00     0.202 C 
HETATM   16  C21 UNL     1      21.176   1.978  49.058  1.00  0.00     0.441 C 
HETATM   17  O3  UNL     1      20.404   0.968  49.560  1.00  0.00    -0.351 OA
ENDROOT
BRANCH   7  18
HETATM   18  C8  UNL     1      20.550   2.324  52.640  1.00  0.00     0.222 C 
BRANCH  18  19
HETATM   19  O1  UNL     1      19.660   3.369  52.332  1.00  0.00    -0.396 OA
HETATM   20  H11 UNL     1      19.644   3.947  53.136  1.00  0.00     0.209 HD
ENDBRANCH  18  19
ENDBRANCH   7  18
BRANCH   7  21
HETATM   21  N3  UNL     1      18.789   1.623  51.251  1.00  0.00    -0.358 N 
HETATM   22  H12 UNL     1      18.800   2.535  50.699  1.00  0.00     0.162 HD
BRANCH  21  23
HETATM   23  C9  UNL     1      17.528   0.996  51.284  1.00  0.00     0.031 A 
HETATM   24  C10 UNL     1      17.185  -0.142  50.588  1.00  0.00     0.032 A 
HETATM   25  C11 UNL     1      15.956  -0.763  50.600  1.00  0.00     0.046 A 
HETATM   26  C12 UNL     1      14.959  -0.228  51.363  1.00  0.00     0.138 A 
HETATM   27  F1  UNL     1      13.735  -0.805  51.405  1.00  0.00    -0.204 F 
HETATM   28  C13 UNL     1      15.232   0.912  52.085  1.00  0.00     0.074 A 
HETATM   29 CL1  UNL     1      13.994   1.645  53.082  1.00  0.00    -0.081 Cl
HETATM   30  C14 UNL     1      16.481   1.490  52.034  1.00  0.00     0.056 A 
ENDBRANCH  21  23
ENDBRANCH   7  21
BRANCH   1  31
HETATM   31  C2  UNL     1      26.553   0.175  53.205  1.00  0.00     0.032 C 
HETATM   32  C1  UNL     1      26.792  -1.048  52.333  1.00  0.00     0.010 C 
ENDBRANCH   1  31
TORSDOF 5
ENDMDL
MODEL 5
REMARK VINA RESULT:      -7.7      4.394      7.644
REMARK  5 active torsions:
REMARK  status: ('A' for Active; 'I' for Inactive)
REMARK    1  A    between atoms: C2_2  and  C3_3 
REMARK    2  A    between atoms: C7_9  and  C8_10 
REMARK    3  A    between atoms: C7_9  and  N3_12 
REMARK    4  A    between atoms: C8_10  and  O1_11 
REMARK    5  A    between atoms: N3_12  and  C9_13 
ROOT
HETATM    1  C3  UNL     1      22.129   8.061  49.849  1.00  0.00    -0.056 C 
HETATM    2  C4  UNL     1      23.141   7.306  50.224  1.00  0.00     0.024 C 
HETATM    3  C5  UNL     1      23.700   6.205  51.021  1.00  0.00     0.118 C 
HETATM    4  N1  UNL     1      23.093   5.467  51.830  1.00  0.00    -0.255 NA
HETATM    5  C6  UNL     1      23.545   4.400  52.624  1.00  0.00     0.229 C 
HETATM    6  N2  UNL     1      22.886   3.338  52.462  1.00  0.00    -0.246 NA
HETATM    7  C7  UNL     1      21.777   3.048  51.624  1.00  0.00     0.176 C 
HETATM    8  C15 UNL     1      22.028   3.151  50.158  1.00  0.00     0.205 C 
HETATM    9  C16 UNL     1      21.459   4.306  49.441  1.00  0.00     0.311 C 
HETATM   10  N4  UNL     1      20.408   3.812  48.634  1.00  0.00     0.114 N 
HETATM   11  C17 UNL     1      19.129   4.407  48.785  1.00  0.00     0.277 C 
HETATM   12  C18 UNL     1      19.177   5.812  49.301  1.00  0.00     0.056 C 
HETATM   13  C19 UNL     1      19.885   6.800  48.430  1.00  0.00     0.169 C 
HETATM   14  O2  UNL     1      19.885   8.033  49.018  1.00  0.00    -0.387 OA
HETATM   15  C20 UNL     1      20.645   8.182  50.129  1.00  0.00     0.202 C 
HETATM   16  C21 UNL     1      20.440   2.395  48.783  1.00  0.00     0.441 C 
HETATM   17  O3  UNL     1      21.567   2.044  49.470  1.00  0.00    -0.351 OA
ENDROOT
BRANCH   7  18
HETATM   18  C8  UNL     1      20.605   3.922  52.096  1.00  0.00     0.222 C 
BRANCH  18  19
HETATM   19  O1  UNL     1      19.505   3.051  52.189  1.00  0.00    -0.396 OA
HETATM   20  H11 UNL     1      19.893   2.143  52.262  1.00  0.00     0.209 HD
ENDBRANCH  18  19
ENDBRANCH   7  18
BRANCH   7  21
HETATM   21  N3  UNL     1      21.271   1.682  51.853  1.00  0.00    -0.358 N 
HETATM   22  H12 UNL     1      20.472   1.271  51.280  1.00  0.00     0.162 HD
BRANCH  21  23
HETATM   23  C9  UNL     1      21.779   0.800  52.829  1.00  0.00     0.031 A 
HETATM   24  C10 UNL     1      21.063   0.279  53.883  1.00  0.00     0.032 A 
HETATM   25  C11 UNL     1      21.545  -0.575  54.850  1.00  0.00     0.046 A 
HETATM   26  C12 UNL     1      22.851  -0.962  54.789  1.00  0.00     0.138 A 
HETATM   27  F1  UNL     1      23.368  -1.801  55.718  1.00  0.00    -0.204 F 
HETATM   28  C13 UNL     1      23.628  -0.478  53.760  1.00  0.00     0.074 A 
HETATM   29 CL1  UNL     1      25.311  -0.939  53.630  1.00  0.00    -0.081 Cl
HETATM   30  C14 UNL     1      23.091   0.374  52.821  1.00  0.00     0.056 A 
ENDBRANCH  21  23
ENDBRANCH   7  21
BRANCH   1  31
HETATM   31  C2  UNL     1      22.293   9.172  48.846  1.00  0.00     0.032 C 
HETATM   32  C1  UNL     1      23.132   8.752  47.649  1.00  0.00     0.010 C 
ENDBRANCH   1  31
TORSDOF 5
ENDMDL
MODEL 6
REMARK VINA RESULT:      -7.5      6.754      9.849
REMARK  5 active torsions:
REMARK  status: ('A' for Active; 'I' for Inactive)
REMARK    1  A    between atoms: C2_2  and  C3_3 
REMARK    2  A    between atoms: C7_9  and  C8_10 
REMARK    3  A    between atoms: C7_9  and  N3_12 
REMARK    4  A    between atoms: C8_10  and  O1_11 
REMARK    5  A    between atoms: N3_12  and  C9_13 
ROOT
HETATM    1  C3  UNL     1      27.910  11.992  46.721  1.00  0.00    -0.056 C 
HETATM    2  C4  UNL     1      28.789  11.363  45.969  1.00  0.00     0.024 C 
HETATM    3  C5  UNL     1      29.981  10.515  45.816  1.00  0.00     0.118 C 
HETATM    4  N1  UNL     1      30.687  10.025  46.726  1.00  0.00    -0.255 NA
HETATM    5  C6  UNL     1      31.830   9.210  46.670  1.00  0.00     0.229 C 
HETATM    6  N2  UNL     1      31.723   8.146  47.337  1.00  0.00    -0.246 NA
HETATM    7  C7  UNL     1      30.654   7.645  48.127  1.00  0.00     0.176 C 
HETATM    8  C15 UNL     1      29.390   7.348  47.394  1.00  0.00     0.205 C 
HETATM    9  C16 UNL     1      28.255   8.269  47.577  1.00  0.00     0.311 C 
HETATM   10  N4  UNL     1      27.285   7.580  48.343  1.00  0.00     0.114 N 
HETATM   11  C17 UNL     1      26.830   8.198  49.535  1.00  0.00     0.277 C 
HETATM   12  C18 UNL     1      26.958   9.691  49.525  1.00  0.00     0.056 C 
HETATM   13  C19 UNL     1      26.168  10.404  48.476  1.00  0.00     0.169 C 
HETATM   14  O2  UNL     1      26.389  11.751  48.552  1.00  0.00    -0.387 OA
HETATM   15  C20 UNL     1      27.619  12.191  48.194  1.00  0.00     0.202 C 
HETATM   16  C21 UNL     1      27.787   6.255  48.500  1.00  0.00     0.441 C 
HETATM   17  O3  UNL     1      28.887   6.098  47.705  1.00  0.00    -0.351 OA
ENDROOT
BRANCH   7  18
HETATM   18  C8  UNL     1      30.455   8.618  49.298  1.00  0.00     0.222 C 
BRANCH  18  19
HETATM   19  O1  UNL     1      31.475   8.309  50.216  1.00  0.00    -0.396 OA
HETATM   20  H11 UNL     1      31.596   7.329  50.156  1.00  0.00     0.209 HD
ENDBRANCH  18  19
ENDBRANCH   7  18
BRANCH   7  21
HETATM   21  N3  UNL     1      31.030   6.393  48.810  1.00  0.00    -0.358 N 
HETATM   22  H12 UNL     1      30.478   6.014  49.640  1.00  0.00     0.162 HD
BRANCH  21  23
HETATM   23  C9  UNL     1      32.128   5.588  48.446  1.00  0.00     0.031 A 
HETATM   24  C10 UNL     1      33.452   5.909  48.645  1.00  0.00     0.032 A 
HETATM   25  C11 UNL     1      34.538   5.142  48.287  1.00  0.00     0.046 A 
HETATM   26  C12 UNL     1      34.318   3.942  47.675  1.00  0.00     0.138 A 
HETATM   27  F1  UNL     1      35.355   3.154  47.306  1.00  0.00    -0.204 F 
HETATM   28  C13 UNL     1      33.016   3.557  47.443  1.00  0.00     0.074 A 
HETATM   29 CL1  UNL     1      32.672   2.030  46.661  1.00  0.00    -0.081 Cl
HETATM   30  C14 UNL     1      31.970   4.368  47.823  1.00  0.00     0.056 A 
ENDBRANCH  21  23
ENDBRANCH   7  21
BRANCH   1  31
HETATM   31  C2  UNL     1      26.781  12.791  46.125  1.00  0.00     0.032 C 
HETATM   32  C1  UNL     1      27.064  14.286  46.132  1.00  0.00     0.010 C 
ENDBRANCH   1  31
TORSDOF 5
ENDMDL
MODEL 7
REMARK VINA RESULT:      -7.4      7.060     10.184
REMARK  5 active torsions:
REMARK  status: ('A' for Active; 'I' for Inactive)
REMARK    1  A    between atoms: C2_2  and  C3_3 
REMARK    2  A    between atoms: C7_9  and  C8_10 
REMARK    3  A    between atoms: C7_9  and  N3_12 
REMARK    4  A    between atoms: C8_10  and  O1_11 
REMARK    5  A    between atoms: N3_12  and  C9_13 
ROOT
HETATM    1  C3  UNL     1      33.866   4.418  47.692  1.00  0.00    -0.056 C 
HETATM    2  C4  UNL     1      32.652   4.162  47.253  1.00  0.00     0.024 C 
HETATM    3  C5  UNL     1      31.196   4.355  47.307  1.00  0.00     0.118 C 
HETATM    4  N1  UNL     1      30.555   5.090  48.093  1.00  0.00    -0.255 NA
HETATM    5  C6  UNL     1      29.177   5.333  48.212  1.00  0.00     0.229 C 
HETATM    6  N2  UNL     1      28.875   6.556  48.163  1.00  0.00    -0.246 NA
HETATM    7  C7  UNL     1      29.689   7.711  48.013  1.00  0.00     0.176 C 
HETATM    8  C15 UNL     1      30.438   7.813  46.729  1.00  0.00     0.205 C 
HETATM    9  C16 UNL     1      31.891   7.570  46.757  1.00  0.00     0.311 C 
HETATM   10  N4  UNL     1      32.522   8.819  46.549  1.00  0.00     0.114 N 
HETATM   11  C17 UNL     1      33.472   9.244  47.512  1.00  0.00     0.277 C 
HETATM   12  C18 UNL     1      34.112   8.117  48.262  1.00  0.00     0.056 C 
HETATM   13  C19 UNL     1      34.906   7.155  47.437  1.00  0.00     0.169 C 
HETATM   14  O2  UNL     1      35.414   6.163  48.227  1.00  0.00    -0.387 OA
HETATM   15  C20 UNL     1      34.529   5.280  48.747  1.00  0.00     0.202 C 
HETATM   16  C21 UNL     1      31.469   9.744  46.285  1.00  0.00     0.441 C 
HETATM   17  O3  UNL     1      30.298   9.056  46.140  1.00  0.00    -0.351 OA
ENDROOT
BRANCH   7  18
HETATM   18  C8  UNL     1      30.598   7.794  49.248  1.00  0.00     0.222 C 
BRANCH  18  19
HETATM   19  O1  UNL     1      30.536   9.135  49.666  1.00  0.00    -0.396 OA
HETATM   20  H11 UNL     1      30.209   9.106  50.600  1.00  0.00     0.209 HD
ENDBRANCH  18  19
ENDBRANCH   7  18
BRANCH   7  21
HETATM   21  N3  UNL     1      28.892   8.948  48.117  1.00  0.00    -0.358 N 
HETATM   22  H12 UNL     1      29.325   9.913  47.978  1.00  0.00     0.162 HD
BRANCH  21  23
HETATM   23  C9  UNL     1      27.512   8.982  48.402  1.00  0.00     0.031 A 
HETATM   24  C10 UNL     1      26.959   9.018  49.663  1.00  0.00     0.032 A 
HETATM   25  C11 UNL     1      25.615   9.042  49.960  1.00  0.00     0.046 A 
HETATM   26  C12 UNL     1      24.717   9.030  48.934  1.00  0.00     0.138 A 
HETATM   27  F1  UNL     1      23.386   9.053  49.179  1.00  0.00    -0.204 F 
HETATM   28  C13 UNL     1      25.200   8.993  47.644  1.00  0.00     0.074 A 
HETATM   29 CL1  UNL     1      24.097   8.976  46.286  1.00  0.00    -0.081 Cl
HETATM   30  C14 UNL     1      26.556   8.971  47.408  1.00  0.00     0.056 A 
ENDBRANCH  21  23
ENDBRANCH   7  21
BRANCH   1  31
HETATM   31  C2  UNL     1      35.085   3.772  47.086  1.00  0.00     0.032 C 
HETATM   32  C1  UNL     1      35.042   3.771  45.565  1.00  0.00     0.010 C 
ENDBRANCH   1  31
TORSDOF 5
ENDMDL
MODEL 8
REMARK VINA RESULT:      -7.3      4.499      8.396
REMARK  5 active torsions:
REMARK  status: ('A' for Active; 'I' for Inactive)
REMARK    1  A    between atoms: C2_2  and  C3_3 
REMARK    2  A    between atoms: C7_9  and  C8_10 
REMARK    3  A    between atoms: C7_9  and  N3_12 
REMARK    4  A    between atoms: C8_10  and  O1_11 
REMARK    5  A    between atoms: N3_12  and  C9_13 
ROOT
HETATM    1  C3  UNL     1      23.994   7.175  49.547  1.00  0.00    -0.056 C 
HETATM    2  C4  UNL     1      22.968   6.966  50.346  1.00  0.00     0.024 C 
HETATM    3  C5  UNL     1      21.846   6.138  50.810  1.00  0.00     0.118 C 
HETATM    4  N1  UNL     1      21.489   5.022  50.366  1.00  0.00    -0.255 NA
HETATM    5  C6  UNL     1      20.441   4.169  50.748  1.00  0.00     0.229 C 
HETATM    6  N2  UNL     1      20.817   2.997  51.017  1.00  0.00    -0.246 NA
HETATM    7  C7  UNL     1      22.109   2.405  50.994  1.00  0.00     0.176 C 
HETATM    8  C15 UNL     1      23.100   2.976  51.950  1.00  0.00     0.205 C 
HETATM    9  C16 UNL     1      24.174   3.824  51.404  1.00  0.00     0.311 C 
HETATM   10  N4  UNL     1      25.375   3.084  51.508  1.00  0.00     0.114 N 
HETATM   11  C17 UNL     1      26.136   2.899  50.325  1.00  0.00     0.277 C 
HETATM   12  C18 UNL     1      25.914   3.964  49.295  1.00  0.00     0.056 C 
HETATM   13  C19 UNL     1      26.293   5.351  49.701  1.00  0.00     0.169 C 
HETATM   14  O2  UNL     1      26.019   6.231  48.692  1.00  0.00    -0.387 OA
HETATM   15  C20 UNL     1      24.713   6.463  48.420  1.00  0.00     0.202 C 
HETATM   16  C21 UNL     1      25.034   1.888  52.203  1.00  0.00     0.441 C 
HETATM   17  O3  UNL     1      23.754   1.994  52.671  1.00  0.00    -0.351 OA
ENDROOT
BRANCH   7  18
HETATM   18  C8  UNL     1      22.596   2.427  49.538  1.00  0.00     0.222 C 
BRANCH  18  19
HETATM   19  O1  UNL     1      21.831   1.451  48.875  1.00  0.00    -0.396 OA
HETATM   20  H11 UNL     1      22.227   0.583  49.136  1.00  0.00     0.209 HD
ENDBRANCH  18  19
ENDBRANCH   7  18
BRANCH   7  21
HETATM   21  N3  UNL     1      22.045   0.962  51.290  1.00  0.00    -0.358 N 
HETATM   22  H12 UNL     1      22.829   0.293  51.017  1.00  0.00     0.162 HD
BRANCH  21  23
HETATM   23  C9  UNL     1      20.968   0.333  51.947  1.00  0.00     0.031 A 
HETATM   24  C10 UNL     1      21.027  -0.253  53.192  1.00  0.00     0.032 A 
HETATM   25  C11 UNL     1      19.990  -0.879  53.846  1.00  0.00     0.046 A 
HETATM   26  C12 UNL     1      18.773  -0.946  53.231  1.00  0.00     0.138 A 
HETATM   27  F1  UNL     1      17.725  -1.552  53.836  1.00  0.00    -0.204 F 
HETATM   28  C13 UNL     1      18.642  -0.381  51.982  1.00  0.00     0.074 A 
HETATM   29 CL1  UNL     1      17.107  -0.434  51.143  1.00  0.00    -0.081 Cl
HETATM   30  C14 UNL     1      19.716   0.233  51.377  1.00  0.00     0.056 A 
ENDBRANCH  21  23
ENDBRANCH   7  21
BRANCH   1  31
HETATM   31  C2  UNL     1      24.829   8.426  49.636  1.00  0.00     0.032 C 
HETATM   32  C1  UNL     1      24.499   9.421  48.535  1.00  0.00     0.010 C 
ENDBRANCH   1  31
TORSDOF 5
ENDMDL
MODEL 9
REMARK VINA RESULT:      -7.2      3.353      4.508
REMARK  5 active torsions:
REMARK  status: ('A' for Active; 'I' for Inactive)
REMARK    1  A    between atoms: C2_2  and  C3_3 
REMARK    2  A    between atoms: C7_9  and  C8_10 
REMARK    3  A    between atoms: C7_9  and  N3_12 
REMARK    4  A    between atoms: C8_10  and  O1_11 
REMARK    5  A    between atoms: N3_12  and  C9_13 
ROOT
HETATM    1  C3  UNL     1      25.560   0.622  53.414  1.00  0.00    -0.056 C 
HETATM    2  C4  UNL     1      25.897   1.771  52.866  1.00  0.00     0.024 C 
HETATM    3  C5  UNL     1      25.851   2.729  51.753  1.00  0.00     0.118 C 
HETATM    4  N1  UNL     1      25.246   2.601  50.663  1.00  0.00    -0.255 NA
HETATM    5  C6  UNL     1      25.147   3.460  49.556  1.00  0.00     0.229 C 
HETATM    6  N2  UNL     1      23.960   3.712  49.219  1.00  0.00    -0.246 NA
HETATM    7  C7  UNL     1      22.723   3.275  49.765  1.00  0.00     0.176 C 
HETATM    8  C15 UNL     1      22.447   3.699  51.166  1.00  0.00     0.205 C 
HETATM    9  C16 UNL     1      22.550   2.682  52.227  1.00  0.00     0.311 C 
HETATM   10  N4  UNL     1      21.233   2.413  52.668  1.00  0.00     0.114 N 
HETATM   11  C17 UNL     1      20.795   1.065  52.647  1.00  0.00     0.277 C 
HETATM   12  C18 UNL     1      21.911   0.070  52.742  1.00  0.00     0.056 C 
HETATM   13  C19 UNL     1      22.723   0.120  53.996  1.00  0.00     0.169 C 
HETATM   14  O2  UNL     1      23.721  -0.812  53.950  1.00  0.00    -0.387 OA
HETATM   15  C20 UNL     1      24.724  -0.594  53.067  1.00  0.00     0.202 C 
HETATM   16  C21 UNL     1      20.397   3.333  51.971  1.00  0.00     0.441 C 
HETATM   17  O3  UNL     1      21.181   4.235  51.310  1.00  0.00    -0.351 OA
ENDROOT
BRANCH   7  18
HETATM   18  C8  UNL     1      22.651   1.753  49.572  1.00  0.00     0.222 C 
BRANCH  18  19
HETATM   19  O1  UNL     1      21.323   1.488  49.193  1.00  0.00    -0.396 OA
HETATM   20  H11 UNL     1      21.357   1.302  48.221  1.00  0.00     0.209 HD
ENDBRANCH  18  19
ENDBRANCH   7  18
BRANCH   7  21
HETATM   21  N3  UNL     1      21.581   3.755  48.963  1.00  0.00    -0.358 N 
HETATM   22  H12 UNL     1      20.575   3.674  49.307  1.00  0.00     0.162 HD
BRANCH  21  23
HETATM   23  C9  UNL     1      21.699   4.355  47.693  1.00  0.00     0.031 A 
HETATM   24  C10 UNL     1      21.704   3.683  46.491  1.00  0.00     0.032 A 
HETATM   25  C11 UNL     1      21.828   4.251  45.243  1.00  0.00     0.046 A 
HETATM   26  C12 UNL     1      21.959   5.605  45.150  1.00  0.00     0.138 A 
HETATM   27  F1  UNL     1      22.083   6.207  43.944  1.00  0.00    -0.204 F 
HETATM   28  C13 UNL     1      21.962   6.342  46.314  1.00  0.00     0.074 A 
HETATM   29 CL1  UNL     1      22.127   8.083  46.259  1.00  0.00    -0.081 Cl
HETATM   30  C14 UNL     1      21.835   5.718  47.536  1.00  0.00     0.056 A 
ENDBRANCH  21  23
ENDBRANCH   7  21
BRANCH   1  31
HETATM   31  C2  UNL     1      26.034   0.225  54.787  1.00  0.00     0.032 C 
HETATM   32  C1  UNL     1      27.550   0.147  54.875  1.00  0.00     0.010 C 
ENDBRANCH   1  31
TORSDOF 5
ENDMDL
