MODEL 1
REMARK VINA RESULT:      -8.0      0.000      0.000
REMARK  4 active torsions:
REMARK  status: ('A' for Active; 'I' for Inactive)
REMARK    1  A    between atoms: O1_2  and  C2_3 
REMARK    2  A    between atoms: C6_7  and  O2_8 
REMARK    3  A    between atoms: O2_8  and  C7_9 
REMARK    4  A    between atoms: N1_13  and  C10_14 
ROOT
HETATM    1  C2  UNL     1      21.612   2.069  52.028  1.00  0.00     0.073 A 
HETATM    2  C3  UNL     1      21.121   1.189  52.970  1.00  0.00     0.070 A 
HETATM    3  C4  UNL     1      22.034   0.404  53.643  1.00  0.00     0.083 A 
HETATM    4  C5  UNL     1      23.378   0.521  53.361  1.00  0.00     0.102 A 
HETATM    5  C6  UNL     1      23.893   1.391  52.427  1.00  0.00     0.104 A 
HETATM    6  C9  UNL     1      22.949   2.156  51.777  1.00  0.00     0.076 A 
HETATM    7  N1  UNL     1      24.320  -0.282  54.058  1.00  0.00    -0.300 N 
HETATM    8  C16 UNL     1      23.835  -1.194  55.045  1.00  0.00     0.237 A 
HETATM    9  N2  UNL     1      22.566  -1.329  55.337  1.00  0.00    -0.169 NA
HETATM   10  N3  UNL     1      21.648  -0.534  54.642  1.00  0.00    -0.275 N 
HETATM   11  H14 UNL     1      20.633  -0.615  54.848  1.00  0.00     0.189 HD
ENDROOT
BRANCH   7  12
HETATM   12  C10 UNL     1      25.717  -0.361  53.909  1.00  0.00     0.042 A 
HETATM   13  C11 UNL     1      26.051  -1.366  52.992  1.00  0.00     0.033 A 
HETATM   14  C12 UNL     1      27.384  -1.629  52.657  1.00  0.00     0.046 A 
HETATM   15  C13 UNL     1      28.412  -0.903  53.221  1.00  0.00     0.138 A 
HETATM   16  F2  UNL     1      29.727  -1.090  52.954  1.00  0.00    -0.204 F 
HETATM   17  C14 UNL     1      28.070   0.083  54.119  1.00  0.00     0.074 A 
HETATM   18 CL1  UNL     1      29.280   1.080  54.908  1.00  0.00    -0.081 Cl
HETATM   19  C15 UNL     1      26.785   0.356  54.461  1.00  0.00     0.057 A 
ENDBRANCH   7  12
BRANCH   5  20
HETATM   20  O2  UNL     1      25.226   1.471  52.187  1.00  0.00    -0.314 OA
BRANCH  20  21
HETATM   21  C7  UNL     1      25.986   2.531  51.721  1.00  0.00     0.309 C 
HETATM   22  C8  UNL     1      26.161   2.534  50.217  1.00  0.00     0.076 C 
HETATM   23  F1  UNL     1      27.243   2.608  52.285  1.00  0.00    -0.220 F 
ENDBRANCH  20  21
ENDBRANCH   5  20
BRANCH   1  24
HETATM   24  O1  UNL     1      20.669   2.846  51.366  1.00  0.00    -0.356 OA
HETATM   25  C1  UNL     1      19.315   2.814  51.699  1.00  0.00     0.210 C 
ENDBRANCH   1  24
TORSDOF 4
ENDMDL
MODEL 2
REMARK VINA RESULT:      -7.8      3.137      5.951
REMARK  4 active torsions:
REMARK  status: ('A' for Active; 'I' for Inactive)
REMARK    1  A    between atoms: O1_2  and  C2_3 
REMARK    2  A    between atoms: C6_7  and  O2_8 
REMARK    3  A    between atoms: O2_8  and  C7_9 
REMARK    4  A    between atoms: N1_13  and  C10_14 
ROOT
HETATM    1  C2  UNL     1      26.265  -0.133  54.658  1.00  0.00     0.073 A 
HETATM    2  C3  UNL     1      25.398  -0.961  55.341  1.00  0.00     0.070 A 
HETATM    3  C4  UNL     1      24.081  -0.976  54.936  1.00  0.00     0.083 A 
HETATM    4  C5  UNL     1      23.678  -0.181  53.884  1.00  0.00     0.102 A 
HETATM    5  C6  UNL     1      24.521   0.653  53.186  1.00  0.00     0.104 A 
HETATM    6  C9  UNL     1      25.829   0.639  53.621  1.00  0.00     0.076 A 
HETATM    7  N1  UNL     1      22.322  -0.200  53.462  1.00  0.00    -0.300 N 
HETATM    8  C16 UNL     1      21.409  -1.058  54.149  1.00  0.00     0.237 A 
HETATM    9  N2  UNL     1      21.759  -1.825  55.150  1.00  0.00    -0.169 NA
HETATM   10  N3  UNL     1      23.097  -1.796  55.559  1.00  0.00    -0.275 N 
HETATM   11  H14 UNL     1      23.410  -2.392  56.349  1.00  0.00     0.189 HD
ENDROOT
BRANCH   7  12
HETATM   12  C10 UNL     1      21.685   0.546  52.453  1.00  0.00     0.042 A 
HETATM   13  C11 UNL     1      20.896   1.555  53.021  1.00  0.00     0.033 A 
HETATM   14  C12 UNL     1      20.174   2.448  52.222  1.00  0.00     0.046 A 
HETATM   15  C13 UNL     1      20.218   2.362  50.846  1.00  0.00     0.138 A 
HETATM   16  F2  UNL     1      19.553   3.183  49.999  1.00  0.00    -0.204 F 
HETATM   17  C14 UNL     1      20.998   1.367  50.300  1.00  0.00     0.074 A 
HETATM   18 CL1  UNL     1      21.143   1.148  48.565  1.00  0.00    -0.081 Cl
HETATM   19  C15 UNL     1      21.707   0.489  51.054  1.00  0.00     0.057 A 
ENDBRANCH   7  12
BRANCH   5  20
HETATM   20  O2  UNL     1      24.077   1.415  52.155  1.00  0.00    -0.314 OA
BRANCH  20  21
HETATM   21  C7  UNL     1      24.389   2.719  51.811  1.00  0.00     0.309 C 
HETATM   22  C8  UNL     1      23.914   3.741  52.823  1.00  0.00     0.076 C 
HETATM   23  F1  UNL     1      23.906   3.103  50.577  1.00  0.00    -0.220 F 
ENDBRANCH  20  21
ENDBRANCH   5  20
BRANCH   1  24
HETATM   24  O1  UNL     1      27.586  -0.138  55.088  1.00  0.00    -0.356 OA
HETATM   25  C1  UNL     1      28.564   0.655  54.489  1.00  0.00     0.210 C 
ENDBRANCH   1  24
TORSDOF 4
ENDMDL
MODEL 3
REMARK VINA RESULT:      -7.7      3.077      6.058
REMARK  4 active torsions:
REMARK  status: ('A' for Active; 'I' for Inactive)
REMARK    1  A    between atoms: O1_2  and  C2_3 
REMARK    2  A    between atoms: C6_7  and  O2_8 
REMARK    3  A    between atoms: O2_8  and  C7_9 
REMARK    4  A    between atoms: N1_13  and  C10_14 
ROOT
HETATM    1  C2  UNL     1      27.845   0.724  53.512  1.00  0.00     0.073 A 
HETATM    2  C3  UNL     1      26.926  -0.090  54.143  1.00  0.00     0.070 A 
HETATM    3  C4  UNL     1      25.601   0.056  53.793  1.00  0.00     0.083 A 
HETATM    4  C5  UNL     1      25.242   0.989  52.844  1.00  0.00     0.102 A 
HETATM    5  C6  UNL     1      26.137   1.813  52.200  1.00  0.00     0.104 A 
HETATM    6  C9  UNL     1      27.451   1.636  52.578  1.00  0.00     0.076 A 
HETATM    7  N1  UNL     1      23.878   1.137  52.477  1.00  0.00    -0.300 N 
HETATM    8  C16 UNL     1      22.910   0.298  53.110  1.00  0.00     0.237 A 
HETATM    9  N2  UNL     1      23.218  -0.598  54.014  1.00  0.00    -0.169 NA
HETATM   10  N3  UNL     1      24.565  -0.732  54.369  1.00  0.00    -0.275 N 
HETATM   11  H14 UNL     1      24.845  -1.433  55.082  1.00  0.00     0.189 HD
ENDROOT
BRANCH   7  12
HETATM   12  C10 UNL     1      23.282   2.039  51.576  1.00  0.00     0.042 A 
HETATM   13  C11 UNL     1      22.868   3.195  52.249  1.00  0.00     0.033 A 
HETATM   14  C12 UNL     1      22.261   4.255  51.566  1.00  0.00     0.046 A 
HETATM   15  C13 UNL     1      22.054   4.193  50.204  1.00  0.00     0.138 A 
HETATM   16  F2  UNL     1      21.476   5.170  49.465  1.00  0.00    -0.204 F 
HETATM   17  C14 UNL     1      22.468   3.052  49.554  1.00  0.00     0.074 A 
HETATM   18 CL1  UNL     1      22.264   2.845  47.823  1.00  0.00    -0.081 Cl
HETATM   19  C15 UNL     1      23.057   2.011  50.195  1.00  0.00     0.057 A 
ENDBRANCH   7  12
BRANCH   5  20
HETATM   20  O2  UNL     1      25.735   2.715  51.270  1.00  0.00    -0.314 OA
BRANCH  20  21
HETATM   21  C7  UNL     1      26.468   3.401  50.317  1.00  0.00     0.309 C 
HETATM   22  C8  UNL     1      25.813   4.686  49.859  1.00  0.00     0.076 C 
HETATM   23  F1  UNL     1      26.754   2.657  49.190  1.00  0.00    -0.220 F 
ENDBRANCH  20  21
ENDBRANCH   5  20
BRANCH   1  24
HETATM   24  O1  UNL     1      29.173   0.554  53.886  1.00  0.00    -0.356 OA
HETATM   25  C1  UNL     1      29.871  -0.625  53.627  1.00  0.00     0.210 C 
ENDBRANCH   1  24
TORSDOF 4
ENDMDL
MODEL 4
REMARK VINA RESULT:      -7.7      3.945      7.053
REMARK  4 active torsions:
REMARK  status: ('A' for Active; 'I' for Inactive)
REMARK    1  A    between atoms: O1_2  and  C2_3 
REMARK    2  A    between atoms: C6_7  and  O2_8 
REMARK    3  A    between atoms: O2_8  and  C7_9 
REMARK    4  A    between atoms: N1_13  and  C10_14 
ROOT
HETATM    1  C2  UNL     1      26.477  -0.057  53.460  1.00  0.00     0.073 A 
HETATM    2  C3  UNL     1      26.949   0.795  52.483  1.00  0.00     0.070 A 
HETATM    3  C4  UNL     1      26.019   1.516  51.764  1.00  0.00     0.083 A 
HETATM    4  C5  UNL     1      24.676   1.367  52.038  1.00  0.00     0.102 A 
HETATM    5  C6  UNL     1      24.179   0.524  53.007  1.00  0.00     0.104 A 
HETATM    6  C9  UNL     1      25.141  -0.177  53.702  1.00  0.00     0.076 A 
HETATM    7  N1  UNL     1      23.717   2.112  51.303  1.00  0.00    -0.300 N 
HETATM    8  C16 UNL     1      24.183   3.008  50.292  1.00  0.00     0.237 A 
HETATM    9  N2  UNL     1      25.451   3.173  50.008  1.00  0.00    -0.169 NA
HETATM   10  N3  UNL     1      26.386   2.432  50.737  1.00  0.00    -0.275 N 
HETATM   11  H14 UNL     1      27.400   2.538  50.539  1.00  0.00     0.189 HD
ENDROOT
BRANCH   7  12
HETATM   12  C10 UNL     1      22.312   2.093  51.380  1.00  0.00     0.042 A 
HETATM   13  C11 UNL     1      21.853   3.178  52.137  1.00  0.00     0.033 A 
HETATM   14  C12 UNL     1      20.486   3.392  52.345  1.00  0.00     0.046 A 
HETATM   15  C13 UNL     1      19.546   2.538  51.808  1.00  0.00     0.138 A 
HETATM   16  F2  UNL     1      18.206   2.668  51.958  1.00  0.00    -0.204 F 
HETATM   17  C14 UNL     1      20.010   1.475  51.064  1.00  0.00     0.074 A 
HETATM   18 CL1  UNL     1      18.922   0.314  50.325  1.00  0.00    -0.081 Cl
HETATM   19  C15 UNL     1      21.331   1.247  50.850  1.00  0.00     0.057 A 
ENDBRANCH   7  12
BRANCH   5  20
HETATM   20  O2  UNL     1      22.848   0.415  53.240  1.00  0.00    -0.314 OA
BRANCH  20  21
HETATM   21  C7  UNL     1      22.174  -0.181  54.293  1.00  0.00     0.309 C 
HETATM   22  C8  UNL     1      21.717  -1.594  53.997  1.00  0.00     0.076 C 
HETATM   23  F1  UNL     1      21.071   0.529  54.724  1.00  0.00    -0.220 F 
ENDBRANCH  20  21
ENDBRANCH   5  20
BRANCH   1  24
HETATM   24  O1  UNL     1      27.438  -0.770  54.168  1.00  0.00    -0.356 OA
HETATM   25  C1  UNL     1      28.653  -0.201  54.548  1.00  0.00     0.210 C 
ENDBRANCH   1  24
TORSDOF 4
ENDMDL
MODEL 5
REMARK VINA RESULT:      -7.2      3.274      5.911
REMARK  4 active torsions:
REMARK  status: ('A' for Active; 'I' for Inactive)
REMARK    1  A    between atoms: O1_2  and  C2_3 
REMARK    2  A    between atoms: C6_7  and  O2_8 
REMARK    3  A    between atoms: O2_8  and  C7_9 
REMARK    4  A    between atoms: N1_13  and  C10_14 
ROOT
HETATM    1  C2  UNL     1      26.867   0.500  53.779  1.00  0.00     0.073 A 
HETATM    2  C3  UNL     1      26.237  -0.320  54.692  1.00  0.00     0.070 A 
HETATM    3  C4  UNL     1      24.867  -0.446  54.594  1.00  0.00     0.083 A 
HETATM    4  C5  UNL     1      24.185   0.234  53.608  1.00  0.00     0.102 A 
HETATM    5  C6  UNL     1      24.789   1.057  52.685  1.00  0.00     0.104 A 
HETATM    6  C9  UNL     1      26.157   1.157  52.817  1.00  0.00     0.076 A 
HETATM    7  N1  UNL     1      22.775   0.100  53.502  1.00  0.00    -0.300 N 
HETATM    8  C16 UNL     1      22.102  -0.752  54.431  1.00  0.00     0.237 A 
HETATM    9  N2  UNL     1      22.720  -1.412  55.378  1.00  0.00    -0.169 NA
HETATM   10  N3  UNL     1      24.109  -1.270  55.474  1.00  0.00    -0.275 N 
HETATM   11  H14 UNL     1      24.632  -1.779  56.213  1.00  0.00     0.189 HD
ENDROOT
BRANCH   7  12
HETATM   12  C10 UNL     1      21.878   0.721  52.614  1.00  0.00     0.042 A 
HETATM   13  C11 UNL     1      21.664  -0.092  51.493  1.00  0.00     0.033 A 
HETATM   14  C12 UNL     1      20.793   0.298  50.469  1.00  0.00     0.046 A 
HETATM   15  C13 UNL     1      20.116   1.496  50.534  1.00  0.00     0.138 A 
HETATM   16  F2  UNL     1      19.256   1.951  49.591  1.00  0.00    -0.204 F 
HETATM   17  C14 UNL     1      20.333   2.286  51.641  1.00  0.00     0.074 A 
HETATM   18 CL1  UNL     1      19.534   3.835  51.849  1.00  0.00    -0.081 Cl
HETATM   19  C15 UNL     1      21.173   1.930  52.646  1.00  0.00     0.057 A 
ENDBRANCH   7  12
BRANCH   5  20
HETATM   20  O2  UNL     1      24.073   1.703  51.731  1.00  0.00    -0.314 OA
BRANCH  20  21
HETATM   21  C7  UNL     1      24.447   2.729  50.878  1.00  0.00     0.309 C 
HETATM   22  C8  UNL     1      24.087   4.106  51.395  1.00  0.00     0.076 C 
HETATM   23  F1  UNL     1      23.926   2.615  49.605  1.00  0.00    -0.220 F 
ENDBRANCH  20  21
ENDBRANCH   5  20
BRANCH   1  24
HETATM   24  O1  UNL     1      28.247   0.609  53.902  1.00  0.00    -0.356 OA
HETATM   25  C1  UNL     1      29.065  -0.506  54.083  1.00  0.00     0.210 C 
ENDBRANCH   1  24
TORSDOF 4
ENDMDL
MODEL 6
REMARK VINA RESULT:      -7.1      3.638      5.947
REMARK  4 active torsions:
REMARK  status: ('A' for Active; 'I' for Inactive)
REMARK    1  A    between atoms: O1_2  and  C2_3 
REMARK    2  A    between atoms: C6_7  and  O2_8 
REMARK    3  A    between atoms: O2_8  and  C7_9 
REMARK    4  A    between atoms: N1_13  and  C10_14 
ROOT
HETATM    1  C2  UNL     1      22.414  -0.968  54.626  1.00  0.00     0.073 A 
HETATM    2  C3  UNL     1      21.070  -1.247  54.484  1.00  0.00     0.070 A 
HETATM    3  C4  UNL     1      20.413  -0.678  53.414  1.00  0.00     0.083 A 
HETATM    4  C5  UNL     1      21.102   0.133  52.538  1.00  0.00     0.102 A 
HETATM    5  C6  UNL     1      22.442   0.427  52.657  1.00  0.00     0.104 A 
HETATM    6  C9  UNL     1      23.062  -0.160  53.739  1.00  0.00     0.076 A 
HETATM    7  N1  UNL     1      20.428   0.715  51.432  1.00  0.00    -0.300 N 
HETATM    8  C16 UNL     1      19.038   0.433  51.259  1.00  0.00     0.237 A 
HETATM    9  N2  UNL     1      18.355  -0.333  52.071  1.00  0.00    -0.169 NA
HETATM   10  N3  UNL     1      19.029  -0.899  53.159  1.00  0.00    -0.275 N 
HETATM   11  H14 UNL     1      18.519  -1.512  53.824  1.00  0.00     0.189 HD
ENDROOT
BRANCH   7  12
HETATM   12  C10 UNL     1      20.912   1.595  50.446  1.00  0.00     0.042 A 
HETATM   13  C11 UNL     1      21.350   0.876  49.327  1.00  0.00     0.033 A 
HETATM   14  C12 UNL     1      21.859   1.528  48.198  1.00  0.00     0.046 A 
HETATM   15  C13 UNL     1      21.945   2.903  48.154  1.00  0.00     0.138 A 
HETATM   16  F2  UNL     1      22.424   3.615  47.106  1.00  0.00    -0.204 F 
HETATM   17  C14 UNL     1      21.511   3.599  49.261  1.00  0.00     0.074 A 
HETATM   18 CL1  UNL     1      21.565   5.352  49.335  1.00  0.00    -0.081 Cl
HETATM   19  C15 UNL     1      21.014   2.989  50.366  1.00  0.00     0.057 A 
ENDBRANCH   7  12
BRANCH   5  20
HETATM   20  O2  UNL     1      23.077   1.230  51.767  1.00  0.00    -0.314 OA
BRANCH  20  21
HETATM   21  C7  UNL     1      24.369   1.727  51.779  1.00  0.00     0.309 C 
HETATM   22  C8  UNL     1      24.633   2.752  50.696  1.00  0.00     0.076 C 
HETATM   23  F1  UNL     1      25.343   0.754  51.673  1.00  0.00    -0.220 F 
ENDBRANCH  20  21
ENDBRANCH   5  20
BRANCH   1  24
HETATM   24  O1  UNL     1      23.050  -1.554  55.714  1.00  0.00    -0.356 OA
HETATM   25  C1  UNL     1      24.412  -1.382  55.957  1.00  0.00     0.210 C 
ENDBRANCH   1  24
TORSDOF 4
ENDMDL
MODEL 7
REMARK VINA RESULT:      -6.9      4.129      6.474
REMARK  4 active torsions:
REMARK  status: ('A' for Active; 'I' for Inactive)
REMARK    1  A    between atoms: O1_2  and  C2_3 
REMARK    2  A    between atoms: C6_7  and  O2_8 
REMARK    3  A    between atoms: O2_8  and  C7_9 
REMARK    4  A    between atoms: N1_13  and  C10_14 
ROOT
HETATM    1  C2  UNL     1      23.391  -0.193  53.553  1.00  0.00     0.073 A 
HETATM    2  C3  UNL     1      24.761  -0.086  53.426  1.00  0.00     0.070 A 
HETATM    3  C4  UNL     1      25.247   0.900  52.594  1.00  0.00     0.083 A 
HETATM    4  C5  UNL     1      24.369   1.732  51.931  1.00  0.00     0.102 A 
HETATM    5  C6  UNL     1      23.000   1.647  52.041  1.00  0.00     0.104 A 
HETATM    6  C9  UNL     1      22.555   0.649  52.881  1.00  0.00     0.076 A 
HETATM    7  N1  UNL     1      24.868   2.753  51.079  1.00  0.00    -0.300 N 
HETATM    8  C16 UNL     1      26.283   2.888  50.939  1.00  0.00     0.237 A 
HETATM    9  N2  UNL     1      27.143   2.116  51.554  1.00  0.00    -0.169 NA
HETATM   10  N3  UNL     1      26.640   1.113  52.389  1.00  0.00    -0.275 N 
HETATM   11  H14 UNL     1      27.293   0.482  52.893  1.00  0.00     0.189 HD
ENDROOT
BRANCH   7  12
HETATM   12  C10 UNL     1      24.170   3.678  50.282  1.00  0.00     0.042 A 
HETATM   13  C11 UNL     1      24.129   4.928  50.914  1.00  0.00     0.033 A 
HETATM   14  C12 UNL     1      23.504   6.026  50.311  1.00  0.00     0.046 A 
HETATM   15  C13 UNL     1      22.910   5.910  49.072  1.00  0.00     0.138 A 
HETATM   16  F2  UNL     1      22.285   6.918  48.417  1.00  0.00    -0.204 F 
HETATM   17  C14 UNL     1      22.958   4.677  48.461  1.00  0.00     0.074 A 
HETATM   18 CL1  UNL     1      22.242   4.393  46.884  1.00  0.00    -0.081 Cl
HETATM   19  C15 UNL     1      23.557   3.598  49.026  1.00  0.00     0.057 A 
ENDBRANCH   7  12
BRANCH   5  20
HETATM   20  O2  UNL     1      22.177   2.491  51.370  1.00  0.00    -0.314 OA
BRANCH  20  21
HETATM   21  C7  UNL     1      21.023   3.132  51.789  1.00  0.00     0.309 C 
HETATM   22  C8  UNL     1      20.158   3.625  50.648  1.00  0.00     0.076 C 
HETATM   23  F1  UNL     1      21.251   4.203  52.628  1.00  0.00    -0.220 F 
ENDBRANCH  20  21
ENDBRANCH   5  20
BRANCH   1  24
HETATM   24  O1  UNL     1      22.930  -1.196  54.398  1.00  0.00    -0.356 OA
HETATM   25  C1  UNL     1      21.578  -1.525  54.489  1.00  0.00     0.210 C 
ENDBRANCH   1  24
TORSDOF 4
ENDMDL
MODEL 8
REMARK VINA RESULT:      -6.8      3.309      4.640
REMARK  4 active torsions:
REMARK  status: ('A' for Active; 'I' for Inactive)
REMARK    1  A    between atoms: O1_2  and  C2_3 
REMARK    2  A    between atoms: C6_7  and  O2_8 
REMARK    3  A    between atoms: O2_8  and  C7_9 
REMARK    4  A    between atoms: N1_13  and  C10_14 
ROOT
HETATM    1  C2  UNL     1      17.967  -0.491  52.002  1.00  0.00     0.073 A 
HETATM    2  C3  UNL     1      18.501  -1.188  53.068  1.00  0.00     0.070 A 
HETATM    3  C4  UNL     1      19.770  -0.842  53.481  1.00  0.00     0.083 A 
HETATM    4  C5  UNL     1      20.452   0.166  52.833  1.00  0.00     0.102 A 
HETATM    5  C6  UNL     1      19.942   0.875  51.769  1.00  0.00     0.104 A 
HETATM    6  C9  UNL     1      18.672   0.500  51.387  1.00  0.00     0.076 A 
HETATM    7  N1  UNL     1      21.757   0.527  53.261  1.00  0.00    -0.300 N 
HETATM    8  C16 UNL     1      22.326  -0.174  54.368  1.00  0.00     0.237 A 
HETATM    9  N2  UNL     1      21.706  -1.135  55.005  1.00  0.00    -0.169 NA
HETATM   10  N3  UNL     1      20.421  -1.484  54.573  1.00  0.00    -0.275 N 
HETATM   11  H14 UNL     1      19.900  -2.241  55.055  1.00  0.00     0.189 HD
ENDROOT
BRANCH   7  12
HETATM   12  C10 UNL     1      22.643   1.482  52.732  1.00  0.00     0.042 A 
HETATM   13  C11 UNL     1      23.683   0.848  52.039  1.00  0.00     0.033 A 
HETATM   14  C12 UNL     1      24.687   1.586  51.403  1.00  0.00     0.046 A 
HETATM   15  C13 UNL     1      24.683   2.964  51.437  1.00  0.00     0.138 A 
HETATM   16  F2  UNL     1      25.613   3.756  50.850  1.00  0.00    -0.204 F 
HETATM   17  C14 UNL     1      23.655   3.576  52.120  1.00  0.00     0.074 A 
HETATM   18 CL1  UNL     1      23.530   5.323  52.241  1.00  0.00    -0.081 Cl
HETATM   19  C15 UNL     1      22.670   2.882  52.745  1.00  0.00     0.057 A 
ENDBRANCH   7  12
BRANCH   5  20
HETATM   20  O2  UNL     1      20.652   1.861  51.165  1.00  0.00    -0.314 OA
BRANCH  20  21
HETATM   21  C7  UNL     1      20.797   2.160  49.821  1.00  0.00     0.309 C 
HETATM   22  C8  UNL     1      21.431   1.044  49.018  1.00  0.00     0.076 C 
HETATM   23  F1  UNL     1      21.523   3.309  49.579  1.00  0.00    -0.220 F 
ENDBRANCH  20  21
ENDBRANCH   5  20
BRANCH   1  24
HETATM   24  O1  UNL     1      16.687  -0.861  51.608  1.00  0.00    -0.356 OA
HETATM   25  C1  UNL     1      15.552  -0.487  52.328  1.00  0.00     0.210 C 
ENDBRANCH   1  24
TORSDOF 4
ENDMDL
MODEL 9
REMARK VINA RESULT:      -6.7      3.403      4.975
REMARK  4 active torsions:
REMARK  status: ('A' for Active; 'I' for Inactive)
REMARK    1  A    between atoms: O1_2  and  C2_3 
REMARK    2  A    between atoms: C6_7  and  O2_8 
REMARK    3  A    between atoms: O2_8  and  C7_9 
REMARK    4  A    between atoms: N1_13  and  C10_14 
ROOT
HETATM    1  C2  UNL     1      20.347  -0.721  53.546  1.00  0.00     0.073 A 
HETATM    2  C3  UNL     1      21.523  -1.165  54.113  1.00  0.00     0.070 A 
HETATM    3  C4  UNL     1      22.670  -0.448  53.845  1.00  0.00     0.083 A 
HETATM    4  C5  UNL     1      22.607   0.667  53.037  1.00  0.00     0.102 A 
HETATM    5  C6  UNL     1      21.447   1.132  52.459  1.00  0.00     0.104 A 
HETATM    6  C9  UNL     1      20.325   0.388  52.751  1.00  0.00     0.076 A 
HETATM    7  N1  UNL     1      23.786   1.411  52.764  1.00  0.00    -0.300 N 
HETATM    8  C16 UNL     1      25.014   0.974  53.348  1.00  0.00     0.237 A 
HETATM    9  N2  UNL     1      25.108  -0.079  54.120  1.00  0.00    -0.169 NA
HETATM   10  N3  UNL     1      23.940  -0.805  54.380  1.00  0.00    -0.275 N 
HETATM   11  H14 UNL     1      23.977  -1.646  54.988  1.00  0.00     0.189 HD
ENDROOT
BRANCH   7  12
HETATM   12  C10 UNL     1      23.966   2.542  51.947  1.00  0.00     0.042 A 
HETATM   13  C11 UNL     1      24.439   2.158  50.685  1.00  0.00     0.033 A 
HETATM   14  C12 UNL     1      24.679   3.103  49.682  1.00  0.00     0.046 A 
HETATM   15  C13 UNL     1      24.456   4.445  49.905  1.00  0.00     0.138 A 
HETATM   16  F2  UNL     1      24.661   5.426  48.994  1.00  0.00    -0.204 F 
HETATM   17  C14 UNL     1      23.989   4.810  51.149  1.00  0.00     0.074 A 
HETATM   18 CL1  UNL     1      23.663   6.483  51.565  1.00  0.00    -0.081 Cl
HETATM   19  C15 UNL     1      23.749   3.911  52.138  1.00  0.00     0.057 A 
ENDBRANCH   7  12
BRANCH   5  20
HETATM   20  O2  UNL     1      21.437   2.237  51.672  1.00  0.00    -0.314 OA
BRANCH  20  21
HETATM   21  C7  UNL     1      20.699   2.513  50.533  1.00  0.00     0.309 C 
HETATM   22  C8  UNL     1      21.057   1.634  49.353  1.00  0.00     0.076 C 
HETATM   23  F1  UNL     1      20.788   3.825  50.114  1.00  0.00    -0.220 F 
ENDBRANCH  20  21
ENDBRANCH   5  20
BRANCH   1  24
HETATM   24  O1  UNL     1      19.208  -1.464  53.833  1.00  0.00    -0.356 OA
HETATM   25  C1  UNL     1      18.017  -1.297  53.128  1.00  0.00     0.210 C 
ENDBRANCH   1  24
TORSDOF 4
ENDMDL
