MODEL 1
REMARK VINA RESULT:      -8.2      0.000      0.000
REMARK  5 active torsions:
REMARK  status: ('A' for Active; 'I' for Inactive)
REMARK    1  A    between atoms: C6_7  and  C7_8 
REMARK    2  A    between atoms: C7_8  and  C8_9 
REMARK    3  A    between atoms: C8_9  and  N1_10 
REMARK    4  A    between atoms: C13_16  and  N2_17 
REMARK    5  A    between atoms: N2_17  and  C14_18 
ROOT
HETATM    1  C1  UNL     1      22.646   5.069  52.578  1.00  0.00     0.050 C 
HETATM    2  C2  UNL     1      22.480   3.677  51.986  1.00  0.00     0.095 C 
HETATM    3  C3  UNL     1      23.376   2.687  52.676  1.00  0.00     0.081 C 
HETATM    4  C4  UNL     1      23.142   1.335  52.113  1.00  0.00    -0.012 C 
HETATM    5  C5  UNL     1      22.939   1.291  50.781  1.00  0.00     0.142 C 
HETATM    6  O1  UNL     1      22.456   2.359  50.036  1.00  0.00    -0.354 OA
HETATM    7  C6  UNL     1      22.760   3.651  50.520  1.00  0.00     0.164 C 
HETATM    8  C13 UNL     1      23.159   0.106  52.951  1.00  0.00     0.235 C 
HETATM    9  N3  UNL     1      21.976  -0.314  53.538  1.00  0.00    -0.269 NA
HETATM   10  C20 UNL     1      20.738  -0.149  53.413  1.00  0.00     0.273 C 
HETATM   11  N4  UNL     1      20.766   0.750  52.314  1.00  0.00    -0.247 NA
HETATM   12  C21 UNL     1      20.964   1.999  52.678  1.00  0.00     0.249 C 
HETATM   13  O3  UNL     1      21.113   3.323  52.293  1.00  0.00    -0.331 OA
ENDROOT
BRANCH   8  14
HETATM   14  N2  UNL     1      24.282   0.189  53.890  1.00  0.00    -0.364 N 
HETATM   15  H21 UNL     1      24.015   0.551  54.827  1.00  0.00     0.162 HD
BRANCH  14  16
HETATM   16  C14 UNL     1      25.632  -0.162  53.646  1.00  0.00     0.031 A 
HETATM   17  C15 UNL     1      26.029  -1.281  52.948  1.00  0.00     0.032 A 
HETATM   18  C16 UNL     1      27.326  -1.614  52.714  1.00  0.00     0.046 A 
HETATM   19  C17 UNL     1      28.350  -0.804  53.190  1.00  0.00     0.138 A 
HETATM   20  F1  UNL     1      29.669  -1.030  53.020  1.00  0.00    -0.204 F 
HETATM   21  C18 UNL     1      27.962   0.319  53.890  1.00  0.00     0.074 A 
HETATM   22 CL1  UNL     1      29.158   1.424  54.546  1.00  0.00    -0.081 Cl
HETATM   23  C19 UNL     1      26.636   0.629  54.111  1.00  0.00     0.056 A 
ENDBRANCH  14  16
ENDBRANCH   8  14
BRANCH   7  24
HETATM   24  C7  UNL     1      21.996   4.740  49.776  1.00  0.00     0.055 C 
BRANCH  24  25
HETATM   25  C8  UNL     1      22.850   5.253  48.688  1.00  0.00     0.119 C 
BRANCH  25  26
HETATM   26  N1  UNL     1      23.535   6.442  48.879  1.00  0.00    -0.408 N 
HETATM   27  C9  UNL     1      22.997   7.519  49.591  1.00  0.00     0.143 C 
HETATM   28  C10 UNL     1      23.982   7.920  50.682  1.00  0.00     0.187 C 
HETATM   29  O2  UNL     1      25.000   6.988  50.843  1.00  0.00    -0.388 OA
HETATM   30  C11 UNL     1      25.752   6.771  49.706  1.00  0.00     0.187 C 
HETATM   31  C12 UNL     1      24.880   6.581  48.491  1.00  0.00     0.143 C 
ENDBRANCH  25  26
ENDBRANCH  24  25
ENDBRANCH   7  24
TORSDOF 5
ENDMDL
MODEL 2
REMARK VINA RESULT:      -8.1      2.917      5.149
REMARK  5 active torsions:
REMARK  status: ('A' for Active; 'I' for Inactive)
REMARK    1  A    between atoms: C6_7  and  C7_8 
REMARK    2  A    between atoms: C7_8  and  C8_9 
REMARK    3  A    between atoms: C8_9  and  N1_10 
REMARK    4  A    between atoms: C13_16  and  N2_17 
REMARK    5  A    between atoms: N2_17  and  C14_18 
ROOT
HETATM    1  C1  UNL     1      21.345   1.334  48.639  1.00  0.00     0.050 C 
HETATM    2  C2  UNL     1      21.527   1.636  50.119  1.00  0.00     0.095 C 
HETATM    3  C3  UNL     1      22.981   1.607  50.500  1.00  0.00     0.081 C 
HETATM    4  C4  UNL     1      23.121   1.965  51.933  1.00  0.00    -0.012 C 
HETATM    5  C5  UNL     1      22.170   1.467  52.748  1.00  0.00     0.142 C 
HETATM    6  O1  UNL     1      20.895   1.114  52.325  1.00  0.00    -0.354 OA
HETATM    7  C6  UNL     1      20.775   0.682  50.986  1.00  0.00     0.164 C 
HETATM    8  C13 UNL     1      24.248   2.790  52.444  1.00  0.00     0.235 C 
HETATM    9  N3  UNL     1      24.103   4.167  52.473  1.00  0.00    -0.269 NA
HETATM   10  C20 UNL     1      23.194   5.032  52.442  1.00  0.00     0.273 C 
HETATM   11  N4  UNL     1      22.084   4.151  52.350  1.00  0.00    -0.247 NA
HETATM   12  C21 UNL     1      21.844   3.756  51.118  1.00  0.00     0.249 C 
HETATM   13  O3  UNL     1      21.060   2.996  50.262  1.00  0.00    -0.331 OA
ENDROOT
BRANCH   8  14
HETATM   14  N2  UNL     1      25.490   2.345  51.802  1.00  0.00    -0.364 N 
HETATM   15  H21 UNL     1      25.601   2.690  50.828  1.00  0.00     0.162 HD
BRANCH  14  16
HETATM   16  C14 UNL     1      26.500   1.528  52.364  1.00  0.00     0.031 A 
HETATM   17  C15 UNL     1      27.586   2.006  53.063  1.00  0.00     0.032 A 
HETATM   18  C16 UNL     1      28.554   1.218  53.604  1.00  0.00     0.046 A 
HETATM   19  C17 UNL     1      28.483  -0.164  53.467  1.00  0.00     0.138 A 
HETATM   20  F1  UNL     1      29.379  -1.044  53.958  1.00  0.00    -0.204 F 
HETATM   21  C18 UNL     1      27.399  -0.651  52.768  1.00  0.00     0.074 A 
HETATM   22 CL1  UNL     1      27.194  -2.378  52.523  1.00  0.00    -0.081 Cl
HETATM   23  C19 UNL     1      26.435   0.176  52.232  1.00  0.00     0.056 A 
ENDBRANCH  14  16
ENDBRANCH   8  14
BRANCH   7  24
HETATM   24  C7  UNL     1      19.320   0.544  50.552  1.00  0.00     0.055 C 
BRANCH  24  25
HETATM   25  C8  UNL     1      18.463   1.161  51.581  1.00  0.00     0.119 C 
BRANCH  25  26
HETATM   26  N1  UNL     1      17.361   1.900  51.181  1.00  0.00    -0.408 N 
HETATM   27  C9  UNL     1      16.063   1.622  51.622  1.00  0.00     0.143 C 
HETATM   28  C10 UNL     1      15.469   2.895  52.211  1.00  0.00     0.187 C 
HETATM   29  O2  UNL     1      16.420   3.893  52.382  1.00  0.00    -0.388 OA
HETATM   30  C11 UNL     1      17.060   4.270  51.219  1.00  0.00     0.187 C 
HETATM   31  C12 UNL     1      17.506   3.072  50.417  1.00  0.00     0.143 C 
ENDBRANCH  25  26
ENDBRANCH  24  25
ENDBRANCH   7  24
TORSDOF 5
ENDMDL
MODEL 3
REMARK VINA RESULT:      -8.0      3.107      5.465
REMARK  5 active torsions:
REMARK  status: ('A' for Active; 'I' for Inactive)
REMARK    1  A    between atoms: C6_7  and  C7_8 
REMARK    2  A    between atoms: C7_8  and  C8_9 
REMARK    3  A    between atoms: C8_9  and  N1_10 
REMARK    4  A    between atoms: C13_16  and  N2_17 
REMARK    5  A    between atoms: N2_17  and  C14_18 
ROOT
HETATM    1  C1  UNL     1      20.833   0.086  52.215  1.00  0.00     0.050 C 
HETATM    2  C2  UNL     1      21.365   1.491  51.967  1.00  0.00     0.095 C 
HETATM    3  C3  UNL     1      22.609   1.747  52.771  1.00  0.00     0.081 C 
HETATM    4  C4  UNL     1      23.128   3.100  52.457  1.00  0.00    -0.012 C 
HETATM    5  C5  UNL     1      22.190   4.054  52.289  1.00  0.00     0.142 C 
HETATM    6  O1  UNL     1      20.882   3.793  51.905  1.00  0.00    -0.354 OA
HETATM    7  C6  UNL     1      20.352   2.541  52.285  1.00  0.00     0.164 C 
HETATM    8  C13 UNL     1      24.583   3.395  52.363  1.00  0.00     0.235 C 
HETATM    9  N3  UNL     1      25.212   3.249  51.137  1.00  0.00    -0.269 NA
HETATM   10  C20 UNL     1      24.922   3.179  49.918  1.00  0.00     0.273 C 
HETATM   11  N4  UNL     1      23.513   3.303  50.041  1.00  0.00    -0.247 NA
HETATM   12  C21 UNL     1      22.920   2.161  50.317  1.00  0.00     0.249 C 
HETATM   13  O3  UNL     1      21.734   1.487  50.570  1.00  0.00    -0.331 OA
ENDROOT
BRANCH   8  14
HETATM   14  N2  UNL     1      25.276   2.716  53.463  1.00  0.00    -0.364 N 
HETATM   15  H21 UNL     1      24.883   2.934  54.400  1.00  0.00     0.162 HD
BRANCH  14  16
HETATM   16  C14 UNL     1      26.380   1.835  53.366  1.00  0.00     0.031 A 
HETATM   17  C15 UNL     1      27.690   2.205  53.578  1.00  0.00     0.032 A 
HETATM   18  C16 UNL     1      28.747   1.355  53.486  1.00  0.00     0.046 A 
HETATM   19  C17 UNL     1      28.542   0.020  53.160  1.00  0.00     0.138 A 
HETATM   20  F1  UNL     1      29.508  -0.914  53.040  1.00  0.00    -0.204 F 
HETATM   21  C18 UNL     1      27.234  -0.359  52.944  1.00  0.00     0.074 A 
HETATM   22 CL1  UNL     1      26.838  -2.017  52.524  1.00  0.00    -0.081 Cl
HETATM   23  C19 UNL     1      26.182   0.528  53.045  1.00  0.00     0.056 A 
ENDBRANCH  14  16
ENDBRANCH   8  14
BRANCH   7  24
HETATM   24  C7  UNL     1      19.009   2.255  51.622  1.00  0.00     0.055 C 
BRANCH  24  25
HETATM   25  C8  UNL     1      18.260   3.521  51.517  1.00  0.00     0.119 C 
BRANCH  25  26
HETATM   26  N1  UNL     1      16.898   3.474  51.267  1.00  0.00    -0.408 N 
HETATM   27  C9  UNL     1      16.306   2.475  50.486  1.00  0.00     0.143 C 
HETATM   28  C10 UNL     1      15.183   1.833  51.291  1.00  0.00     0.187 C 
HETATM   29  O2  UNL     1      15.203   2.217  52.626  1.00  0.00    -0.388 OA
HETATM   30  C11 UNL     1      15.090   3.578  52.825  1.00  0.00     0.187 C 
HETATM   31  C12 UNL     1      16.006   4.351  51.909  1.00  0.00     0.143 C 
ENDBRANCH  25  26
ENDBRANCH  24  25
ENDBRANCH   7  24
TORSDOF 5
ENDMDL
MODEL 4
REMARK VINA RESULT:      -7.9      2.711      4.187
REMARK  5 active torsions:
REMARK  status: ('A' for Active; 'I' for Inactive)
REMARK    1  A    between atoms: C6_7  and  C7_8 
REMARK    2  A    between atoms: C7_8  and  C8_9 
REMARK    3  A    between atoms: C8_9  and  N1_10 
REMARK    4  A    between atoms: C13_16  and  N2_17 
REMARK    5  A    between atoms: N2_17  and  C14_18 
ROOT
HETATM    1  C1  UNL     1      21.218  -0.145  52.576  1.00  0.00     0.050 C 
HETATM    2  C2  UNL     1      21.705   1.257  52.243  1.00  0.00     0.095 C 
HETATM    3  C3  UNL     1      22.971   1.580  52.986  1.00  0.00     0.081 C 
HETATM    4  C4  UNL     1      23.445   2.928  52.589  1.00  0.00    -0.012 C 
HETATM    5  C5  UNL     1      22.478   3.851  52.412  1.00  0.00     0.142 C 
HETATM    6  O1  UNL     1      21.163   3.543  52.090  1.00  0.00    -0.354 OA
HETATM    7  C6  UNL     1      20.679   2.298  52.549  1.00  0.00     0.164 C 
HETATM    8  C13 UNL     1      24.887   3.252  52.425  1.00  0.00     0.235 C 
HETATM    9  N3  UNL     1      25.474   3.062  51.185  1.00  0.00    -0.269 NA
HETATM   10  C20 UNL     1      25.142   2.926  49.982  1.00  0.00     0.273 C 
HETATM   11  N4  UNL     1      23.735   3.024  50.153  1.00  0.00    -0.247 NA
HETATM   12  C21 UNL     1      23.181   1.883  50.505  1.00  0.00     0.249 C 
HETATM   13  O3  UNL     1      22.023   1.195  50.834  1.00  0.00    -0.331 OA
ENDROOT
BRANCH   8  14
HETATM   14  N2  UNL     1      25.637   2.643  53.529  1.00  0.00    -0.364 N 
HETATM   15  H21 UNL     1      25.296   2.924  54.469  1.00  0.00     0.162 HD
BRANCH  14  16
HETATM   16  C14 UNL     1      26.732   1.750  53.431  1.00  0.00     0.031 A 
HETATM   17  C15 UNL     1      28.046   2.109  53.628  1.00  0.00     0.032 A 
HETATM   18  C16 UNL     1      29.095   1.248  53.536  1.00  0.00     0.046 A 
HETATM   19  C17 UNL     1      28.874  -0.088  53.225  1.00  0.00     0.138 A 
HETATM   20  F1  UNL     1      29.830  -1.032  53.107  1.00  0.00    -0.204 F 
HETATM   21  C18 UNL     1      27.560  -0.457  53.026  1.00  0.00     0.074 A 
HETATM   22 CL1  UNL     1      27.145  -2.115  52.627  1.00  0.00    -0.081 Cl
HETATM   23  C19 UNL     1      26.518   0.441  53.127  1.00  0.00     0.056 A 
ENDBRANCH  14  16
ENDBRANCH   8  14
BRANCH   7  24
HETATM   24  C7  UNL     1      19.320   1.951  51.951  1.00  0.00     0.055 C 
BRANCH  24  25
HETATM   25  C8  UNL     1      18.669   3.198  51.509  1.00  0.00     0.119 C 
BRANCH  25  26
HETATM   26  N1  UNL     1      18.582   3.463  50.152  1.00  0.00    -0.408 N 
HETATM   27  C9  UNL     1      18.005   4.632  49.645  1.00  0.00     0.143 C 
HETATM   28  C10 UNL     1      19.005   5.300  48.710  1.00  0.00     0.187 C 
HETATM   29  O2  UNL     1      20.271   4.733  48.798  1.00  0.00    -0.388 OA
HETATM   30  C11 UNL     1      20.309   3.386  48.503  1.00  0.00     0.187 C 
HETATM   31  C12 UNL     1      19.206   2.632  49.204  1.00  0.00     0.143 C 
ENDBRANCH  25  26
ENDBRANCH  24  25
ENDBRANCH   7  24
TORSDOF 5
ENDMDL
MODEL 5
REMARK VINA RESULT:      -7.8      2.875      5.046
REMARK  5 active torsions:
REMARK  status: ('A' for Active; 'I' for Inactive)
REMARK    1  A    between atoms: C6_7  and  C7_8 
REMARK    2  A    between atoms: C7_8  and  C8_9 
REMARK    3  A    between atoms: C8_9  and  N1_10 
REMARK    4  A    between atoms: C13_16  and  N2_17 
REMARK    5  A    between atoms: N2_17  and  C14_18 
ROOT
HETATM    1  C1  UNL     1      21.493   1.296  49.502  1.00  0.00     0.050 C 
HETATM    2  C2  UNL     1      22.383   2.331  50.175  1.00  0.00     0.095 C 
HETATM    3  C3  UNL     1      23.429   1.669  51.028  1.00  0.00     0.081 C 
HETATM    4  C4  UNL     1      24.312   2.705  51.617  1.00  0.00    -0.012 C 
HETATM    5  C5  UNL     1      23.692   3.834  52.014  1.00  0.00     0.142 C 
HETATM    6  O1  UNL     1      22.486   4.280  51.490  1.00  0.00    -0.354 OA
HETATM    7  C6  UNL     1      21.602   3.287  51.015  1.00  0.00     0.164 C 
HETATM    8  C13 UNL     1      25.776   2.505  51.787  1.00  0.00     0.235 C 
HETATM    9  N3  UNL     1      26.621   2.870  50.752  1.00  0.00    -0.269 NA
HETATM   10  C20 UNL     1      26.615   3.591  49.724  1.00  0.00     0.273 C 
HETATM   11  N4  UNL     1      25.287   4.080  49.832  1.00  0.00    -0.247 NA
HETATM   12  C21 UNL     1      24.393   3.250  49.336  1.00  0.00     0.249 C 
HETATM   13  O3  UNL     1      23.057   2.985  49.077  1.00  0.00    -0.331 OA
ENDROOT
BRANCH   8  14
HETATM   14  N2  UNL     1      26.014   1.146  52.286  1.00  0.00    -0.364 N 
HETATM   15  H21 UNL     1      25.168   0.543  52.268  1.00  0.00     0.162 HD
BRANCH  14  16
HETATM   16  C14 UNL     1      27.233   0.610  52.767  1.00  0.00     0.031 A 
HETATM   17  C15 UNL     1      28.257   1.364  53.295  1.00  0.00     0.032 A 
HETATM   18  C16 UNL     1      29.426   0.845  53.758  1.00  0.00     0.046 A 
HETATM   19  C17 UNL     1      29.645  -0.526  53.715  1.00  0.00     0.138 A 
HETATM   20  F1  UNL     1      30.759  -1.154  54.144  1.00  0.00    -0.204 F 
HETATM   21  C18 UNL     1      28.625  -1.289  53.187  1.00  0.00     0.074 A 
HETATM   22 CL1  UNL     1      28.776  -3.034  53.075  1.00  0.00    -0.081 Cl
HETATM   23  C19 UNL     1      27.450  -0.732  52.726  1.00  0.00     0.056 A 
ENDBRANCH  14  16
ENDBRANCH   8  14
BRANCH   7  24
HETATM   24  C7  UNL     1      20.422   3.880  50.252  1.00  0.00     0.055 C 
BRANCH  24  25
HETATM   25  C8  UNL     1      19.313   4.097  51.200  1.00  0.00     0.119 C 
BRANCH  25  26
HETATM   26  N1  UNL     1      18.135   3.388  51.025  1.00  0.00    -0.408 N 
HETATM   27  C9  UNL     1      17.004   3.938  50.415  1.00  0.00     0.143 C 
HETATM   28  C10 UNL     1      16.571   3.022  49.278  1.00  0.00     0.187 C 
HETATM   29  O2  UNL     1      17.521   2.050  48.991  1.00  0.00    -0.388 OA
HETATM   30  C11 UNL     1      17.826   1.226  50.056  1.00  0.00     0.187 C 
HETATM   31  C12 UNL     1      18.058   2.014  51.320  1.00  0.00     0.143 C 
ENDBRANCH  25  26
ENDBRANCH  24  25
ENDBRANCH   7  24
TORSDOF 5
ENDMDL
MODEL 6
REMARK VINA RESULT:      -7.7      2.471      3.922
REMARK  5 active torsions:
REMARK  status: ('A' for Active; 'I' for Inactive)
REMARK    1  A    between atoms: C6_7  and  C7_8 
REMARK    2  A    between atoms: C7_8  and  C8_9 
REMARK    3  A    between atoms: C8_9  and  N1_10 
REMARK    4  A    between atoms: C13_16  and  N2_17 
REMARK    5  A    between atoms: N2_17  and  C14_18 
ROOT
HETATM    1  C1  UNL     1      21.475   5.168  51.569  1.00  0.00     0.050 C 
HETATM    2  C2  UNL     1      21.446   3.656  51.398  1.00  0.00     0.095 C 
HETATM    3  C3  UNL     1      22.707   3.030  51.923  1.00  0.00     0.081 C 
HETATM    4  C4  UNL     1      22.616   1.555  51.795  1.00  0.00    -0.012 C 
HETATM    5  C5  UNL     1      22.025   1.109  50.667  1.00  0.00     0.142 C 
HETATM    6  O1  UNL     1      21.112   1.849  49.928  1.00  0.00    -0.354 OA
HETATM    7  C6  UNL     1      21.256   3.253  49.973  1.00  0.00     0.164 C 
HETATM    8  C13 UNL     1      23.162   0.627  52.820  1.00  0.00     0.235 C 
HETATM    9  N3  UNL     1      22.344   0.239  53.868  1.00  0.00    -0.269 NA
HETATM   10  C20 UNL     1      21.124   0.196  54.161  1.00  0.00     0.273 C 
HETATM   11  N4  UNL     1      20.610   0.742  52.954  1.00  0.00    -0.247 NA
HETATM   12  C21 UNL     1      20.630   2.058  52.938  1.00  0.00     0.249 C 
HETATM   13  O3  UNL     1      20.355   3.226  52.242  1.00  0.00    -0.331 OA
ENDROOT
BRANCH   8  14
HETATM   14  N2  UNL     1      24.474   1.121  53.254  1.00  0.00    -0.364 N 
HETATM   15  H21 UNL     1      24.455   2.099  53.605  1.00  0.00     0.162 HD
BRANCH  14  16
HETATM   16  C14 UNL     1      25.703   0.418  53.237  1.00  0.00     0.031 A 
HETATM   17  C15 UNL     1      25.859  -0.861  52.751  1.00  0.00     0.032 A 
HETATM   18  C16 UNL     1      27.042  -1.532  52.734  1.00  0.00     0.046 A 
HETATM   19  C17 UNL     1      28.192  -0.929  53.229  1.00  0.00     0.138 A 
HETATM   20  F1  UNL     1      29.417  -1.492  53.264  1.00  0.00    -0.204 F 
HETATM   21  C18 UNL     1      28.045   0.352  53.718  1.00  0.00     0.074 A 
HETATM   22 CL1  UNL     1      29.420   1.225  54.374  1.00  0.00    -0.081 Cl
HETATM   23  C19 UNL     1      26.830   1.006  53.721  1.00  0.00     0.056 A 
ENDBRANCH  14  16
ENDBRANCH   8  14
BRANCH   7  24
HETATM   24  C7  UNL     1      20.078   3.976  49.330  1.00  0.00     0.055 C 
BRANCH  24  25
HETATM   25  C8  UNL     1      19.122   2.968  48.836  1.00  0.00     0.119 C 
BRANCH  25  26
HETATM   26  N1  UNL     1      17.883   2.864  49.448  1.00  0.00    -0.408 N 
HETATM   27  C9  UNL     1      17.458   1.705  50.104  1.00  0.00     0.143 C 
HETATM   28  C10 UNL     1      17.028   2.077  51.517  1.00  0.00     0.187 C 
HETATM   29  O2  UNL     1      17.394   3.374  51.856  1.00  0.00    -0.388 OA
HETATM   30  C11 UNL     1      16.870   4.344  51.026  1.00  0.00     0.187 C 
HETATM   31  C12 UNL     1      17.034   3.979  49.572  1.00  0.00     0.143 C 
ENDBRANCH  25  26
ENDBRANCH  24  25
ENDBRANCH   7  24
TORSDOF 5
ENDMDL
MODEL 7
REMARK VINA RESULT:      -7.7      3.524      7.493
REMARK  5 active torsions:
REMARK  status: ('A' for Active; 'I' for Inactive)
REMARK    1  A    between atoms: C6_7  and  C7_8 
REMARK    2  A    between atoms: C7_8  and  C8_9 
REMARK    3  A    between atoms: C8_9  and  N1_10 
REMARK    4  A    between atoms: C13_16  and  N2_17 
REMARK    5  A    between atoms: N2_17  and  C14_18 
ROOT
HETATM    1  C1  UNL     1      22.028   2.180  48.801  1.00  0.00     0.050 C 
HETATM    2  C2  UNL     1      22.936   2.787  49.861  1.00  0.00     0.095 C 
HETATM    3  C3  UNL     1      24.162   3.394  49.237  1.00  0.00     0.081 C 
HETATM    4  C4  UNL     1      24.989   4.027  50.292  1.00  0.00    -0.012 C 
HETATM    5  C5  UNL     1      25.054   3.352  51.458  1.00  0.00     0.142 C 
HETATM    6  O1  UNL     1      24.081   2.461  51.891  1.00  0.00    -0.354 OA
HETATM    7  C6  UNL     1      23.355   1.786  50.886  1.00  0.00     0.164 C 
HETATM    8  C13 UNL     1      25.724   5.302  50.076  1.00  0.00     0.235 C 
HETATM    9  N3  UNL     1      25.078   6.496  50.354  1.00  0.00    -0.269 NA
HETATM   10  C20 UNL     1      24.091   6.918  51.004  1.00  0.00     0.273 C 
HETATM   11  N4  UNL     1      23.649   5.673  51.526  1.00  0.00    -0.247 NA
HETATM   12  C21 UNL     1      22.892   5.004  50.682  1.00  0.00     0.249 C 
HETATM   13  O3  UNL     1      22.151   3.860  50.426  1.00  0.00    -0.331 OA
ENDROOT
BRANCH   8  14
HETATM   14  N2  UNL     1      26.349   5.269  48.749  1.00  0.00    -0.364 N 
HETATM   15  H21 UNL     1      25.854   4.655  48.071  1.00  0.00     0.162 HD
BRANCH  14  16
HETATM   16  C14 UNL     1      27.509   5.964  48.331  1.00  0.00     0.031 A 
HETATM   17  C15 UNL     1      27.527   7.287  47.952  1.00  0.00     0.032 A 
HETATM   18  C16 UNL     1      28.645   7.952  47.552  1.00  0.00     0.046 A 
HETATM   19  C17 UNL     1      29.868   7.294  47.508  1.00  0.00     0.138 A 
HETATM   20  F1  UNL     1      31.039   7.846  47.131  1.00  0.00    -0.204 F 
HETATM   21  C18 UNL     1      29.859   5.968  47.886  1.00  0.00     0.074 A 
HETATM   22 CL1  UNL     1      31.339   5.023  47.873  1.00  0.00    -0.081 Cl
HETATM   23  C19 UNL     1      28.708   5.322  48.286  1.00  0.00     0.056 A 
ENDBRANCH  14  16
ENDBRANCH   8  14
BRANCH   7  24
HETATM   24  C7  UNL     1      22.164   1.018  51.450  1.00  0.00     0.055 C 
BRANCH  24  25
HETATM   25  C8  UNL     1      22.377   0.818  52.896  1.00  0.00     0.119 C 
BRANCH  25  26
HETATM   26  N1  UNL     1      22.855  -0.404  53.339  1.00  0.00    -0.408 N 
HETATM   27  C9  UNL     1      24.137  -0.567  53.873  1.00  0.00     0.143 C 
HETATM   28  C10 UNL     1      24.014  -1.231  55.238  1.00  0.00     0.187 C 
HETATM   29  O2  UNL     1      22.700  -1.269  55.690  1.00  0.00    -0.388 OA
HETATM   30  C11 UNL     1      21.834  -1.944  54.854  1.00  0.00     0.187 C 
HETATM   31  C12 UNL     1      22.017  -1.532  53.415  1.00  0.00     0.143 C 
ENDBRANCH  25  26
ENDBRANCH  24  25
ENDBRANCH   7  24
TORSDOF 5
ENDMDL
MODEL 8
REMARK VINA RESULT:      -7.7      3.532      5.034
REMARK  5 active torsions:
REMARK  status: ('A' for Active; 'I' for Inactive)
REMARK    1  A    between atoms: C6_7  and  C7_8 
REMARK    2  A    between atoms: C7_8  and  C8_9 
REMARK    3  A    between atoms: C8_9  and  N1_10 
REMARK    4  A    between atoms: C13_16  and  N2_17 
REMARK    5  A    between atoms: N2_17  and  C14_18 
ROOT
HETATM    1  C1  UNL     1      22.440   5.408  47.635  1.00  0.00     0.050 C 
HETATM    2  C2  UNL     1      23.129   5.292  48.987  1.00  0.00     0.095 C 
HETATM    3  C3  UNL     1      22.811   3.977  49.643  1.00  0.00     0.081 C 
HETATM    4  C4  UNL     1      23.548   3.876  50.926  1.00  0.00    -0.012 C 
HETATM    5  C5  UNL     1      23.625   5.018  51.639  1.00  0.00     0.142 C 
HETATM    6  O1  UNL     1      23.533   6.287  51.081  1.00  0.00    -0.354 OA
HETATM    7  C6  UNL     1      22.753   6.403  49.910  1.00  0.00     0.164 C 
HETATM    8  C13 UNL     1      24.136   2.600  51.412  1.00  0.00     0.235 C 
HETATM    9  N3  UNL     1      25.433   2.284  51.043  1.00  0.00    -0.269 NA
HETATM   10  C20 UNL     1      26.464   2.848  50.603  1.00  0.00     0.273 C 
HETATM   11  N4  UNL     1      25.952   4.170  50.531  1.00  0.00    -0.247 NA
HETATM   12  C21 UNL     1      25.274   4.398  49.426  1.00  0.00     0.249 C 
HETATM   13  O3  UNL     1      24.538   5.295  48.666  1.00  0.00    -0.331 OA
ENDROOT
BRANCH   8  14
HETATM   14  N2  UNL     1      23.178   1.515  51.173  1.00  0.00    -0.364 N 
HETATM   15  H21 UNL     1      22.901   1.418  50.175  1.00  0.00     0.162 HD
BRANCH  14  16
HETATM   16  C14 UNL     1      22.623   0.634  52.131  1.00  0.00     0.031 A 
HETATM   17  C15 UNL     1      23.357  -0.041  53.082  1.00  0.00     0.032 A 
HETATM   18  C16 UNL     1      22.821  -0.885  54.003  1.00  0.00     0.046 A 
HETATM   19  C17 UNL     1      21.450  -1.113  54.024  1.00  0.00     0.138 A 
HETATM   20  F1  UNL     1      20.806  -1.925  54.887  1.00  0.00    -0.204 F 
HETATM   21  C18 UNL     1      20.707  -0.442  53.076  1.00  0.00     0.074 A 
HETATM   22 CL1  UNL     1      18.965  -0.644  52.994  1.00  0.00    -0.081 Cl
HETATM   23  C19 UNL     1      21.282   0.408  52.154  1.00  0.00     0.056 A 
ENDBRANCH  14  16
ENDBRANCH   8  14
BRANCH   7  24
HETATM   24  C7  UNL     1      22.904   7.768  49.248  1.00  0.00     0.055 C 
BRANCH  24  25
HETATM   25  C8  UNL     1      23.987   8.502  49.929  1.00  0.00     0.119 C 
BRANCH  25  26
HETATM   26  N1  UNL     1      25.219   8.609  49.305  1.00  0.00    -0.408 N 
HETATM   27  C9  UNL     1      25.414   9.354  48.137  1.00  0.00     0.143 C 
HETATM   28  C10 UNL     1      26.551  10.339  48.375  1.00  0.00     0.187 C 
HETATM   29  O2  UNL     1      26.915  10.414  49.714  1.00  0.00    -0.388 OA
HETATM   30  C11 UNL     1      27.326   9.214  50.256  1.00  0.00     0.187 C 
HETATM   31  C12 UNL     1      26.385   8.091  49.897  1.00  0.00     0.143 C 
ENDBRANCH  25  26
ENDBRANCH  24  25
ENDBRANCH   7  24
TORSDOF 5
ENDMDL
MODEL 9
REMARK VINA RESULT:      -7.7      4.470      7.427
REMARK  5 active torsions:
REMARK  status: ('A' for Active; 'I' for Inactive)
REMARK    1  A    between atoms: C6_7  and  C7_8 
REMARK    2  A    between atoms: C7_8  and  C8_9 
REMARK    3  A    between atoms: C8_9  and  N1_10 
REMARK    4  A    between atoms: C13_16  and  N2_17 
REMARK    5  A    between atoms: N2_17  and  C14_18 
ROOT
HETATM    1  C1  UNL     1      22.763   4.539  52.913  1.00  0.00     0.050 C 
HETATM    2  C2  UNL     1      22.741   3.211  52.172  1.00  0.00     0.095 C 
HETATM    3  C3  UNL     1      21.338   2.683  52.053  1.00  0.00     0.081 C 
HETATM    4  C4  UNL     1      21.351   1.421  51.274  1.00  0.00    -0.012 C 
HETATM    5  C5  UNL     1      22.393   0.601  51.520  1.00  0.00     0.142 C 
HETATM    6  O1  UNL     1      23.618   1.033  52.012  1.00  0.00    -0.354 OA
HETATM    7  C6  UNL     1      23.596   2.181  52.833  1.00  0.00     0.164 C 
HETATM    8  C13 UNL     1      20.277   1.066  50.309  1.00  0.00     0.235 C 
HETATM    9  N3  UNL     1      20.406   1.473  48.992  1.00  0.00    -0.269 NA
HETATM   10  C20 UNL     1      21.295   1.865  48.197  1.00  0.00     0.273 C 
HETATM   11  N4  UNL     1      22.399   1.804  49.087  1.00  0.00    -0.247 NA
HETATM   12  C21 UNL     1      22.508   2.876  49.843  1.00  0.00     0.249 C 
HETATM   13  O3  UNL     1      23.203   3.540  50.843  1.00  0.00    -0.331 OA
ENDROOT
BRANCH   8  14
HETATM   14  N2  UNL     1      18.978   1.403  50.902  1.00  0.00    -0.364 N 
HETATM   15  H21 UNL     1      18.817   2.425  50.999  1.00  0.00     0.162 HD
BRANCH  14  16
HETATM   16  C14 UNL     1      17.974   0.503  51.334  1.00  0.00     0.031 A 
HETATM   17  C15 UNL     1      16.661   0.548  50.920  1.00  0.00     0.032 A 
HETATM   18  C16 UNL     1      15.699  -0.320  51.335  1.00  0.00     0.046 A 
HETATM   19  C17 UNL     1      16.015  -1.331  52.234  1.00  0.00     0.138 A 
HETATM   20  F1  UNL     1      15.150  -2.247  52.715  1.00  0.00    -0.204 F 
HETATM   21  C18 UNL     1      17.327  -1.383  52.655  1.00  0.00     0.074 A 
HETATM   22 CL1  UNL     1      17.856  -2.612  53.792  1.00  0.00    -0.081 Cl
HETATM   23  C19 UNL     1      18.279  -0.488  52.215  1.00  0.00     0.056 A 
ENDBRANCH  14  16
ENDBRANCH   8  14
BRANCH   7  24
HETATM   24  C7  UNL     1      24.997   2.708  53.126  1.00  0.00     0.055 C 
BRANCH  24  25
HETATM   25  C8  UNL     1      25.939   2.091  52.175  1.00  0.00     0.119 C 
BRANCH  25  26
HETATM   26  N1  UNL     1      26.826   1.132  52.638  1.00  0.00    -0.408 N 
HETATM   27  C9  UNL     1      27.651   1.338  53.749  1.00  0.00     0.143 C 
HETATM   28  C10 UNL     1      27.434   0.196  54.732  1.00  0.00     0.187 C 
HETATM   29  O2  UNL     1      26.334  -0.586  54.400  1.00  0.00    -0.388 OA
HETATM   30  C11 UNL     1      26.408  -1.164  53.150  1.00  0.00     0.187 C 
HETATM   31  C12 UNL     1      26.841  -0.169  52.103  1.00  0.00     0.143 C 
ENDBRANCH  25  26
ENDBRANCH  24  25
ENDBRANCH   7  24
TORSDOF 5
ENDMDL
