MODEL 1
REMARK VINA RESULT:      -9.9      0.000      0.000
REMARK  0 active torsions:
REMARK  status: ('A' for Active; 'I' for Inactive)
ROOT
HETATM    1  O1  UNL     1      24.203   0.356  52.498  1.00  0.00    -0.143 OA
HETATM    2  C1  UNL     1      25.328   0.056  52.956  1.00  0.00     0.380 A 
HETATM    3  C2  UNL     1      26.689  -0.239  53.446  1.00  0.00     0.249 C 
HETATM    4  O2  UNL     1      27.666   0.513  52.900  1.00  0.00    -0.382 OA
HETATM    5  C3  UNL     1      27.514   1.889  52.928  1.00  0.00     0.195 C 
HETATM    6  C4  UNL     1      26.449   2.288  51.925  1.00  0.00    -0.001 C 
HETATM    7  C5  UNL     1      26.758   3.104  50.944  1.00  0.00    -0.002 C 
HETATM    8  C6  UNL     1      26.659   3.930  49.765  1.00  0.00    -0.000 C 
HETATM    9  C7  UNL     1      25.643   4.138  48.991  1.00  0.00    -0.000 C 
HETATM   10  C8  UNL     1      24.417   3.492  49.280  1.00  0.00    -0.003 C 
HETATM   11  C9  UNL     1      23.197   3.396  48.804  1.00  0.00    -0.017 C 
HETATM   12  C10 UNL     1      21.844   3.233  48.358  1.00  0.00     0.041 C 
HETATM   13  C11 UNL     1      20.805   2.572  48.760  1.00  0.00    -0.019 C 
HETATM   14  C12 UNL     1      19.856   1.726  49.469  1.00  0.00    -0.002 C 
HETATM   15  C13 UNL     1      19.361   0.920  50.359  1.00  0.00     0.140 C 
HETATM   16  N1  UNL     1      19.662   0.188  51.570  1.00  0.00    -0.327 N 
HETATM   17  C14 UNL     1      18.257  -0.028  51.876  1.00  0.00     0.233 A 
HETATM   18  N2  UNL     1      17.658  -0.648  52.880  1.00  0.00    -0.169 NA
HETATM   19  N3  UNL     1      18.545  -1.188  53.811  1.00  0.00    -0.275 N 
HETATM   20  C15 UNL     1      19.937  -1.017  53.581  1.00  0.00     0.077 A 
HETATM   21  C16 UNL     1      20.813  -1.524  54.517  1.00  0.00     0.036 A 
HETATM   22  C17 UNL     1      22.174  -1.382  54.387  1.00  0.00     0.043 A 
HETATM   23  C18 UNL     1      22.803  -0.723  53.317  1.00  0.00     0.172 A 
HETATM   24  C19 UNL     1      21.917  -0.225  52.393  1.00  0.00     0.072 A 
HETATM   25  C20 UNL     1      20.561  -0.378  52.544  1.00  0.00     0.066 A 
HETATM   26  N4  UNL     1      24.204  -0.702  53.485  1.00  0.00     0.121 N 
HETATM   27  H16 UNL     1      18.189  -1.699  54.646  1.00  0.00     0.189 HD
HETATM   28  H20 UNL     1      24.634  -1.421  54.156  1.00  0.00     0.329 HD
ENDROOT
TORSDOF 0
ENDMDL
MODEL 2
REMARK VINA RESULT:      -9.7      2.596      5.607
REMARK  0 active torsions:
REMARK  status: ('A' for Active; 'I' for Inactive)
ROOT
HETATM    1  O1  UNL     1      25.435   3.286  50.629  1.00  0.00    -0.143 OA
HETATM    2  C1  UNL     1      26.132   4.084  49.963  1.00  0.00     0.380 A 
HETATM    3  C2  UNL     1      26.883   5.049  49.136  1.00  0.00     0.249 C 
HETATM    4  O2  UNL     1      26.136   5.756  48.265  1.00  0.00    -0.382 OA
HETATM    5  C3  UNL     1      25.025   6.421  48.757  1.00  0.00     0.195 C 
HETATM    6  C4  UNL     1      23.946   5.406  49.082  1.00  0.00    -0.001 C 
HETATM    7  C5  UNL     1      22.783   5.485  48.480  1.00  0.00    -0.002 C 
HETATM    8  C6  UNL     1      21.426   5.204  48.074  1.00  0.00    -0.000 C 
HETATM    9  C7  UNL     1      20.640   4.246  48.447  1.00  0.00    -0.000 C 
HETATM   10  C8  UNL     1      21.113   3.297  49.386  1.00  0.00    -0.003 C 
HETATM   11  C9  UNL     1      20.705   2.215  50.010  1.00  0.00    -0.017 C 
HETATM   12  C10 UNL     1      20.347   1.032  50.736  1.00  0.00     0.041 C 
HETATM   13  C11 UNL     1      20.929   0.255  51.594  1.00  0.00    -0.019 C 
HETATM   14  C12 UNL     1      21.850  -0.393  52.515  1.00  0.00    -0.002 C 
HETATM   15  C13 UNL     1      22.923  -0.634  53.209  1.00  0.00     0.140 C 
HETATM   16  N1  UNL     1      24.256  -0.157  53.503  1.00  0.00    -0.327 N 
HETATM   17  C14 UNL     1      24.363  -0.976  54.699  1.00  0.00     0.233 A 
HETATM   18  N2  UNL     1      25.334  -1.117  55.588  1.00  0.00    -0.169 NA
HETATM   19  N3  UNL     1      26.455  -0.331  55.319  1.00  0.00    -0.275 N 
HETATM   20  C15 UNL     1      26.425   0.499  54.166  1.00  0.00     0.077 A 
HETATM   21  C16 UNL     1      27.519   1.299  53.918  1.00  0.00     0.036 A 
HETATM   22  C17 UNL     1      27.564   2.151  52.839  1.00  0.00     0.043 A 
HETATM   23  C18 UNL     1      26.529   2.294  51.900  1.00  0.00     0.172 A 
HETATM   24  C19 UNL     1      25.447   1.489  52.160  1.00  0.00     0.072 A 
HETATM   25  C20 UNL     1      25.424   0.647  53.245  1.00  0.00     0.066 A 
HETATM   26  N4  UNL     1      26.850   3.273  50.935  1.00  0.00     0.121 N 
HETATM   27  H16 UNL     1      27.283  -0.357  55.951  1.00  0.00     0.189 HD
HETATM   28  H20 UNL     1      27.884   3.531  50.816  1.00  0.00     0.329 HD
ENDROOT
TORSDOF 0
ENDMDL
MODEL 3
REMARK VINA RESULT:      -9.4      2.844      7.596
REMARK  0 active torsions:
REMARK  status: ('A' for Active; 'I' for Inactive)
ROOT
HETATM    1  O1  UNL     1      22.307   1.909  50.201  1.00  0.00    -0.143 OA
HETATM    2  C1  UNL     1      21.813   2.340  49.135  1.00  0.00     0.380 A 
HETATM    3  C2  UNL     1      21.155   2.816  47.903  1.00  0.00     0.249 C 
HETATM    4  O2  UNL     1      19.838   2.543  47.818  1.00  0.00    -0.382 OA
HETATM    5  C3  UNL     1      19.030   2.917  48.879  1.00  0.00     0.195 C 
HETATM    6  C4  UNL     1      19.295   1.992  50.051  1.00  0.00    -0.001 C 
HETATM    7  C5  UNL     1      18.310   1.276  50.543  1.00  0.00    -0.002 C 
HETATM    8  C6  UNL     1      17.564   0.348  51.359  1.00  0.00    -0.000 C 
HETATM    9  C7  UNL     1      17.972  -0.404  52.330  1.00  0.00    -0.000 C 
HETATM   10  C8  UNL     1      19.338  -0.365  52.700  1.00  0.00    -0.003 C 
HETATM   11  C9  UNL     1      20.160  -0.922  53.560  1.00  0.00    -0.017 C 
HETATM   12  C10 UNL     1      21.129  -1.474  54.461  1.00  0.00     0.041 C 
HETATM   13  C11 UNL     1      22.398  -1.319  54.673  1.00  0.00    -0.019 C 
HETATM   14  C12 UNL     1      23.794  -0.911  54.648  1.00  0.00    -0.002 C 
HETATM   15  C13 UNL     1      24.884  -0.291  54.306  1.00  0.00     0.140 C 
HETATM   16  N1  UNL     1      25.430   0.704  53.410  1.00  0.00    -0.327 N 
HETATM   17  C14 UNL     1      26.639   0.859  54.204  1.00  0.00     0.233 A 
HETATM   18  N2  UNL     1      27.703   1.631  54.048  1.00  0.00    -0.169 NA
HETATM   19  N3  UNL     1      27.644   2.440  52.913  1.00  0.00    -0.275 N 
HETATM   20  C15 UNL     1      26.492   2.346  52.087  1.00  0.00     0.077 A 
HETATM   21  C16 UNL     1      26.420   3.168  50.983  1.00  0.00     0.036 A 
HETATM   22  C17 UNL     1      25.330   3.160  50.144  1.00  0.00     0.043 A 
HETATM   23  C18 UNL     1      24.205   2.337  50.316  1.00  0.00     0.172 A 
HETATM   24  C19 UNL     1      24.293   1.523  51.419  1.00  0.00     0.072 A 
HETATM   25  C20 UNL     1      25.391   1.549  52.243  1.00  0.00     0.066 A 
HETATM   26  N4  UNL     1      23.235   2.587  49.321  1.00  0.00     0.121 N 
HETATM   27  H16 UNL     1      28.425   3.092  52.687  1.00  0.00     0.189 HD
HETATM   28  H20 UNL     1      23.561   3.073  48.422  1.00  0.00     0.329 HD
ENDROOT
TORSDOF 0
ENDMDL
MODEL 4
REMARK VINA RESULT:      -9.3      3.113      7.876
REMARK  0 active torsions:
REMARK  status: ('A' for Active; 'I' for Inactive)
ROOT
HETATM    1  O1  UNL     1      21.221   1.712  50.487  1.00  0.00    -0.143 OA
HETATM    2  C1  UNL     1      20.031   1.392  50.270  1.00  0.00     0.380 A 
HETATM    3  C2  UNL     1      18.633   0.959  50.078  1.00  0.00     0.249 C 
HETATM    4  O2  UNL     1      18.206   0.014  50.939  1.00  0.00    -0.382 OA
HETATM    5  C3  UNL     1      18.375   0.250  52.293  1.00  0.00     0.195 C 
HETATM    6  C4  UNL     1      19.845   0.106  52.639  1.00  0.00    -0.001 C 
HETATM    7  C5  UNL     1      20.215  -0.791  53.523  1.00  0.00    -0.002 C 
HETATM    8  C6  UNL     1      21.032  -1.606  54.390  1.00  0.00    -0.000 C 
HETATM    9  C7  UNL     1      22.318  -1.612  54.540  1.00  0.00    -0.000 C 
HETATM   10  C8  UNL     1      23.102  -0.716  53.773  1.00  0.00    -0.003 C 
HETATM   11  C9  UNL     1      24.361  -0.391  53.589  1.00  0.00    -0.017 C 
HETATM   12  C10 UNL     1      25.705   0.031  53.323  1.00  0.00     0.041 C 
HETATM   13  C11 UNL     1      26.271   0.905  52.553  1.00  0.00    -0.019 C 
HETATM   14  C12 UNL     1      26.575   1.956  51.593  1.00  0.00    -0.002 C 
HETATM   15  C13 UNL     1      26.407   2.890  50.706  1.00  0.00     0.140 C 
HETATM   16  N1  UNL     1      25.414   3.620  49.950  1.00  0.00    -0.327 N 
HETATM   17  C14 UNL     1      26.352   4.672  49.594  1.00  0.00     0.233 A 
HETATM   18  N2  UNL     1      26.210   5.776  48.877  1.00  0.00    -0.169 NA
HETATM   19  N3  UNL     1      24.919   5.953  48.377  1.00  0.00    -0.275 N 
HETATM   20  C15 UNL     1      23.945   4.966  48.684  1.00  0.00     0.077 A 
HETATM   21  C16 UNL     1      22.662   5.158  48.216  1.00  0.00     0.036 A 
HETATM   22  C17 UNL     1      21.651   4.266  48.488  1.00  0.00     0.043 A 
HETATM   23  C18 UNL     1      21.811   3.096  49.249  1.00  0.00     0.172 A 
HETATM   24  C19 UNL     1      23.094   2.919  49.706  1.00  0.00     0.072 A 
HETATM   25  C20 UNL     1      24.088   3.824  49.423  1.00  0.00     0.066 A 
HETATM   26  N4  UNL     1      20.586   2.409  49.389  1.00  0.00     0.121 N 
HETATM   27  H16 UNL     1      24.687   6.788  47.798  1.00  0.00     0.189 HD
HETATM   28  H20 UNL     1      19.809   2.631  48.683  1.00  0.00     0.329 HD
ENDROOT
TORSDOF 0
ENDMDL
MODEL 5
REMARK VINA RESULT:      -9.2      3.445      6.574
REMARK  0 active torsions:
REMARK  status: ('A' for Active; 'I' for Inactive)
ROOT
HETATM    1  O1  UNL     1      25.277   2.662  51.650  1.00  0.00    -0.143 OA
HETATM    2  C1  UNL     1      26.305   2.120  52.116  1.00  0.00     0.380 A 
HETATM    3  C2  UNL     1      27.467   1.428  52.706  1.00  0.00     0.249 C 
HETATM    4  O2  UNL     1      27.163   0.385  53.504  1.00  0.00    -0.382 OA
HETATM    5  C3  UNL     1      26.322  -0.592  52.999  1.00  0.00     0.195 C 
HETATM    6  C4  UNL     1      24.910  -0.043  52.936  1.00  0.00    -0.001 C 
HETATM    7  C5  UNL     1      23.954  -0.641  53.608  1.00  0.00    -0.002 C 
HETATM    8  C6  UNL     1      22.660  -0.960  54.163  1.00  0.00    -0.000 C 
HETATM    9  C7  UNL     1      21.531  -0.344  54.020  1.00  0.00    -0.000 C 
HETATM   10  C8  UNL     1      21.483   0.823  53.218  1.00  0.00    -0.003 C 
HETATM   11  C9  UNL     1      20.622   1.730  52.819  1.00  0.00    -0.017 C 
HETATM   12  C10 UNL     1      19.754   2.762  52.331  1.00  0.00     0.041 C 
HETATM   13  C11 UNL     1      19.882   3.803  51.571  1.00  0.00    -0.019 C 
HETATM   14  C12 UNL     1      20.359   4.866  50.700  1.00  0.00    -0.002 C 
HETATM   15  C13 UNL     1      21.159   5.587  49.973  1.00  0.00     0.140 C 
HETATM   16  N1  UNL     1      22.519   5.705  49.497  1.00  0.00    -0.327 N 
HETATM   17  C14 UNL     1      22.149   6.643  48.449  1.00  0.00     0.233 A 
HETATM   18  N2  UNL     1      22.865   7.258  47.522  1.00  0.00    -0.169 NA
HETATM   19  N3  UNL     1      24.223   6.941  47.564  1.00  0.00    -0.275 N 
HETATM   20  C15 UNL     1      24.663   6.029  48.561  1.00  0.00     0.077 A 
HETATM   21  C16 UNL     1      25.999   5.691  48.583  1.00  0.00     0.036 A 
HETATM   22  C17 UNL     1      26.505   4.797  49.497  1.00  0.00     0.043 A 
HETATM   23  C18 UNL     1      25.738   4.149  50.479  1.00  0.00     0.172 A 
HETATM   24  C19 UNL     1      24.409   4.497  50.445  1.00  0.00     0.072 A 
HETATM   25  C20 UNL     1      23.926   5.392  49.522  1.00  0.00     0.066 A 
HETATM   26  N4  UNL     1      26.529   3.260  51.238  1.00  0.00     0.121 N 
HETATM   27  H16 UNL     1      24.886   7.364  46.881  1.00  0.00     0.189 HD
HETATM   28  H20 UNL     1      27.591   3.410  51.229  1.00  0.00     0.329 HD
ENDROOT
TORSDOF 0
ENDMDL
MODEL 6
REMARK VINA RESULT:      -9.2      2.223      6.024
REMARK  0 active torsions:
REMARK  status: ('A' for Active; 'I' for Inactive)
ROOT
HETATM    1  O1  UNL     1      21.362   2.106  51.715  1.00  0.00    -0.143 OA
HETATM    2  C1  UNL     1      20.118   2.227  51.760  1.00  0.00     0.380 A 
HETATM    3  C2  UNL     1      18.654   2.422  51.747  1.00  0.00     0.249 C 
HETATM    4  O2  UNL     1      18.196   3.225  50.766  1.00  0.00    -0.382 OA
HETATM    5  C3  UNL     1      18.580   2.941  49.466  1.00  0.00     0.195 C 
HETATM    6  C4  UNL     1      20.038   3.316  49.289  1.00  0.00    -0.001 C 
HETATM    7  C5  UNL     1      20.370   4.208  48.385  1.00  0.00    -0.002 C 
HETATM    8  C6  UNL     1      21.150   5.099  47.559  1.00  0.00    -0.000 C 
HETATM    9  C7  UNL     1      22.426   5.319  47.565  1.00  0.00    -0.000 C 
HETATM   10  C8  UNL     1      23.238   4.621  48.492  1.00  0.00    -0.003 C 
HETATM   11  C9  UNL     1      24.497   4.531  48.853  1.00  0.00    -0.017 C 
HETATM   12  C10 UNL     1      25.845   4.365  49.311  1.00  0.00     0.041 C 
HETATM   13  C11 UNL     1      26.440   3.650  50.213  1.00  0.00    -0.019 C 
HETATM   14  C12 UNL     1      26.782   2.728  51.285  1.00  0.00    -0.002 C 
HETATM   15  C13 UNL     1      26.654   1.834  52.220  1.00  0.00     0.140 C 
HETATM   16  N1  UNL     1      25.703   0.989  52.907  1.00  0.00    -0.327 N 
HETATM   17  C14 UNL     1      26.745   0.139  53.459  1.00  0.00     0.233 A 
HETATM   18  N2  UNL     1      26.693  -0.927  54.241  1.00  0.00    -0.169 NA
HETATM   19  N3  UNL     1      25.394  -1.296  54.595  1.00  0.00    -0.275 N 
HETATM   20  C15 UNL     1      24.320  -0.513  54.093  1.00  0.00     0.077 A 
HETATM   21  C16 UNL     1      23.036  -0.895  54.417  1.00  0.00     0.036 A 
HETATM   22  C17 UNL     1      21.937  -0.210  53.954  1.00  0.00     0.043 A 
HETATM   23  C18 UNL     1      22.002   0.922  53.124  1.00  0.00     0.172 A 
HETATM   24  C19 UNL     1      23.288   1.291  52.812  1.00  0.00     0.072 A 
HETATM   25  C20 UNL     1      24.370   0.591  53.285  1.00  0.00     0.066 A 
HETATM   26  N4  UNL     1      20.710   1.376  52.782  1.00  0.00     0.121 N 
HETATM   27  H16 UNL     1      25.227  -2.121  55.208  1.00  0.00     0.189 HD
HETATM   28  H20 UNL     1      19.894   1.066  53.405  1.00  0.00     0.329 HD
ENDROOT
TORSDOF 0
ENDMDL
MODEL 7
REMARK VINA RESULT:      -9.2      1.864      4.809
REMARK  0 active torsions:
REMARK  status: ('A' for Active; 'I' for Inactive)
ROOT
HETATM    1  O1  UNL     1      23.182   2.453  51.052  1.00  0.00    -0.143 OA
HETATM    2  C1  UNL     1      23.832   3.364  50.493  1.00  0.00     0.380 A 
HETATM    3  C2  UNL     1      24.668   4.412  49.874  1.00  0.00     0.249 C 
HETATM    4  O2  UNL     1      25.969   4.383  50.225  1.00  0.00    -0.382 OA
HETATM    5  C3  UNL     1      26.650   3.185  50.084  1.00  0.00     0.195 C 
HETATM    6  C4  UNL     1      26.189   2.225  51.163  1.00  0.00    -0.001 C 
HETATM    7  C5  UNL     1      27.063   1.746  52.017  1.00  0.00    -0.002 C 
HETATM    8  C6  UNL     1      27.649   1.013  53.115  1.00  0.00    -0.000 C 
HETATM    9  C7  UNL     1      27.080   0.238  53.981  1.00  0.00    -0.000 C 
HETATM   10  C8  UNL     1      25.681   0.033  53.904  1.00  0.00    -0.003 C 
HETATM   11  C9  UNL     1      24.727  -0.617  54.530  1.00  0.00    -0.017 C 
HETATM   12  C10 UNL     1      23.622  -1.290  55.148  1.00  0.00     0.041 C 
HETATM   13  C11 UNL     1      22.347  -1.371  54.938  1.00  0.00    -0.019 C 
HETATM   14  C12 UNL     1      20.988  -1.248  54.433  1.00  0.00    -0.002 C 
HETATM   15  C13 UNL     1      19.985  -0.887  53.689  1.00  0.00     0.140 C 
HETATM   16  N1  UNL     1      19.611  -0.112  52.527  1.00  0.00    -0.327 N 
HETATM   17  C14 UNL     1      18.319  -0.769  52.414  1.00  0.00     0.233 A 
HETATM   18  N2  UNL     1      17.325  -0.619  51.553  1.00  0.00    -0.169 NA
HETATM   19  N3  UNL     1      17.572   0.349  50.579  1.00  0.00    -0.275 N 
HETATM   20  C15 UNL     1      18.816   1.035  50.623  1.00  0.00     0.077 A 
HETATM   21  C16 UNL     1      19.073   1.969  49.643  1.00  0.00     0.036 A 
HETATM   22  C17 UNL     1      20.260   2.661  49.595  1.00  0.00     0.043 A 
HETATM   23  C18 UNL     1      21.310   2.496  50.513  1.00  0.00     0.172 A 
HETATM   24  C19 UNL     1      21.038   1.563  51.485  1.00  0.00     0.072 A 
HETATM   25  C20 UNL     1      19.845   0.884  51.512  1.00  0.00     0.066 A 
HETATM   26  N4  UNL     1      22.412   3.312  50.178  1.00  0.00     0.121 N 
HETATM   27  H16 UNL     1      16.862   0.555  49.846  1.00  0.00     0.189 HD
HETATM   28  H20 UNL     1      22.231   4.149  49.532  1.00  0.00     0.329 HD
ENDROOT
TORSDOF 0
ENDMDL
MODEL 8
REMARK VINA RESULT:      -9.2      2.636      5.480
REMARK  0 active torsions:
REMARK  status: ('A' for Active; 'I' for Inactive)
ROOT
HETATM    1  O1  UNL     1      21.814   0.861  52.580  1.00  0.00    -0.143 OA
HETATM    2  C1  UNL     1      21.402  -0.097  53.271  1.00  0.00     0.380 A 
HETATM    3  C2  UNL     1      20.996  -1.249  54.100  1.00  0.00     0.249 C 
HETATM    4  O2  UNL     1      22.014  -1.966  54.615  1.00  0.00    -0.382 OA
HETATM    5  C3  UNL     1      22.994  -1.286  55.318  1.00  0.00     0.195 C 
HETATM    6  C4  UNL     1      23.849  -0.504  54.341  1.00  0.00    -0.001 C 
HETATM    7  C5  UNL     1      25.137  -0.747  54.272  1.00  0.00    -0.002 C 
HETATM    8  C6  UNL     1      26.525  -0.690  53.877  1.00  0.00    -0.000 C 
HETATM    9  C7  UNL     1      27.092   0.043  52.974  1.00  0.00    -0.000 C 
HETATM   10  C8  UNL     1      26.297   0.942  52.222  1.00  0.00    -0.003 C 
HETATM   11  C9  UNL     1      26.421   1.822  51.254  1.00  0.00    -0.017 C 
HETATM   12  C10 UNL     1      26.461   2.800  50.207  1.00  0.00     0.041 C 
HETATM   13  C11 UNL     1      25.599   3.564  49.614  1.00  0.00    -0.019 C 
HETATM   14  C12 UNL     1      24.405   4.269  49.171  1.00  0.00    -0.002 C 
HETATM   15  C13 UNL     1      23.165   4.650  49.094  1.00  0.00     0.140 C 
HETATM   16  N1  UNL     1      21.848   4.464  49.660  1.00  0.00    -0.327 N 
HETATM   17  C14 UNL     1      21.341   5.692  49.070  1.00  0.00     0.233 A 
HETATM   18  N2  UNL     1      20.152   6.271  49.122  1.00  0.00    -0.169 NA
HETATM   19  N3  UNL     1      19.222   5.567  49.887  1.00  0.00    -0.275 N 
HETATM   20  C15 UNL     1      19.643   4.355  50.498  1.00  0.00     0.077 A 
HETATM   21  C16 UNL     1      18.733   3.676  51.278  1.00  0.00     0.036 A 
HETATM   22  C17 UNL     1      19.064   2.509  51.927  1.00  0.00     0.043 A 
HETATM   23  C18 UNL     1      20.329   1.901  51.866  1.00  0.00     0.172 A 
HETATM   24  C19 UNL     1      21.224   2.589  51.083  1.00  0.00     0.072 A 
HETATM   25  C20 UNL     1      20.871   3.753  50.446  1.00  0.00     0.066 A 
HETATM   26  N4  UNL     1      20.375   0.741  52.670  1.00  0.00     0.121 N 
HETATM   27  H16 UNL     1      18.251   5.926  50.001  1.00  0.00     0.189 HD
HETATM   28  H20 UNL     1      19.441   0.286  52.939  1.00  0.00     0.329 HD
ENDROOT
TORSDOF 0
ENDMDL
MODEL 9
REMARK VINA RESULT:      -9.1      2.033      6.240
REMARK  0 active torsions:
REMARK  status: ('A' for Active; 'I' for Inactive)
ROOT
HETATM    1  O1  UNL     1      21.809   0.718  52.369  1.00  0.00    -0.143 OA
HETATM    2  C1  UNL     1      20.633   0.403  52.660  1.00  0.00     0.380 A 
HETATM    3  C2  UNL     1      19.221   0.073  52.933  1.00  0.00     0.249 C 
HETATM    4  O2  UNL     1      18.343   0.519  52.012  1.00  0.00    -0.382 OA
HETATM    5  C3  UNL     1      18.584   0.206  50.685  1.00  0.00     0.195 C 
HETATM    6  C4  UNL     1      19.751   1.036  50.186  1.00  0.00    -0.001 C 
HETATM    7  C5  UNL     1      19.576   1.851  49.172  1.00  0.00    -0.002 C 
HETATM    8  C6  UNL     1      19.824   2.831  48.141  1.00  0.00    -0.000 C 
HETATM    9  C7  UNL     1      20.911   3.479  47.870  1.00  0.00    -0.000 C 
HETATM   10  C8  UNL     1      22.064   3.246  48.658  1.00  0.00    -0.003 C 
HETATM   11  C9  UNL     1      23.309   3.651  48.758  1.00  0.00    -0.017 C 
HETATM   12  C10 UNL     1      24.680   4.032  48.941  1.00  0.00     0.041 C 
HETATM   13  C11 UNL     1      25.636   3.703  49.750  1.00  0.00    -0.019 C 
HETATM   14  C12 UNL     1      26.466   3.119  50.793  1.00  0.00    -0.002 C 
HETATM   15  C13 UNL     1      26.833   2.378  51.795  1.00  0.00     0.140 C 
HETATM   16  N1  UNL     1      26.388   1.362  52.722  1.00  0.00    -0.327 N 
HETATM   17  C14 UNL     1      27.746   1.014  53.108  1.00  0.00     0.233 A 
HETATM   18  N2  UNL     1      28.220   0.118  53.959  1.00  0.00    -0.169 NA
HETATM   19  N3  UNL     1      27.227  -0.625  54.597  1.00  0.00    -0.275 N 
HETATM   20  C15 UNL     1      25.873  -0.344  54.271  1.00  0.00     0.077 A 
HETATM   21  C16 UNL     1      24.893  -1.099  54.879  1.00  0.00     0.036 A 
HETATM   22  C17 UNL     1      23.559  -0.912  54.603  1.00  0.00     0.043 A 
HETATM   23  C18 UNL     1      23.064   0.042  53.698  1.00  0.00     0.172 A 
HETATM   24  C19 UNL     1      24.052   0.788  53.103  1.00  0.00     0.072 A 
HETATM   25  C20 UNL     1      25.378   0.582  53.393  1.00  0.00     0.066 A 
HETATM   26  N4  UNL     1      21.658  -0.035  53.597  1.00  0.00     0.121 N 
HETATM   27  H16 UNL     1      27.480  -1.362  55.289  1.00  0.00     0.189 HD
HETATM   28  H20 UNL     1      21.128  -0.518  54.395  1.00  0.00     0.329 HD
ENDROOT
TORSDOF 0
ENDMDL
