MODEL 1
REMARK VINA RESULT:      -7.5      0.000      0.000
REMARK  4 active torsions:
REMARK  status: ('A' for Active; 'I' for Inactive)
REMARK    1  A    between atoms: C6_7  and  C7_8 
REMARK    2  A    between atoms: C7_8  and  C8_9 
REMARK    3  A    between atoms: C8_9  and  O1_10 
REMARK    4  A    between atoms: O1_10  and  C9_11 
ROOT
HETATM    1  C9  UNL     1      25.504   1.476  52.472  1.00  0.00     0.102 A 
HETATM    2  C10 UNL     1      25.120   0.602  53.378  1.00  0.00     0.133 A 
HETATM    3  O2  UNL     1      23.773   0.326  53.220  1.00  0.00    -0.344 OA
HETATM    4  C11 UNL     1      23.206  -0.832  53.820  1.00  0.00     0.202 C 
HETATM    5  C12 UNL     1      23.787  -1.166  55.157  1.00  0.00     0.202 C 
HETATM    6  O3  UNL     1      25.186  -0.942  55.247  1.00  0.00    -0.346 OA
HETATM    7  C13 UNL     1      25.858  -0.060  54.436  1.00  0.00     0.107 A 
HETATM    8  C14 UNL     1      27.106  -0.033  54.856  1.00  0.00     0.075 A 
HETATM    9  C15 UNL     1      28.326   0.655  54.477  1.00  0.00     0.109 A 
HETATM   10  N2  UNL     1      29.586   1.200  54.283  1.00  0.00    -0.224 NA
HETATM   11  C16 UNL     1      28.524   1.617  53.399  1.00  0.00     0.174 A 
HETATM   12  N3  UNL     1      27.869   2.183  52.484  1.00  0.00    -0.263 NA
HETATM   13  C17 UNL     1      26.589   2.287  51.896  1.00  0.00     0.218 A 
ENDROOT
BRANCH   1  14
HETATM   14  O1  UNL     1      24.397   1.794  51.690  1.00  0.00    -0.351 OA
BRANCH  14  15
HETATM   15  C8  UNL     1      24.065   3.095  51.253  1.00  0.00     0.177 C 
BRANCH  15  16
HETATM   16  C7  UNL     1      23.029   3.005  50.171  1.00  0.00     0.062 C 
BRANCH  16  17
HETATM   17  C6  UNL     1      21.651   2.669  50.655  1.00  0.00     0.226 C 
HETATM   18  C2  UNL     1      21.003   1.493  50.024  1.00  0.00     0.015 C 
HETATM   19  C1  UNL     1      21.505   1.101  48.663  1.00  0.00     0.012 C 
HETATM   20  C3  UNL     1      21.067   0.249  50.897  1.00  0.00     0.008 C 
HETATM   21  C4  UNL     1      20.310   0.565  52.166  1.00  0.00     0.030 C 
HETATM   22  C5  UNL     1      20.618   1.928  52.699  1.00  0.00     0.270 C 
HETATM   23  N1  UNL     1      21.735   2.584  52.101  1.00  0.00     0.088 N 
HETATM   24  H11 UNL     1      21.739   3.565  52.456  1.00  0.00     0.316 HD
ENDBRANCH  16  17
ENDBRANCH  15  16
ENDBRANCH  14  15
ENDBRANCH   1  14
TORSDOF 4
ENDMDL
MODEL 2
REMARK VINA RESULT:      -7.3      1.482      3.506
REMARK  4 active torsions:
REMARK  status: ('A' for Active; 'I' for Inactive)
REMARK    1  A    between atoms: C6_7  and  C7_8 
REMARK    2  A    between atoms: C7_8  and  C8_9 
REMARK    3  A    between atoms: C8_9  and  O1_10 
REMARK    4  A    between atoms: O1_10  and  C9_11 
ROOT
HETATM    1  C9  UNL     1      24.936   0.517  53.048  1.00  0.00     0.102 A 
HETATM    2  C10 UNL     1      25.439   1.403  52.215  1.00  0.00     0.133 A 
HETATM    3  O2  UNL     1      24.486   1.754  51.276  1.00  0.00    -0.344 OA
HETATM    4  C11 UNL     1      24.648   2.937  50.502  1.00  0.00     0.202 C 
HETATM    5  C12 UNL     1      26.068   3.226  50.129  1.00  0.00     0.202 C 
HETATM    6  O3  UNL     1      27.002   2.924  51.155  1.00  0.00    -0.346 OA
HETATM    7  C13 UNL     1      26.753   2.014  52.153  1.00  0.00     0.107 A 
HETATM    8  C14 UNL     1      27.858   1.914  52.862  1.00  0.00     0.075 A 
HETATM    9  C15 UNL     1      28.297   1.164  54.023  1.00  0.00     0.109 A 
HETATM   10  N2  UNL     1      28.910   0.551  55.106  1.00  0.00    -0.224 NA
HETATM   11  C16 UNL     1      27.540   0.201  54.816  1.00  0.00     0.174 A 
HETATM   12  N3  UNL     1      26.393  -0.320  54.857  1.00  0.00    -0.263 NA
HETATM   13  C17 UNL     1      25.131  -0.347  54.225  1.00  0.00     0.218 A 
ENDROOT
BRANCH   1  14
HETATM   14  O1  UNL     1      23.622   0.267  52.664  1.00  0.00    -0.351 OA
BRANCH  14  15
HETATM   15  C8  UNL     1      22.573  -0.069  53.547  1.00  0.00     0.177 C 
BRANCH  15  16
HETATM   16  C7  UNL     1      21.307   0.593  53.086  1.00  0.00     0.062 C 
BRANCH  16  17
HETATM   17  C6  UNL     1      20.927   0.292  51.668  1.00  0.00     0.226 C 
HETATM   18  C2  UNL     1      19.484   0.066  51.410  1.00  0.00     0.015 C 
HETATM   19  C1  UNL     1      18.653  -0.368  52.584  1.00  0.00     0.012 C 
HETATM   20  C3  UNL     1      18.798   1.281  50.806  1.00  0.00     0.008 C 
HETATM   21  C4  UNL     1      19.467   1.546  49.476  1.00  0.00     0.030 C 
HETATM   22  C5  UNL     1      20.955   1.423  49.543  1.00  0.00     0.270 C 
HETATM   23  N1  UNL     1      21.508   1.346  50.856  1.00  0.00     0.088 N 
HETATM   24  H11 UNL     1      22.519   1.114  50.750  1.00  0.00     0.316 HD
ENDBRANCH  16  17
ENDBRANCH  15  16
ENDBRANCH  14  15
ENDBRANCH   1  14
TORSDOF 4
ENDMDL
MODEL 3
REMARK VINA RESULT:      -7.3      2.556      5.080
REMARK  4 active torsions:
REMARK  status: ('A' for Active; 'I' for Inactive)
REMARK    1  A    between atoms: C6_7  and  C7_8 
REMARK    2  A    between atoms: C7_8  and  C8_9 
REMARK    3  A    between atoms: C8_9  and  O1_10 
REMARK    4  A    between atoms: O1_10  and  C9_11 
ROOT
HETATM    1  C9  UNL     1      23.691   1.727  52.766  1.00  0.00     0.102 A 
HETATM    2  C10 UNL     1      24.845   1.212  53.131  1.00  0.00     0.133 A 
HETATM    3  O2  UNL     1      25.880   1.960  52.599  1.00  0.00    -0.344 OA
HETATM    4  C11 UNL     1      27.195   1.838  53.127  1.00  0.00     0.202 C 
HETATM    5  C12 UNL     1      27.549   0.449  53.555  1.00  0.00     0.202 C 
HETATM    6  O3  UNL     1      26.477  -0.252  54.170  1.00  0.00    -0.346 OA
HETATM    7  C13 UNL     1      25.156   0.057  53.952  1.00  0.00     0.107 A 
HETATM    8  C14 UNL     1      24.444  -0.846  54.593  1.00  0.00     0.075 A 
HETATM    9  C15 UNL     1      23.034  -1.124  54.792  1.00  0.00     0.109 A 
HETATM   10  N2  UNL     1      21.756  -1.562  55.103  1.00  0.00    -0.224 NA
HETATM   11  C16 UNL     1      21.886  -0.390  54.271  1.00  0.00     0.174 A 
HETATM   12  N3  UNL     1      21.633   0.616  53.556  1.00  0.00    -0.263 NA
HETATM   13  C17 UNL     1      22.220   1.663  52.813  1.00  0.00     0.218 A 
ENDROOT
BRANCH   1  14
HETATM   14  O1  UNL     1      23.952   2.842  51.974  1.00  0.00    -0.351 OA
BRANCH  14  15
HETATM   15  C8  UNL     1      23.170   4.016  51.951  1.00  0.00     0.177 C 
BRANCH  15  16
HETATM   16  C7  UNL     1      23.908   5.089  51.204  1.00  0.00     0.062 C 
BRANCH  16  17
HETATM   17  C6  UNL     1      24.695   4.598  50.027  1.00  0.00     0.226 C 
HETATM   18  C2  UNL     1      24.802   5.528  48.876  1.00  0.00     0.015 C 
HETATM   19  C1  UNL     1      23.731   6.575  48.759  1.00  0.00     0.012 C 
HETATM   20  C3  UNL     1      26.139   6.252  48.829  1.00  0.00     0.008 C 
HETATM   21  C4  UNL     1      27.205   5.194  48.665  1.00  0.00     0.030 C 
HETATM   22  C5  UNL     1      26.976   4.002  49.539  1.00  0.00     0.270 C 
HETATM   23  N1  UNL     1      25.978   4.161  50.546  1.00  0.00     0.088 N 
HETATM   24  H11 UNL     1      25.821   3.222  50.971  1.00  0.00     0.316 HD
ENDBRANCH  16  17
ENDBRANCH  15  16
ENDBRANCH  14  15
ENDBRANCH   1  14
TORSDOF 4
ENDMDL
MODEL 4
REMARK VINA RESULT:      -6.9      2.430      3.753
REMARK  4 active torsions:
REMARK  status: ('A' for Active; 'I' for Inactive)
REMARK    1  A    between atoms: C6_7  and  C7_8 
REMARK    2  A    between atoms: C7_8  and  C8_9 
REMARK    3  A    between atoms: C8_9  and  O1_10 
REMARK    4  A    between atoms: O1_10  and  C9_11 
ROOT
HETATM    1  C9  UNL     1      25.697   2.069  51.828  1.00  0.00     0.102 A 
HETATM    2  C10 UNL     1      24.664   1.401  52.295  1.00  0.00     0.133 A 
HETATM    3  O2  UNL     1      23.514   1.796  51.634  1.00  0.00    -0.344 OA
HETATM    4  C11 UNL     1      22.345   0.988  51.691  1.00  0.00     0.202 C 
HETATM    5  C12 UNL     1      22.139   0.313  53.009  1.00  0.00     0.202 C 
HETATM    6  O3  UNL     1      23.340  -0.148  53.611  1.00  0.00    -0.346 OA
HETATM    7  C13 UNL     1      24.574   0.386  53.327  1.00  0.00     0.107 A 
HETATM    8  C14 UNL     1      25.437  -0.205  54.127  1.00  0.00     0.075 A 
HETATM    9  C15 UNL     1      26.866  -0.133  54.366  1.00  0.00     0.109 A 
HETATM   10  N2  UNL     1      28.196  -0.221  54.748  1.00  0.00    -0.224 NA
HETATM   11  C16 UNL     1      27.852   0.714  53.704  1.00  0.00     0.174 A 
HETATM   12  N3  UNL     1      27.913   1.593  52.805  1.00  0.00    -0.263 NA
HETATM   13  C17 UNL     1      27.146   2.328  51.874  1.00  0.00     0.218 A 
ENDROOT
BRANCH   1  14
HETATM   14  O1  UNL     1      25.235   2.929  50.835  1.00  0.00    -0.351 OA
BRANCH  14  15
HETATM   15  C8  UNL     1      26.055   3.589  49.895  1.00  0.00     0.177 C 
BRANCH  15  16
HETATM   16  C7  UNL     1      25.467   4.935  49.583  1.00  0.00     0.062 C 
BRANCH  16  17
HETATM   17  C6  UNL     1      24.561   5.479  50.646  1.00  0.00     0.226 C 
HETATM   18  C2  UNL     1      24.522   6.956  50.781  1.00  0.00     0.015 C 
HETATM   19  C1  UNL     1      25.718   7.708  50.268  1.00  0.00     0.012 C 
HETATM   20  C3  UNL     1      23.296   7.573  50.127  1.00  0.00     0.008 C 
HETATM   21  C4  UNL     1      22.088   7.015  50.844  1.00  0.00     0.030 C 
HETATM   22  C5  UNL     1      22.198   5.546  51.103  1.00  0.00     0.270 C 
HETATM   23  N1  UNL     1      23.259   4.879  50.421  1.00  0.00     0.088 N 
HETATM   24  H11 UNL     1      23.309   3.911  50.806  1.00  0.00     0.316 HD
ENDBRANCH  16  17
ENDBRANCH  15  16
ENDBRANCH  14  15
ENDBRANCH   1  14
TORSDOF 4
ENDMDL
MODEL 5
REMARK VINA RESULT:      -6.9      1.914      6.511
REMARK  4 active torsions:
REMARK  status: ('A' for Active; 'I' for Inactive)
REMARK    1  A    between atoms: C6_7  and  C7_8 
REMARK    2  A    between atoms: C7_8  and  C8_9 
REMARK    3  A    between atoms: C8_9  and  O1_10 
REMARK    4  A    between atoms: O1_10  and  C9_11 
ROOT
HETATM    1  C9  UNL     1      22.873   1.070  51.835  1.00  0.00     0.102 A 
HETATM    2  C10 UNL     1      22.125   0.289  52.585  1.00  0.00     0.133 A 
HETATM    3  O2  UNL     1      22.894  -0.268  53.592  1.00  0.00    -0.344 OA
HETATM    4  C11 UNL     1      22.269  -0.847  54.731  1.00  0.00     0.202 C 
HETATM    5  C12 UNL     1      20.988  -1.554  54.423  1.00  0.00     0.202 C 
HETATM    6  O3  UNL     1      20.194  -0.902  53.442  1.00  0.00    -0.346 OA
HETATM    7  C13 UNL     1      20.715  -0.041  52.507  1.00  0.00     0.107 A 
HETATM    8  C14 UNL     1      19.725   0.297  51.707  1.00  0.00     0.075 A 
HETATM    9  C15 UNL     1      19.559   1.143  50.541  1.00  0.00     0.109 A 
HETATM   10  N2  UNL     1      19.188   1.889  49.432  1.00  0.00    -0.224 NA
HETATM   11  C16 UNL     1      20.567   1.946  49.856  1.00  0.00     0.174 A 
HETATM   12  N3  UNL     1      21.793   2.223  49.939  1.00  0.00    -0.263 NA
HETATM   13  C17 UNL     1      22.969   1.981  50.682  1.00  0.00     0.218 A 
ENDROOT
BRANCH   1  14
HETATM   14  O1  UNL     1      24.168   1.039  52.345  1.00  0.00    -0.351 OA
BRANCH  14  15
HETATM   15  C8  UNL     1      24.926   2.179  52.691  1.00  0.00     0.177 C 
BRANCH  15  16
HETATM   16  C7  UNL     1      26.076   1.763  53.561  1.00  0.00     0.062 C 
BRANCH  16  17
HETATM   17  C6  UNL     1      27.081   0.879  52.885  1.00  0.00     0.226 C 
HETATM   18  C2  UNL     1      28.507   1.155  53.191  1.00  0.00     0.015 C 
HETATM   19  C1  UNL     1      28.834   2.542  53.669  1.00  0.00     0.012 C 
HETATM   20  C3  UNL     1      29.087   0.186  54.208  1.00  0.00     0.008 C 
HETATM   21  C4  UNL     1      29.007  -1.193  53.595  1.00  0.00     0.030 C 
HETATM   22  C5  UNL     1      27.703  -1.446  52.909  1.00  0.00     0.270 C 
HETATM   23  N1  UNL     1      26.678  -0.487  53.163  1.00  0.00     0.088 N 
HETATM   24  H11 UNL     1      25.890  -0.701  52.514  1.00  0.00     0.316 HD
ENDBRANCH  16  17
ENDBRANCH  15  16
ENDBRANCH  14  15
ENDBRANCH   1  14
TORSDOF 4
ENDMDL
MODEL 6
REMARK VINA RESULT:      -6.7      1.514      2.195
REMARK  4 active torsions:
REMARK  status: ('A' for Active; 'I' for Inactive)
REMARK    1  A    between atoms: C6_7  and  C7_8 
REMARK    2  A    between atoms: C7_8  and  C8_9 
REMARK    3  A    between atoms: C8_9  and  O1_10 
REMARK    4  A    between atoms: O1_10  and  C9_11 
ROOT
HETATM    1  C9  UNL     1      25.262   1.689  52.049  1.00  0.00     0.102 A 
HETATM    2  C10 UNL     1      24.741   0.810  52.877  1.00  0.00     0.133 A 
HETATM    3  O2  UNL     1      23.395   0.648  52.601  1.00  0.00    -0.344 OA
HETATM    4  C11 UNL     1      22.695  -0.486  53.099  1.00  0.00     0.202 C 
HETATM    5  C12 UNL     1      23.138  -0.921  54.459  1.00  0.00     0.202 C 
HETATM    6  O3  UNL     1      24.539  -0.813  54.668  1.00  0.00    -0.346 OA
HETATM    7  C13 UNL     1      25.339   0.047  53.957  1.00  0.00     0.107 A 
HETATM    8  C14 UNL     1      26.547  -0.042  54.473  1.00  0.00     0.075 A 
HETATM    9  C15 UNL     1      27.842   0.562  54.225  1.00  0.00     0.109 A 
HETATM   10  N2  UNL     1      29.151   1.014  54.156  1.00  0.00    -0.224 NA
HETATM   11  C16 UNL     1      28.199   1.551  53.214  1.00  0.00     0.174 A 
HETATM   12  N3  UNL     1      27.665   2.206  52.279  1.00  0.00    -0.263 NA
HETATM   13  C17 UNL     1      26.449   2.435  51.598  1.00  0.00     0.218 A 
ENDROOT
BRANCH   1  14
HETATM   14  O1  UNL     1      24.250   2.127  51.199  1.00  0.00    -0.351 OA
BRANCH  14  15
HETATM   15  C8  UNL     1      24.109   3.450  50.727  1.00  0.00     0.177 C 
BRANCH  15  16
HETATM   16  C7  UNL     1      23.828   4.361  51.887  1.00  0.00     0.062 C 
BRANCH  16  17
HETATM   17  C6  UNL     1      22.376   4.499  52.233  1.00  0.00     0.226 C 
HETATM   18  C2  UNL     1      21.613   5.515  51.467  1.00  0.00     0.015 C 
HETATM   19  C1  UNL     1      22.411   6.629  50.852  1.00  0.00     0.012 C 
HETATM   20  C3  UNL     1      20.773   4.904  50.356  1.00  0.00     0.008 C 
HETATM   21  C4  UNL     1      19.774   3.983  51.018  1.00  0.00     0.030 C 
HETATM   22  C5  UNL     1      20.384   3.153  52.103  1.00  0.00     0.270 C 
HETATM   23  N1  UNL     1      21.810   3.164  52.158  1.00  0.00     0.088 N 
HETATM   24  H11 UNL     1      22.086   2.676  53.037  1.00  0.00     0.316 HD
ENDBRANCH  16  17
ENDBRANCH  15  16
ENDBRANCH  14  15
ENDBRANCH   1  14
TORSDOF 4
ENDMDL
MODEL 7
REMARK VINA RESULT:      -6.7      2.892      7.295
REMARK  4 active torsions:
REMARK  status: ('A' for Active; 'I' for Inactive)
REMARK    1  A    between atoms: C6_7  and  C7_8 
REMARK    2  A    between atoms: C7_8  and  C8_9 
REMARK    3  A    between atoms: C8_9  and  O1_10 
REMARK    4  A    between atoms: O1_10  and  C9_11 
ROOT
HETATM    1  C9  UNL     1      23.992   4.468  51.405  1.00  0.00     0.102 A 
HETATM    2  C10 UNL     1      24.824   4.855  50.463  1.00  0.00     0.133 A 
HETATM    3  O2  UNL     1      25.961   4.068  50.491  1.00  0.00    -0.344 OA
HETATM    4  C11 UNL     1      26.838   4.038  49.371  1.00  0.00     0.202 C 
HETATM    5  C12 UNL     1      26.974   5.354  48.675  1.00  0.00     0.202 C 
HETATM    6  O3  UNL     1      25.763   6.091  48.599  1.00  0.00    -0.346 OA
HETATM    7  C13 UNL     1      24.719   5.912  49.475  1.00  0.00     0.107 A 
HETATM    8  C14 UNL     1      23.811   6.817  49.175  1.00  0.00     0.075 A 
HETATM    9  C15 UNL     1      22.502   7.194  49.672  1.00  0.00     0.109 A 
HETATM   10  N2  UNL     1      21.254   7.711  49.988  1.00  0.00    -0.224 NA
HETATM   11  C16 UNL     1      21.746   6.602  50.770  1.00  0.00     0.174 A 
HETATM   12  N3  UNL     1      21.852   5.679  51.621  1.00  0.00    -0.263 NA
HETATM   13  C17 UNL     1      22.698   4.649  52.086  1.00  0.00     0.218 A 
ENDROOT
BRANCH   1  14
HETATM   14  O1  UNL     1      24.578   3.401  52.081  1.00  0.00    -0.351 OA
BRANCH  14  15
HETATM   15  C8  UNL     1      23.916   2.203  52.427  1.00  0.00     0.177 C 
BRANCH  15  16
HETATM   16  C7  UNL     1      24.935   1.154  52.764  1.00  0.00     0.062 C 
BRANCH  16  17
HETATM   17  C6  UNL     1      26.029   1.619  53.676  1.00  0.00     0.226 C 
HETATM   18  C2  UNL     1      26.564   0.611  54.625  1.00  0.00     0.015 C 
HETATM   19  C1  UNL     1      25.658  -0.539  54.963  1.00  0.00     0.012 C 
HETATM   20  C3  UNL     1      27.886   0.016  54.166  1.00  0.00     0.008 C 
HETATM   21  C4  UNL     1      28.879   1.154  54.096  1.00  0.00     0.030 C 
HETATM   22  C5  UNL     1      28.303   2.386  53.475  1.00  0.00     0.270 C 
HETATM   23  N1  UNL     1      27.043   2.217  52.826  1.00  0.00     0.088 N 
HETATM   24  H11 UNL     1      26.697   3.169  52.578  1.00  0.00     0.316 HD
ENDBRANCH  16  17
ENDBRANCH  15  16
ENDBRANCH  14  15
ENDBRANCH   1  14
TORSDOF 4
ENDMDL
MODEL 8
REMARK VINA RESULT:      -6.6      3.292      5.169
REMARK  4 active torsions:
REMARK  status: ('A' for Active; 'I' for Inactive)
REMARK    1  A    between atoms: C6_7  and  C7_8 
REMARK    2  A    between atoms: C7_8  and  C8_9 
REMARK    3  A    between atoms: C8_9  and  O1_10 
REMARK    4  A    between atoms: O1_10  and  C9_11 
ROOT
HETATM    1  C9  UNL     1      25.563   2.384  51.533  1.00  0.00     0.102 A 
HETATM    2  C10 UNL     1      24.263   2.352  51.736  1.00  0.00     0.133 A 
HETATM    3  O2  UNL     1      23.650   3.346  50.993  1.00  0.00    -0.344 OA
HETATM    4  C11 UNL     1      22.249   3.296  50.752  1.00  0.00     0.202 C 
HETATM    5  C12 UNL     1      21.457   2.760  51.902  1.00  0.00     0.202 C 
HETATM    6  O3  UNL     1      22.090   1.687  52.584  1.00  0.00    -0.346 OA
HETATM    7  C13 UNL     1      23.449   1.485  52.566  1.00  0.00     0.107 A 
HETATM    8  C14 UNL     1      23.694   0.474  53.373  1.00  0.00     0.075 A 
HETATM    9  C15 UNL     1      24.868  -0.253  53.819  1.00  0.00     0.109 A 
HETATM   10  N2  UNL     1      25.847  -1.069  54.365  1.00  0.00    -0.224 NA
HETATM   11  C16 UNL     1      26.261  -0.034  53.448  1.00  0.00     0.174 A 
HETATM   12  N3  UNL     1      26.954   0.727  52.721  1.00  0.00    -0.263 NA
HETATM   13  C17 UNL     1      26.890   1.815  51.824  1.00  0.00     0.218 A 
ENDROOT
BRANCH   1  14
HETATM   14  O1  UNL     1      25.831   3.416  50.638  1.00  0.00    -0.351 OA
BRANCH  14  15
HETATM   15  C8  UNL     1      26.607   3.287  49.467  1.00  0.00     0.177 C 
BRANCH  15  16
HETATM   16  C7  UNL     1      26.990   4.652  48.974  1.00  0.00     0.062 C 
BRANCH  16  17
HETATM   17  C6  UNL     1      26.002   5.731  49.298  1.00  0.00     0.226 C 
HETATM   18  C2  UNL     1      26.338   7.094  48.818  1.00  0.00     0.015 C 
HETATM   19  C1  UNL     1      27.792   7.374  48.559  1.00  0.00     0.012 C 
HETATM   20  C3  UNL     1      25.580   7.476  47.556  1.00  0.00     0.008 C 
HETATM   21  C4  UNL     1      24.110   7.462  47.907  1.00  0.00     0.030 C 
HETATM   22  C5  UNL     1      23.725   6.281  48.740  1.00  0.00     0.270 C 
HETATM   23  N1  UNL     1      24.710   5.253  48.842  1.00  0.00     0.088 N 
HETATM   24  H11 UNL     1      24.373   4.577  49.561  1.00  0.00     0.316 HD
ENDBRANCH  16  17
ENDBRANCH  15  16
ENDBRANCH  14  15
ENDBRANCH   1  14
TORSDOF 4
ENDMDL
MODEL 9
REMARK VINA RESULT:      -6.6      2.075      3.211
REMARK  4 active torsions:
REMARK  status: ('A' for Active; 'I' for Inactive)
REMARK    1  A    between atoms: C6_7  and  C7_8 
REMARK    2  A    between atoms: C7_8  and  C8_9 
REMARK    3  A    between atoms: C8_9  and  O1_10 
REMARK    4  A    between atoms: O1_10  and  C9_11 
ROOT
HETATM    1  C9  UNL     1      25.489   2.048  51.833  1.00  0.00     0.102 A 
HETATM    2  C10 UNL     1      24.480   1.288  52.203  1.00  0.00     0.133 A 
HETATM    3  O2  UNL     1      23.323   1.708  51.571  1.00  0.00    -0.344 OA
HETATM    4  C11 UNL     1      22.189   0.850  51.514  1.00  0.00     0.202 C 
HETATM    5  C12 UNL     1      21.996   0.021  52.744  1.00  0.00     0.202 C 
HETATM    6  O3  UNL     1      23.209  -0.454  53.312  1.00  0.00    -0.346 OA
HETATM    7  C13 UNL     1      24.421   0.160  53.112  1.00  0.00     0.107 A 
HETATM    8  C14 UNL     1      25.299  -0.481  53.856  1.00  0.00     0.075 A 
HETATM    9  C15 UNL     1      26.720  -0.378  54.126  1.00  0.00     0.109 A 
HETATM   10  N2  UNL     1      28.048  -0.453  54.520  1.00  0.00    -0.224 NA
HETATM   11  C16 UNL     1      27.677   0.580  53.582  1.00  0.00     0.174 A 
HETATM   12  N3  UNL     1      27.711   1.558  52.789  1.00  0.00    -0.263 NA
HETATM   13  C17 UNL     1      26.924   2.361  51.935  1.00  0.00     0.218 A 
ENDROOT
BRANCH   1  14
HETATM   14  O1  UNL     1      25.003   2.996  50.936  1.00  0.00    -0.351 OA
BRANCH  14  15
HETATM   15  C8  UNL     1      25.747   3.560  49.877  1.00  0.00     0.177 C 
BRANCH  15  16
HETATM   16  C7  UNL     1      24.898   4.566  49.156  1.00  0.00     0.062 C 
BRANCH  16  17
HETATM   17  C6  UNL     1      23.442   4.216  49.088  1.00  0.00     0.226 C 
HETATM   18  C2  UNL     1      22.581   5.143  48.312  1.00  0.00     0.015 C 
HETATM   19  C1  UNL     1      23.089   6.546  48.142  1.00  0.00     0.012 C 
HETATM   20  C3  UNL     1      22.256   4.617  46.922  1.00  0.00     0.008 C 
HETATM   21  C4  UNL     1      21.491   3.327  47.109  1.00  0.00     0.030 C 
HETATM   22  C5  UNL     1      22.079   2.455  48.173  1.00  0.00     0.270 C 
HETATM   23  N1  UNL     1      23.372   2.838  48.637  1.00  0.00     0.088 N 
HETATM   24  H11 UNL     1      23.588   2.244  49.466  1.00  0.00     0.316 HD
ENDBRANCH  16  17
ENDBRANCH  15  16
ENDBRANCH  14  15
ENDBRANCH   1  14
TORSDOF 4
ENDMDL
