MODEL 1
REMARK VINA RESULT:      -8.0      0.000      0.000
REMARK  3 active torsions:
REMARK  status: ('A' for Active; 'I' for Inactive)
REMARK    1  A    between atoms: N3_10  and  O1_11 
REMARK    2  A    between atoms: O1_11  and  C8_12 
REMARK    3  A    between atoms: C8_12  and  C9_13 
ROOT
HETATM    1  C1  UNL     1      22.774   2.151  50.221  1.00  0.00     0.071 C 
HETATM    2  C2  UNL     1      22.811   1.283  51.440  1.00  0.00     0.040 A 
HETATM    3  C3  UNL     1      21.603   0.786  51.901  1.00  0.00     0.044 A 
HETATM    4  C4  UNL     1      21.840   0.014  53.023  1.00  0.00     0.032 A 
HETATM    5  C5  UNL     1      21.153  -0.749  53.957  1.00  0.00     0.133 A 
HETATM    6  N1  UNL     1      21.779  -1.382  54.959  1.00  0.00    -0.253 NA
HETATM    7  C6  UNL     1      23.119  -1.291  55.092  1.00  0.00     0.235 A 
HETATM    8  N2  UNL     1      23.846  -0.553  54.202  1.00  0.00    -0.221 NA
HETATM    9  C7  UNL     1      23.213   0.079  53.197  1.00  0.00     0.168 A 
HETATM   10  N3  UNL     1      23.809   0.835  52.256  1.00  0.00    -0.207 N 
ENDROOT
BRANCH  10  11
HETATM   11  O1  UNL     1      25.054   1.225  51.951  1.00  0.00    -0.267 OA
BRANCH  11  12
HETATM   12  C8  UNL     1      26.012   1.863  52.718  1.00  0.00     0.240 C 
BRANCH  12  13
HETATM   13  C9  UNL     1      27.191   1.034  53.073  1.00  0.00    -0.030 A 
HETATM   14  C10 UNL     1      28.313   1.614  53.644  1.00  0.00     0.012 A 
HETATM   15  C11 UNL     1      29.423   0.881  53.987  1.00  0.00     0.044 A 
HETATM   16  C12 UNL     1      29.461  -0.496  53.766  1.00  0.00     0.138 A 
HETATM   17  F1  UNL     1      30.508  -1.270  54.076  1.00  0.00    -0.204 F 
HETATM   18  C13 UNL     1      28.359  -1.101  53.199  1.00  0.00     0.073 A 
HETATM   19 CL1  UNL     1      28.371  -2.844  52.905  1.00  0.00    -0.081 Cl
HETATM   20  C14 UNL     1      27.263  -0.331  52.869  1.00  0.00     0.036 A 
ENDBRANCH  12  13
ENDBRANCH  11  12
ENDBRANCH  10  11
TORSDOF 3
ENDMDL
MODEL 2
REMARK VINA RESULT:      -7.8      4.006      6.861
REMARK  3 active torsions:
REMARK  status: ('A' for Active; 'I' for Inactive)
REMARK    1  A    between atoms: N3_10  and  O1_11 
REMARK    2  A    between atoms: O1_11  and  C8_12 
REMARK    3  A    between atoms: C8_12  and  C9_13 
ROOT
HETATM    1  C1  UNL     1      25.085   2.610  53.392  1.00  0.00     0.071 C 
HETATM    2  C2  UNL     1      26.156   1.564  53.410  1.00  0.00     0.040 A 
HETATM    3  C3  UNL     1      27.468   2.002  53.479  1.00  0.00     0.044 A 
HETATM    4  C4  UNL     1      28.304   0.901  53.486  1.00  0.00     0.032 A 
HETATM    5  C5  UNL     1      29.655   0.588  53.536  1.00  0.00     0.133 A 
HETATM    6  N1  UNL     1      30.094  -0.679  53.521  1.00  0.00    -0.253 NA
HETATM    7  C6  UNL     1      29.218  -1.703  53.454  1.00  0.00     0.235 A 
HETATM    8  N2  UNL     1      27.877  -1.454  53.402  1.00  0.00    -0.221 NA
HETATM    9  C7  UNL     1      27.441  -0.181  53.418  1.00  0.00     0.168 A 
HETATM   10  N3  UNL     1      26.151   0.200  53.373  1.00  0.00    -0.207 N 
ENDROOT
BRANCH  10  11
HETATM   11  O1  UNL     1      24.952  -0.394  53.305  1.00  0.00    -0.267 OA
BRANCH  11  12
HETATM   12  C8  UNL     1      24.110  -0.843  54.307  1.00  0.00     0.240 C 
BRANCH  12  13
HETATM   13  C9  UNL     1      22.660  -0.684  54.033  1.00  0.00    -0.030 A 
HETATM   14  C10 UNL     1      21.778  -1.722  54.286  1.00  0.00     0.012 A 
HETATM   15  C11 UNL     1      20.430  -1.613  54.045  1.00  0.00     0.044 A 
HETATM   16  C12 UNL     1      19.894  -0.434  53.530  1.00  0.00     0.138 A 
HETATM   17  F1  UNL     1      18.592  -0.259  53.272  1.00  0.00    -0.204 F 
HETATM   18  C13 UNL     1      20.748   0.617  53.268  1.00  0.00     0.073 A 
HETATM   19 CL1  UNL     1      20.103   2.127  52.613  1.00  0.00    -0.081 Cl
HETATM   20  C14 UNL     1      22.095   0.470  53.522  1.00  0.00     0.036 A 
ENDBRANCH  12  13
ENDBRANCH  11  12
ENDBRANCH  10  11
TORSDOF 3
ENDMDL
MODEL 3
REMARK VINA RESULT:      -7.8      1.408      2.622
REMARK  3 active torsions:
REMARK  status: ('A' for Active; 'I' for Inactive)
REMARK    1  A    between atoms: N3_10  and  O1_11 
REMARK    2  A    between atoms: O1_11  and  C8_12 
REMARK    3  A    between atoms: C8_12  and  C9_13 
ROOT
HETATM    1  C1  UNL     1      24.188  -1.252  55.411  1.00  0.00     0.071 C 
HETATM    2  C2  UNL     1      23.136  -0.857  54.422  1.00  0.00     0.040 A 
HETATM    3  C3  UNL     1      21.815  -1.060  54.788  1.00  0.00     0.044 A 
HETATM    4  C4  UNL     1      20.999  -0.638  53.756  1.00  0.00     0.032 A 
HETATM    5  C5  UNL     1      19.653  -0.541  53.431  1.00  0.00     0.133 A 
HETATM    6  N1  UNL     1      19.237  -0.045  52.257  1.00  0.00    -0.253 NA
HETATM    7  C6  UNL     1      20.131   0.381  51.341  1.00  0.00     0.235 A 
HETATM    8  N2  UNL     1      21.468   0.310  51.606  1.00  0.00    -0.221 NA
HETATM    9  C7  UNL     1      21.881  -0.189  52.787  1.00  0.00     0.168 A 
HETATM   10  N3  UNL     1      23.165  -0.313  53.172  1.00  0.00    -0.207 N 
ENDROOT
BRANCH  10  11
HETATM   11  O1  UNL     1      24.376  -0.051  52.659  1.00  0.00    -0.267 OA
BRANCH  11  12
HETATM   12  C8  UNL     1      25.213   1.035  52.837  1.00  0.00     0.240 C 
BRANCH  12  13
HETATM   13  C9  UNL     1      26.641   0.701  53.069  1.00  0.00    -0.030 A 
HETATM   14  C10 UNL     1      27.562   1.700  53.342  1.00  0.00     0.012 A 
HETATM   15  C11 UNL     1      28.891   1.431  53.562  1.00  0.00     0.044 A 
HETATM   16  C12 UNL     1      29.367   0.121  53.517  1.00  0.00     0.138 A 
HETATM   17  F1  UNL     1      30.648  -0.212  53.722  1.00  0.00    -0.204 F 
HETATM   18  C13 UNL     1      28.473  -0.894  53.248  1.00  0.00     0.073 A 
HETATM   19 CL1  UNL     1      29.041  -2.567  53.182  1.00  0.00    -0.081 Cl
HETATM   20  C14 UNL     1      27.147  -0.585  53.032  1.00  0.00     0.036 A 
ENDBRANCH  12  13
ENDBRANCH  11  12
ENDBRANCH  10  11
TORSDOF 3
ENDMDL
MODEL 4
REMARK VINA RESULT:      -7.5      5.136      6.645
REMARK  3 active torsions:
REMARK  status: ('A' for Active; 'I' for Inactive)
REMARK    1  A    between atoms: N3_10  and  O1_11 
REMARK    2  A    between atoms: O1_11  and  C8_12 
REMARK    3  A    between atoms: C8_12  and  C9_13 
ROOT
HETATM    1  C1  UNL     1      23.509   1.224  51.916  1.00  0.00     0.071 C 
HETATM    2  C2  UNL     1      24.900   1.382  52.444  1.00  0.00     0.040 A 
HETATM    3  C3  UNL     1      25.256   0.604  53.534  1.00  0.00     0.044 A 
HETATM    4  C4  UNL     1      26.565   0.888  53.873  1.00  0.00     0.032 A 
HETATM    5  C5  UNL     1      27.532   0.519  54.799  1.00  0.00     0.133 A 
HETATM    6  N1  UNL     1      28.760   1.057  54.800  1.00  0.00    -0.253 NA
HETATM    7  C6  UNL     1      29.097   1.990  53.885  1.00  0.00     0.235 A 
HETATM    8  N2  UNL     1      28.186   2.391  52.951  1.00  0.00    -0.221 NA
HETATM    9  C7  UNL     1      26.954   1.848  52.953  1.00  0.00     0.168 A 
HETATM   10  N3  UNL     1      25.968   2.154  52.091  1.00  0.00    -0.207 N 
ENDROOT
BRANCH  10  11
HETATM   11  O1  UNL     1      25.795   2.974  51.044  1.00  0.00    -0.267 OA
BRANCH  11  12
HETATM   12  C8  UNL     1      26.451   3.034  49.828  1.00  0.00     0.240 C 
BRANCH  12  13
HETATM   13  C9  UNL     1      26.607   4.397  49.262  1.00  0.00    -0.030 A 
HETATM   14  C10 UNL     1      25.554   5.297  49.291  1.00  0.00     0.012 A 
HETATM   15  C11 UNL     1      25.660   6.566  48.776  1.00  0.00     0.044 A 
HETATM   16  C12 UNL     1      26.851   7.001  48.197  1.00  0.00     0.138 A 
HETATM   17  F1  UNL     1      27.023   8.222  47.678  1.00  0.00    -0.204 F 
HETATM   18  C13 UNL     1      27.918   6.127  48.154  1.00  0.00     0.073 A 
HETATM   19 CL1  UNL     1      29.444   6.643  47.426  1.00  0.00    -0.081 Cl
HETATM   20  C14 UNL     1      27.773   4.861  48.680  1.00  0.00     0.036 A 
ENDBRANCH  12  13
ENDBRANCH  11  12
ENDBRANCH  10  11
TORSDOF 3
ENDMDL
MODEL 5
REMARK VINA RESULT:      -7.3      1.728      3.062
REMARK  3 active torsions:
REMARK  status: ('A' for Active; 'I' for Inactive)
REMARK    1  A    between atoms: N3_10  and  O1_11 
REMARK    2  A    between atoms: O1_11  and  C8_12 
REMARK    3  A    between atoms: C8_12  and  C9_13 
ROOT
HETATM    1  C1  UNL     1      23.289  -0.624  53.354  1.00  0.00     0.071 C 
HETATM    2  C2  UNL     1      22.873   0.699  52.788  1.00  0.00     0.040 A 
HETATM    3  C3  UNL     1      21.556   1.083  52.980  1.00  0.00     0.044 A 
HETATM    4  C4  UNL     1      21.365   2.320  52.393  1.00  0.00     0.032 A 
HETATM    5  C5  UNL     1      20.368   3.266  52.197  1.00  0.00     0.133 A 
HETATM    6  N1  UNL     1      20.591   4.410  51.535  1.00  0.00    -0.253 NA
HETATM    7  C6  UNL     1      21.813   4.678  51.029  1.00  0.00     0.235 A 
HETATM    8  N2  UNL     1      22.832   3.784  51.192  1.00  0.00    -0.221 NA
HETATM    9  C7  UNL     1      22.604   2.637  51.858  1.00  0.00     0.168 A 
HETATM   10  N3  UNL     1      23.517   1.676  52.088  1.00  0.00    -0.207 N 
ENDROOT
BRANCH  10  11
HETATM   11  O1  UNL     1      24.812   1.463  51.813  1.00  0.00    -0.267 OA
BRANCH  11  12
HETATM   12  C8  UNL     1      25.948   2.105  52.273  1.00  0.00     0.240 C 
BRANCH  12  13
HETATM   13  C9  UNL     1      27.040   1.209  52.727  1.00  0.00    -0.030 A 
HETATM   14  C10 UNL     1      28.166   1.728  53.346  1.00  0.00     0.012 A 
HETATM   15  C11 UNL     1      29.197   0.931  53.780  1.00  0.00     0.044 A 
HETATM   16  C12 UNL     1      29.145  -0.452  53.610  1.00  0.00     0.138 A 
HETATM   17  F1  UNL     1      30.113  -1.287  54.009  1.00  0.00    -0.204 F 
HETATM   18  C13 UNL     1      28.037  -0.998  52.998  1.00  0.00     0.073 A 
HETATM   19 CL1  UNL     1      27.938  -2.747  52.765  1.00  0.00    -0.081 Cl
HETATM   20  C14 UNL     1      27.022  -0.166  52.575  1.00  0.00     0.036 A 
ENDBRANCH  12  13
ENDBRANCH  11  12
ENDBRANCH  10  11
TORSDOF 3
ENDMDL
MODEL 6
REMARK VINA RESULT:      -7.2      4.092      5.326
REMARK  3 active torsions:
REMARK  status: ('A' for Active; 'I' for Inactive)
REMARK    1  A    between atoms: N3_10  and  O1_11 
REMARK    2  A    between atoms: O1_11  and  C8_12 
REMARK    3  A    between atoms: C8_12  and  C9_13 
ROOT
HETATM    1  C1  UNL     1      26.659   0.563  52.449  1.00  0.00     0.071 C 
HETATM    2  C2  UNL     1      25.244   0.313  52.866  1.00  0.00     0.040 A 
HETATM    3  C3  UNL     1      25.042  -0.521  53.954  1.00  0.00     0.044 A 
HETATM    4  C4  UNL     1      23.683  -0.629  54.185  1.00  0.00     0.032 A 
HETATM    5  C5  UNL     1      22.794  -1.253  55.049  1.00  0.00     0.133 A 
HETATM    6  N1  UNL     1      21.467  -1.098  54.939  1.00  0.00    -0.253 NA
HETATM    7  C6  UNL     1      20.949  -0.319  53.967  1.00  0.00     0.235 A 
HETATM    8  N2  UNL     1      21.777   0.320  53.088  1.00  0.00    -0.221 NA
HETATM    9  C7  UNL     1      23.108   0.162  53.203  1.00  0.00     0.168 A 
HETATM   10  N3  UNL     1      24.030   0.733  52.406  1.00  0.00    -0.207 N 
ENDROOT
BRANCH  10  11
HETATM   11  O1  UNL     1      24.042   1.554  51.346  1.00  0.00    -0.267 OA
BRANCH  11  12
HETATM   12  C8  UNL     1      23.779   2.909  51.253  1.00  0.00     0.240 C 
BRANCH  12  13
HETATM   13  C9  UNL     1      24.733   3.682  50.420  1.00  0.00    -0.030 A 
HETATM   14  C10 UNL     1      25.998   3.186  50.154  1.00  0.00     0.012 A 
HETATM   15  C11 UNL     1      26.909   3.872  49.388  1.00  0.00     0.044 A 
HETATM   16  C12 UNL     1      26.585   5.113  48.842  1.00  0.00     0.138 A 
HETATM   17  F1  UNL     1      27.423   5.834  48.087  1.00  0.00    -0.204 F 
HETATM   18  C13 UNL     1      25.332   5.633  49.089  1.00  0.00     0.073 A 
HETATM   19 CL1  UNL     1      24.887   7.205  48.414  1.00  0.00    -0.081 Cl
HETATM   20  C14 UNL     1      24.445   4.915  49.863  1.00  0.00     0.036 A 
ENDBRANCH  12  13
ENDBRANCH  11  12
ENDBRANCH  10  11
TORSDOF 3
ENDMDL
MODEL 7
REMARK VINA RESULT:      -7.1      5.343      6.351
REMARK  3 active torsions:
REMARK  status: ('A' for Active; 'I' for Inactive)
REMARK    1  A    between atoms: N3_10  and  O1_11 
REMARK    2  A    between atoms: O1_11  and  C8_12 
REMARK    3  A    between atoms: C8_12  and  C9_13 
ROOT
HETATM    1  C1  UNL     1      23.855   3.899  51.855  1.00  0.00     0.071 C 
HETATM    2  C2  UNL     1      24.685   2.687  52.143  1.00  0.00     0.040 A 
HETATM    3  C3  UNL     1      24.131   1.721  52.967  1.00  0.00     0.044 A 
HETATM    4  C4  UNL     1      25.039   0.689  53.113  1.00  0.00     0.032 A 
HETATM    5  C5  UNL     1      25.167  -0.537  53.752  1.00  0.00     0.133 A 
HETATM    6  N1  UNL     1      26.272  -1.287  53.640  1.00  0.00    -0.253 NA
HETATM    7  C6  UNL     1      27.311  -0.863  52.891  1.00  0.00     0.235 A 
HETATM    8  N2  UNL     1      27.241   0.335  52.240  1.00  0.00    -0.221 NA
HETATM    9  C7  UNL     1      26.128   1.084  52.355  1.00  0.00     0.168 A 
HETATM   10  N3  UNL     1      25.931   2.279  51.767  1.00  0.00    -0.207 N 
ENDROOT
BRANCH  10  11
HETATM   11  O1  UNL     1      26.615   3.104  50.961  1.00  0.00    -0.267 OA
BRANCH  11  12
HETATM   12  C8  UNL     1      26.570   3.263  49.588  1.00  0.00     0.240 C 
BRANCH  12  13
HETATM   13  C9  UNL     1      26.841   4.639  49.102  1.00  0.00    -0.030 A 
HETATM   14  C10 UNL     1      28.065   4.958  48.537  1.00  0.00     0.012 A 
HETATM   15  C11 UNL     1      28.353   6.220  48.077  1.00  0.00     0.044 A 
HETATM   16  C12 UNL     1      27.407   7.241  48.163  1.00  0.00     0.138 A 
HETATM   17  F1  UNL     1      27.621   8.491  47.735  1.00  0.00    -0.204 F 
HETATM   18  C13 UNL     1      26.179   6.953  48.721  1.00  0.00     0.073 A 
HETATM   19 CL1  UNL     1      24.956   8.222  48.848  1.00  0.00    -0.081 Cl
HETATM   20  C14 UNL     1      25.927   5.674  49.172  1.00  0.00     0.036 A 
ENDBRANCH  12  13
ENDBRANCH  11  12
ENDBRANCH  10  11
TORSDOF 3
ENDMDL
MODEL 8
REMARK VINA RESULT:      -7.1      2.193      3.735
REMARK  3 active torsions:
REMARK  status: ('A' for Active; 'I' for Inactive)
REMARK    1  A    between atoms: N3_10  and  O1_11 
REMARK    2  A    between atoms: O1_11  and  C8_12 
REMARK    3  A    between atoms: C8_12  and  C9_13 
ROOT
HETATM    1  C1  UNL     1      23.455   0.938  53.156  1.00  0.00     0.071 C 
HETATM    2  C2  UNL     1      23.136   1.374  51.760  1.00  0.00     0.040 A 
HETATM    3  C3  UNL     1      22.052   0.773  51.142  1.00  0.00     0.044 A 
HETATM    4  C4  UNL     1      21.918   1.301  49.871  1.00  0.00     0.032 A 
HETATM    5  C5  UNL     1      21.110   1.187  48.748  1.00  0.00     0.133 A 
HETATM    6  N1  UNL     1      21.316   1.919  47.644  1.00  0.00    -0.253 NA
HETATM    7  C6  UNL     1      22.336   2.802  47.592  1.00  0.00     0.235 A 
HETATM    8  N2  UNL     1      23.163   2.956  48.668  1.00  0.00    -0.221 NA
HETATM    9  C7  UNL     1      22.951   2.220  49.774  1.00  0.00     0.168 A 
HETATM   10  N3  UNL     1      23.689   2.274  50.898  1.00  0.00    -0.207 N 
ENDROOT
BRANCH  10  11
HETATM   11  O1  UNL     1      24.758   2.951  51.341  1.00  0.00    -0.267 OA
BRANCH  11  12
HETATM   12  C8  UNL     1      26.101   2.810  51.041  1.00  0.00     0.240 C 
BRANCH  12  13
HETATM   13  C9  UNL     1      26.837   1.834  51.882  1.00  0.00    -0.030 A 
HETATM   14  C10 UNL     1      27.816   2.262  52.764  1.00  0.00     0.012 A 
HETATM   15  C11 UNL     1      28.519   1.390  53.559  1.00  0.00     0.044 A 
HETATM   16  C12 UNL     1      28.267   0.019  53.505  1.00  0.00     0.138 A 
HETATM   17  F1  UNL     1      28.914  -0.885  54.250  1.00  0.00    -0.204 F 
HETATM   18  C13 UNL     1      27.298  -0.436  52.636  1.00  0.00     0.073 A 
HETATM   19 CL1  UNL     1      26.952  -2.167  52.540  1.00  0.00    -0.081 Cl
HETATM   20  C14 UNL     1      26.613   0.470  51.854  1.00  0.00     0.036 A 
ENDBRANCH  12  13
ENDBRANCH  11  12
ENDBRANCH  10  11
TORSDOF 3
ENDMDL
MODEL 9
REMARK VINA RESULT:      -6.9      4.266      6.964
REMARK  3 active torsions:
REMARK  status: ('A' for Active; 'I' for Inactive)
REMARK    1  A    between atoms: N3_10  and  O1_11 
REMARK    2  A    between atoms: O1_11  and  C8_12 
REMARK    3  A    between atoms: C8_12  and  C9_13 
ROOT
HETATM    1  C1  UNL     1      24.030   2.385  50.706  1.00  0.00     0.071 C 
HETATM    2  C2  UNL     1      24.940   1.849  51.766  1.00  0.00     0.040 A 
HETATM    3  C3  UNL     1      26.196   2.425  51.873  1.00  0.00     0.044 A 
HETATM    4  C4  UNL     1      26.883   1.803  52.899  1.00  0.00     0.032 A 
HETATM    5  C5  UNL     1      28.114   1.848  53.540  1.00  0.00     0.133 A 
HETATM    6  N1  UNL     1      28.418   1.029  54.556  1.00  0.00    -0.253 NA
HETATM    7  C6  UNL     1      27.521   0.120  54.992  1.00  0.00     0.235 A 
HETATM    8  N2  UNL     1      26.295   0.031  54.399  1.00  0.00    -0.221 NA
HETATM    9  C7  UNL     1      25.993   0.856  53.379  1.00  0.00     0.168 A 
HETATM   10  N3  UNL     1      24.825   0.872  52.711  1.00  0.00    -0.207 N 
ENDROOT
BRANCH  10  11
HETATM   11  O1  UNL     1      23.662   0.207  52.747  1.00  0.00    -0.267 OA
BRANCH  11  12
HETATM   12  C8  UNL     1      22.552   0.376  53.556  1.00  0.00     0.240 C 
BRANCH  12  13
HETATM   13  C9  UNL     1      21.244   0.205  52.878  1.00  0.00    -0.030 A 
HETATM   14  C10 UNL     1      21.030   0.739  51.617  1.00  0.00     0.012 A 
HETATM   15  C11 UNL     1      19.833   0.603  50.957  1.00  0.00     0.044 A 
HETATM   16  C12 UNL     1      18.773  -0.089  51.543  1.00  0.00     0.138 A 
HETATM   17  F1  UNL     1      17.582  -0.259  50.957  1.00  0.00    -0.204 F 
HETATM   18  C13 UNL     1      18.957  -0.631  52.798  1.00  0.00     0.073 A 
HETATM   19 CL1  UNL     1      17.635  -1.514  53.572  1.00  0.00    -0.081 Cl
HETATM   20  C14 UNL     1      20.173  -0.473  53.429  1.00  0.00     0.036 A 
ENDBRANCH  12  13
ENDBRANCH  11  12
ENDBRANCH  10  11
TORSDOF 3
ENDMDL
