MODEL 1
REMARK VINA RESULT:      -8.8      0.000      0.000
REMARK  7 active torsions:
REMARK  status: ('A' for Active; 'I' for Inactive)
REMARK    1  A    between atoms: C7_7  and  N1_8 
REMARK    2  A    between atoms: N1_8  and  C8_9 
REMARK    3  A    between atoms: C11_15  and  O2_16 
REMARK    4  A    between atoms: O2_16  and  C12_17 
REMARK    5  A    between atoms: C12_17  and  C13_18 
REMARK    6  A    between atoms: C13_18  and  O3_19 
REMARK    7  A    between atoms: C15_21  and  O4_22 
ROOT
HETATM    1  C1  UNL     1      31.103   5.298  47.777  1.00  0.00     0.018 C 
HETATM    2  C2  UNL     1      29.931   5.619  47.932  1.00  0.00    -0.078 C 
HETATM    3  C3  UNL     1      28.556   6.004  48.129  1.00  0.00     0.019 A 
HETATM    4  C4  UNL     1      28.182   7.304  47.874  1.00  0.00     0.021 A 
HETATM    5  C5  UNL     1      26.858   7.631  48.074  1.00  0.00     0.004 A 
HETATM    6  C6  UNL     1      25.984   6.659  48.513  1.00  0.00     0.029 A 
HETATM    7  C7  UNL     1      26.350   5.365  48.769  1.00  0.00     0.035 A 
HETATM    8  C21 UNL     1      27.667   5.067  48.562  1.00  0.00     0.050 A 
ENDROOT
BRANCH   7   9
HETATM    9  N1  UNL     1      25.451   4.337  49.234  1.00  0.00    -0.338 N 
HETATM   10  H5  UNL     1      24.516   4.265  48.731  1.00  0.00     0.167 HD
BRANCH   9  11
HETATM   11  C8  UNL     1      25.647   3.399  50.284  1.00  0.00     0.169 A 
HETATM   12  N2  UNL     1      26.893   3.399  50.593  1.00  0.00    -0.088 NA
HETATM   13  O1  UNL     1      27.406   2.595  51.576  1.00  0.00    -0.130 OA
HETATM   14  N3  UNL     1      26.533   1.754  52.255  1.00  0.00    -0.242 N 
HETATM   15  C9  UNL     1      25.116   1.717  51.943  1.00  0.00     0.060 A 
HETATM   16  H6  UNL     1      26.930   1.150  52.997  1.00  0.00     0.196 HD
HETATM   17  C10 UNL     1      24.200   0.961  52.499  1.00  0.00     0.114 C 
HETATM   18  C20 UNL     1      24.600   2.584  50.891  1.00  0.00     0.036 A 
HETATM   19  C11 UNL     1      23.698  -0.074  53.443  1.00  0.00     0.086 C 
HETATM   20  C15 UNL     1      22.360  -0.358  53.437  1.00  0.00     0.075 C 
HETATM   21  C16 UNL     1      20.959  -0.193  52.953  1.00  0.00     0.093 C 
HETATM   22  C17 UNL     1      20.897   0.603  51.654  1.00  0.00     0.174 C 
HETATM   23  O5  UNL     1      21.962   1.397  51.487  1.00  0.00    -0.387 OA
HETATM   24  C18 UNL     1      22.048   2.285  50.470  1.00  0.00     0.196 C 
HETATM   25  C19 UNL     1      23.449   2.778  50.329  1.00  0.00     0.016 C 
BRANCH  19  26
HETATM   26  O2  UNL     1      24.308  -0.929  54.445  1.00  0.00    -0.350 OA
BRANCH  26  27
HETATM   27  C12 UNL     1      25.740  -0.986  54.357  1.00  0.00     0.201 C 
BRANCH  27  28
HETATM   28  C13 UNL     1      26.220   0.052  55.353  1.00  0.00     0.193 C 
BRANCH  28  29
HETATM   29  O3  UNL     1      27.243   0.841  54.892  1.00  0.00    -0.394 OA
HETATM   30  C14 UNL     1      28.462   0.184  54.815  1.00  0.00     0.201 C 
ENDBRANCH  28  29
ENDBRANCH  27  28
ENDBRANCH  26  27
ENDBRANCH  19  26
BRANCH  20  31
HETATM   31  O4  UNL     1      22.071  -1.349  54.389  1.00  0.00    -0.362 OA
HETATM   32  H15 UNL     1      21.223  -1.324  54.921  1.00  0.00     0.217 HD
ENDBRANCH  20  31
ENDBRANCH   9  11
ENDBRANCH   7   9
TORSDOF 7
ENDMDL
MODEL 2
REMARK VINA RESULT:      -8.6      2.747      3.569
REMARK  7 active torsions:
REMARK  status: ('A' for Active; 'I' for Inactive)
REMARK    1  A    between atoms: C7_7  and  N1_8 
REMARK    2  A    between atoms: N1_8  and  C8_9 
REMARK    3  A    between atoms: C11_15  and  O2_16 
REMARK    4  A    between atoms: O2_16  and  C12_17 
REMARK    5  A    between atoms: C12_17  and  C13_18 
REMARK    6  A    between atoms: C13_18  and  O3_19 
REMARK    7  A    between atoms: C15_21  and  O4_22 
ROOT
HETATM    1  C1  UNL     1      24.296   9.516  48.149  1.00  0.00     0.018 C 
HETATM    2  C2  UNL     1      23.764   8.577  48.727  1.00  0.00    -0.078 C 
HETATM    3  C3  UNL     1      23.145   7.475  49.420  1.00  0.00     0.019 A 
HETATM    4  C4  UNL     1      22.089   7.725  50.266  1.00  0.00     0.021 A 
HETATM    5  C5  UNL     1      21.526   6.644  50.910  1.00  0.00     0.004 A 
HETATM    6  C6  UNL     1      22.036   5.384  50.680  1.00  0.00     0.029 A 
HETATM    7  C7  UNL     1      23.086   5.129  49.839  1.00  0.00     0.035 A 
HETATM    8  C21 UNL     1      23.625   6.216  49.215  1.00  0.00     0.050 A 
ENDROOT
BRANCH   7   9
HETATM    9  N1  UNL     1      23.636   3.818  49.592  1.00  0.00    -0.338 N 
HETATM   10  H5  UNL     1      23.299   3.323  48.712  1.00  0.00     0.167 HD
BRANCH   9  11
HETATM   11  C8  UNL     1      24.575   3.091  50.373  1.00  0.00     0.169 A 
HETATM   12  N2  UNL     1      25.754   3.405  49.975  1.00  0.00    -0.088 NA
HETATM   13  O1  UNL     1      26.885   2.868  50.532  1.00  0.00    -0.130 OA
HETATM   14  N3  UNL     1      26.732   1.951  51.565  1.00  0.00    -0.242 N 
HETATM   15  C9  UNL     1      25.421   1.563  52.051  1.00  0.00     0.060 A 
HETATM   16  H6  UNL     1      27.593   1.551  51.981  1.00  0.00     0.196 HD
HETATM   17  C10 UNL     1      25.149   0.703  53.003  1.00  0.00     0.114 C 
HETATM   18  C20 UNL     1      24.237   2.152  51.437  1.00  0.00     0.036 A 
HETATM   19  C11 UNL     1      25.486  -0.285  54.061  1.00  0.00     0.086 C 
HETATM   20  C15 UNL     1      24.459  -0.855  54.764  1.00  0.00     0.075 C 
HETATM   21  C16 UNL     1      23.021  -1.067  55.095  1.00  0.00     0.093 C 
HETATM   22  C17 UNL     1      22.100  -0.480  54.031  1.00  0.00     0.174 C 
HETATM   23  O5  UNL     1      22.685   0.501  53.331  1.00  0.00    -0.387 OA
HETATM   24  C18 UNL     1      22.006   1.246  52.429  1.00  0.00     0.196 C 
HETATM   25  C19 UNL     1      22.955   2.013  51.570  1.00  0.00     0.016 C 
BRANCH  19  26
HETATM   26  O2  UNL     1      26.719  -0.848  54.584  1.00  0.00    -0.350 OA
BRANCH  26  27
HETATM   27  C12 UNL     1      27.680   0.144  54.977  1.00  0.00     0.201 C 
BRANCH  27  28
HETATM   28  C13 UNL     1      28.799   0.005  53.962  1.00  0.00     0.193 C 
BRANCH  28  29
HETATM   29  O3  UNL     1      29.026   1.137  53.220  1.00  0.00    -0.394 OA
HETATM   30  C14 UNL     1      29.041   2.302  53.972  1.00  0.00     0.201 C 
ENDBRANCH  28  29
ENDBRANCH  27  28
ENDBRANCH  26  27
ENDBRANCH  19  26
BRANCH  20  31
HETATM   31  O4  UNL     1      24.964  -1.753  55.718  1.00  0.00    -0.362 OA
HETATM   32  H15 UNL     1      25.635  -1.458  56.400  1.00  0.00     0.217 HD
ENDBRANCH  20  31
ENDBRANCH   9  11
ENDBRANCH   7   9
TORSDOF 7
ENDMDL
MODEL 3
REMARK VINA RESULT:      -8.5      3.639      8.431
REMARK  7 active torsions:
REMARK  status: ('A' for Active; 'I' for Inactive)
REMARK    1  A    between atoms: C7_7  and  N1_8 
REMARK    2  A    between atoms: N1_8  and  C8_9 
REMARK    3  A    between atoms: C11_15  and  O2_16 
REMARK    4  A    between atoms: O2_16  and  C12_17 
REMARK    5  A    between atoms: C12_17  and  C13_18 
REMARK    6  A    between atoms: C13_18  and  O3_19 
REMARK    7  A    between atoms: C15_21  and  O4_22 
ROOT
HETATM    1  C1  UNL     1      15.991   0.062  49.457  1.00  0.00     0.018 C 
HETATM    2  C2  UNL     1      16.476  -0.448  50.458  1.00  0.00    -0.078 C 
HETATM    3  C3  UNL     1      17.035  -1.044  51.646  1.00  0.00     0.019 A 
HETATM    4  C4  UNL     1      16.567  -2.269  52.063  1.00  0.00     0.021 A 
HETATM    5  C5  UNL     1      17.127  -2.805  53.203  1.00  0.00     0.004 A 
HETATM    6  C6  UNL     1      18.113  -2.103  53.861  1.00  0.00     0.029 A 
HETATM    7  C7  UNL     1      18.584  -0.883  53.451  1.00  0.00     0.035 A 
HETATM    8  C21 UNL     1      18.013  -0.376  52.320  1.00  0.00     0.050 A 
ENDROOT
BRANCH   7   9
HETATM    9  N1  UNL     1      19.611  -0.132  54.130  1.00  0.00    -0.338 N 
HETATM   10  H5  UNL     1      19.290   0.724  54.673  1.00  0.00     0.167 HD
BRANCH   9  11
HETATM   11  C8  UNL     1      21.010  -0.384  54.171  1.00  0.00     0.169 A 
HETATM   12  N2  UNL     1      21.215  -1.376  54.960  1.00  0.00    -0.088 NA
HETATM   13  O1  UNL     1      22.469  -1.865  55.215  1.00  0.00    -0.130 OA
HETATM   14  N3  UNL     1      23.548  -1.254  54.589  1.00  0.00    -0.242 N 
HETATM   15  C9  UNL     1      23.370  -0.130  53.688  1.00  0.00     0.060 A 
HETATM   16  H6  UNL     1      24.493  -1.631  54.787  1.00  0.00     0.196 HD
HETATM   17  C10 UNL     1      24.304   0.536  53.053  1.00  0.00     0.114 C 
HETATM   18  C20 UNL     1      22.022   0.368  53.438  1.00  0.00     0.036 A 
HETATM   19  C11 UNL     1      25.704   0.851  52.663  1.00  0.00     0.086 C 
HETATM   20  C15 UNL     1      25.912   1.874  51.778  1.00  0.00     0.075 C 
HETATM   21  C16 UNL     1      25.468   2.984  50.888  1.00  0.00     0.093 C 
HETATM   22  C17 UNL     1      24.010   3.360  51.131  1.00  0.00     0.174 C 
HETATM   23  O5  UNL     1      23.306   2.357  51.671  1.00  0.00    -0.387 OA
HETATM   24  C18 UNL     1      21.967   2.430  51.848  1.00  0.00     0.196 C 
HETATM   25  C19 UNL     1      21.504   1.344  52.760  1.00  0.00     0.016 C 
BRANCH  19  26
HETATM   26  O2  UNL     1      27.009   0.313  53.003  1.00  0.00    -0.350 OA
BRANCH  26  27
HETATM   27  C12 UNL     1      27.150  -0.015  54.394  1.00  0.00     0.201 C 
BRANCH  27  28
HETATM   28  C13 UNL     1      28.644   0.057  54.646  1.00  0.00     0.193 C 
BRANCH  28  29
HETATM   29  O3  UNL     1      29.313   0.915  53.809  1.00  0.00    -0.394 OA
HETATM   30  C14 UNL     1      29.525   2.172  54.354  1.00  0.00     0.201 C 
ENDBRANCH  28  29
ENDBRANCH  27  28
ENDBRANCH  26  27
ENDBRANCH  19  26
BRANCH  20  31
HETATM   31  O4  UNL     1      27.286   2.022  51.525  1.00  0.00    -0.362 OA
HETATM   32  H15 UNL     1      27.959   1.426  51.965  1.00  0.00     0.217 HD
ENDBRANCH  20  31
ENDBRANCH   9  11
ENDBRANCH   7   9
TORSDOF 7
ENDMDL
MODEL 4
REMARK VINA RESULT:      -8.5      2.964      3.862
REMARK  7 active torsions:
REMARK  status: ('A' for Active; 'I' for Inactive)
REMARK    1  A    between atoms: C7_7  and  N1_8 
REMARK    2  A    between atoms: N1_8  and  C8_9 
REMARK    3  A    between atoms: C11_15  and  O2_16 
REMARK    4  A    between atoms: O2_16  and  C12_17 
REMARK    5  A    between atoms: C12_17  and  C13_18 
REMARK    6  A    between atoms: C13_18  and  O3_19 
REMARK    7  A    between atoms: C15_21  and  O4_22 
ROOT
HETATM    1  C1  UNL     1      22.374   7.718  45.338  1.00  0.00     0.018 C 
HETATM    2  C2  UNL     1      22.435   6.676  45.977  1.00  0.00    -0.078 C 
HETATM    3  C3  UNL     1      22.492   5.450  46.734  1.00  0.00     0.019 A 
HETATM    4  C4  UNL     1      22.019   4.290  46.164  1.00  0.00     0.021 A 
HETATM    5  C5  UNL     1      22.091   3.140  46.920  1.00  0.00     0.004 A 
HETATM    6  C6  UNL     1      22.625   3.202  48.190  1.00  0.00     0.029 A 
HETATM    7  C7  UNL     1      23.097   4.353  48.762  1.00  0.00     0.035 A 
HETATM    8  C21 UNL     1      23.015   5.477  47.992  1.00  0.00     0.050 A 
ENDROOT
BRANCH   7   9
HETATM    9  N1  UNL     1      23.654   4.438  50.090  1.00  0.00    -0.338 N 
HETATM   10  H5  UNL     1      23.325   5.253  50.689  1.00  0.00     0.167 HD
BRANCH   9  11
HETATM   11  C8  UNL     1      24.593   3.571  50.712  1.00  0.00     0.169 A 
HETATM   12  N2  UNL     1      25.761   3.859  50.263  1.00  0.00    -0.088 NA
HETATM   13  O1  UNL     1      26.889   3.195  50.670  1.00  0.00    -0.130 OA
HETATM   14  N3  UNL     1      26.746   2.176  51.603  1.00  0.00    -0.242 N 
HETATM   15  C9  UNL     1      25.448   1.812  52.141  1.00  0.00     0.060 A 
HETATM   16  H6  UNL     1      27.605   1.680  51.905  1.00  0.00     0.196 HD
HETATM   17  C10 UNL     1      25.185   0.865  53.009  1.00  0.00     0.114 C 
HETATM   18  C20 UNL     1      24.267   2.537  51.688  1.00  0.00     0.036 A 
HETATM   19  C11 UNL     1      25.527  -0.257  53.923  1.00  0.00     0.086 C 
HETATM   20  C15 UNL     1      24.515  -0.842  54.634  1.00  0.00     0.075 C 
HETATM   21  C16 UNL     1      23.092  -1.006  55.048  1.00  0.00     0.093 C 
HETATM   22  C17 UNL     1      22.141  -0.246  54.129  1.00  0.00     0.174 C 
HETATM   23  O5  UNL     1      22.741   0.772  53.500  1.00  0.00    -0.387 OA
HETATM   24  C18 UNL     1      22.054   1.656  52.740  1.00  0.00     0.196 C 
HETATM   25  C19 UNL     1      22.991   2.460  51.903  1.00  0.00     0.016 C 
BRANCH  19  26
HETATM   26  O2  UNL     1      26.752  -0.948  54.285  1.00  0.00    -0.350 OA
BRANCH  26  27
HETATM   27  C12 UNL     1      27.637  -1.167  53.175  1.00  0.00     0.201 C 
BRANCH  27  28
HETATM   28  C13 UNL     1      28.936  -0.506  53.595  1.00  0.00     0.193 C 
BRANCH  28  29
HETATM   29  O3  UNL     1      29.032   0.817  53.242  1.00  0.00    -0.394 OA
HETATM   30  C14 UNL     1      29.137   1.675  54.326  1.00  0.00     0.201 C 
ENDBRANCH  28  29
ENDBRANCH  27  28
ENDBRANCH  26  27
ENDBRANCH  19  26
BRANCH  20  31
HETATM   31  O4  UNL     1      25.023  -1.873  55.441  1.00  0.00    -0.362 OA
HETATM   32  H15 UNL     1      24.911  -1.853  56.436  1.00  0.00     0.217 HD
ENDBRANCH  20  31
ENDBRANCH   9  11
ENDBRANCH   7   9
TORSDOF 7
ENDMDL
MODEL 5
REMARK VINA RESULT:      -8.2      1.815      4.151
REMARK  7 active torsions:
REMARK  status: ('A' for Active; 'I' for Inactive)
REMARK    1  A    between atoms: C7_7  and  N1_8 
REMARK    2  A    between atoms: N1_8  and  C8_9 
REMARK    3  A    between atoms: C11_15  and  O2_16 
REMARK    4  A    between atoms: O2_16  and  C12_17 
REMARK    5  A    between atoms: C12_17  and  C13_18 
REMARK    6  A    between atoms: C13_18  and  O3_19 
REMARK    7  A    between atoms: C15_21  and  O4_22 
ROOT
HETATM    1  C1  UNL     1      28.777   7.901  48.178  1.00  0.00     0.018 C 
HETATM    2  C2  UNL     1      27.692   7.560  48.633  1.00  0.00    -0.078 C 
HETATM    3  C3  UNL     1      26.422   7.156  49.182  1.00  0.00     0.019 A 
HETATM    4  C4  UNL     1      25.714   8.047  49.956  1.00  0.00     0.021 A 
HETATM    5  C5  UNL     1      24.505   7.622  50.462  1.00  0.00     0.004 A 
HETATM    6  C6  UNL     1      24.066   6.347  50.175  1.00  0.00     0.029 A 
HETATM    7  C7  UNL     1      24.766   5.456  49.405  1.00  0.00     0.035 A 
HETATM    8  C21 UNL     1      25.959   5.903  48.916  1.00  0.00     0.050 A 
ENDROOT
BRANCH   7   9
HETATM    9  N1  UNL     1      24.325   4.117  49.099  1.00  0.00    -0.338 N 
HETATM   10  H5  UNL     1      24.466   3.791  48.097  1.00  0.00     0.167 HD
BRANCH   9  11
HETATM   11  C8  UNL     1      23.719   3.166  49.965  1.00  0.00     0.169 A 
HETATM   12  N2  UNL     1      22.469   3.103  49.678  1.00  0.00    -0.088 NA
HETATM   13  O1  UNL     1      21.604   2.274  50.340  1.00  0.00    -0.130 OA
HETATM   14  N3  UNL     1      22.113   1.475  51.357  1.00  0.00    -0.242 N 
HETATM   15  C9  UNL     1      23.518   1.509  51.720  1.00  0.00     0.060 A 
HETATM   16  H6  UNL     1      21.452   0.851  51.852  1.00  0.00     0.196 HD
HETATM   17  C10 UNL     1      24.112   0.820  52.664  1.00  0.00     0.114 C 
HETATM   18  C20 UNL     1      24.414   2.404  50.996  1.00  0.00     0.036 A 
HETATM   19  C11 UNL     1      24.171  -0.157  53.784  1.00  0.00     0.086 C 
HETATM   20  C15 UNL     1      25.385  -0.398  54.367  1.00  0.00     0.075 C 
HETATM   21  C16 UNL     1      26.854  -0.200  54.530  1.00  0.00     0.093 C 
HETATM   22  C17 UNL     1      27.350   1.027  53.772  1.00  0.00     0.174 C 
HETATM   23  O5  UNL     1      26.545   1.361  52.756  1.00  0.00    -0.387 OA
HETATM   24  C18 UNL     1      26.865   2.337  51.874  1.00  0.00     0.196 C 
HETATM   25  C19 UNL     1      25.667   2.724  51.073  1.00  0.00     0.016 C 
BRANCH  19  26
HETATM   26  O2  UNL     1      23.198  -0.985  54.474  1.00  0.00    -0.350 OA
BRANCH  26  27
HETATM   27  C12 UNL     1      22.140  -1.456  53.625  1.00  0.00     0.201 C 
BRANCH  27  28
HETATM   28  C13 UNL     1      20.917  -0.688  54.090  1.00  0.00     0.193 C 
BRANCH  28  29
HETATM   29  O3  UNL     1      20.242  -0.045  53.083  1.00  0.00    -0.394 OA
HETATM   30  C14 UNL     1      18.937  -0.485  52.919  1.00  0.00     0.201 C 
ENDBRANCH  28  29
ENDBRANCH  27  28
ENDBRANCH  26  27
ENDBRANCH  19  26
BRANCH  20  31
HETATM   31  O4  UNL     1      25.248  -1.344  55.396  1.00  0.00    -0.362 OA
HETATM   32  H15 UNL     1      25.014  -2.296  55.194  1.00  0.00     0.217 HD
ENDBRANCH  20  31
ENDBRANCH   9  11
ENDBRANCH   7   9
TORSDOF 7
ENDMDL
MODEL 6
REMARK VINA RESULT:      -8.1      3.144      8.435
REMARK  7 active torsions:
REMARK  status: ('A' for Active; 'I' for Inactive)
REMARK    1  A    between atoms: C7_7  and  N1_8 
REMARK    2  A    between atoms: N1_8  and  C8_9 
REMARK    3  A    between atoms: C11_15  and  O2_16 
REMARK    4  A    between atoms: O2_16  and  C12_17 
REMARK    5  A    between atoms: C12_17  and  C13_18 
REMARK    6  A    between atoms: C13_18  and  O3_19 
REMARK    7  A    between atoms: C15_21  and  O4_22 
ROOT
HETATM    1  C1  UNL     1      28.316   0.159  54.790  1.00  0.00     0.018 C 
HETATM    2  C2  UNL     1      27.126   0.076  54.516  1.00  0.00    -0.078 C 
HETATM    3  C3  UNL     1      25.727  -0.036  54.187  1.00  0.00     0.019 A 
HETATM    4  C4  UNL     1      24.921  -0.843  54.958  1.00  0.00     0.021 A 
HETATM    5  C5  UNL     1      23.589  -0.923  54.610  1.00  0.00     0.004 A 
HETATM    6  C6  UNL     1      23.133  -0.204  53.526  1.00  0.00     0.029 A 
HETATM    7  C7  UNL     1      23.930   0.600  52.755  1.00  0.00     0.035 A 
HETATM    8  C21 UNL     1      25.244   0.661  53.121  1.00  0.00     0.050 A 
ENDROOT
BRANCH   7   9
HETATM    9  N1  UNL     1      23.471   1.354  51.614  1.00  0.00    -0.338 N 
HETATM   10  H5  UNL     1      23.177   0.790  50.761  1.00  0.00     0.167 HD
BRANCH   9  11
HETATM   11  C8  UNL     1      23.359   2.764  51.473  1.00  0.00     0.169 A 
HETATM   12  N2  UNL     1      22.255   3.133  52.016  1.00  0.00    -0.088 NA
HETATM   13  O1  UNL     1      21.852   4.442  52.044  1.00  0.00    -0.130 OA
HETATM   14  N3  UNL     1      22.680   5.394  51.461  1.00  0.00    -0.242 N 
HETATM   15  C9  UNL     1      23.937   5.028  50.835  1.00  0.00     0.060 A 
HETATM   16  H6  UNL     1      22.367   6.381  51.487  1.00  0.00     0.196 HD
HETATM   17  C10 UNL     1      24.792   5.826  50.241  1.00  0.00     0.114 C 
HETATM   18  C20 UNL     1      24.338   3.626  50.820  1.00  0.00     0.036 A 
HETATM   19  C11 UNL     1      25.294   7.139  49.754  1.00  0.00     0.086 C 
HETATM   20  C15 UNL     1      26.504   7.170  49.116  1.00  0.00     0.075 C 
HETATM   21  C16 UNL     1      27.742   6.549  48.566  1.00  0.00     0.093 C 
HETATM   22  C17 UNL     1      27.638   5.030  48.504  1.00  0.00     0.174 C 
HETATM   23  O5  UNL     1      26.747   4.542  49.377  1.00  0.00    -0.387 OA
HETATM   24  C18 UNL     1      26.591   3.213  49.581  1.00  0.00     0.196 C 
HETATM   25  C19 UNL     1      25.328   2.948  50.329  1.00  0.00     0.016 C 
BRANCH  19  26
HETATM   26  O2  UNL     1      24.794   8.502  49.782  1.00  0.00    -0.350 OA
BRANCH  26  27
HETATM   27  C12 UNL     1      23.399   8.609  49.459  1.00  0.00     0.201 C 
BRANCH  27  28
HETATM   28  C13 UNL     1      23.363   9.537  48.260  1.00  0.00     0.193 C 
BRANCH  28  29
HETATM   29  O3  UNL     1      24.329   9.278  47.320  1.00  0.00    -0.394 OA
HETATM   30  C14 UNL     1      23.961   8.312  46.395  1.00  0.00     0.201 C 
ENDBRANCH  28  29
ENDBRANCH  27  28
ENDBRANCH  26  27
ENDBRANCH  19  26
BRANCH  20  31
HETATM   31  O4  UNL     1      26.815   8.485  48.733  1.00  0.00    -0.362 OA
HETATM   32  H15 UNL     1      26.106   9.105  48.392  1.00  0.00     0.217 HD
ENDBRANCH  20  31
ENDBRANCH   9  11
ENDBRANCH   7   9
TORSDOF 7
ENDMDL
MODEL 7
REMARK VINA RESULT:      -8.0      4.318      6.669
REMARK  7 active torsions:
REMARK  status: ('A' for Active; 'I' for Inactive)
REMARK    1  A    between atoms: C7_7  and  N1_8 
REMARK    2  A    between atoms: N1_8  and  C8_9 
REMARK    3  A    between atoms: C11_15  and  O2_16 
REMARK    4  A    between atoms: O2_16  and  C12_17 
REMARK    5  A    between atoms: C12_17  and  C13_18 
REMARK    6  A    between atoms: C13_18  and  O3_19 
REMARK    7  A    between atoms: C15_21  and  O4_22 
ROOT
HETATM    1  C1  UNL     1      30.164  -1.734  53.616  1.00  0.00     0.018 C 
HETATM    2  C2  UNL     1      29.314  -0.853  53.606  1.00  0.00    -0.078 C 
HETATM    3  C3  UNL     1      28.315   0.186  53.608  1.00  0.00     0.019 A 
HETATM    4  C4  UNL     1      28.716   1.500  53.682  1.00  0.00     0.021 A 
HETATM    5  C5  UNL     1      27.729   2.463  53.682  1.00  0.00     0.004 A 
HETATM    6  C6  UNL     1      26.409   2.073  53.610  1.00  0.00     0.029 A 
HETATM    7  C7  UNL     1      26.003   0.766  53.537  1.00  0.00     0.035 A 
HETATM    8  C21 UNL     1      27.000  -0.166  53.537  1.00  0.00     0.050 A 
ENDROOT
BRANCH   7   9
HETATM    9  N1  UNL     1      24.627   0.340  53.466  1.00  0.00    -0.338 N 
HETATM   10  H5  UNL     1      24.298  -0.324  54.229  1.00  0.00     0.167 HD
BRANCH   9  11
HETATM   11  C8  UNL     1      23.642   0.689  52.502  1.00  0.00     0.169 A 
HETATM   12  N2  UNL     1      24.191   1.451  51.627  1.00  0.00    -0.088 NA
HETATM   13  O1  UNL     1      23.499   1.963  50.561  1.00  0.00    -0.130 OA
HETATM   14  N3  UNL     1      22.155   1.635  50.436  1.00  0.00    -0.242 N 
HETATM   15  C9  UNL     1      21.487   0.779  51.399  1.00  0.00     0.060 A 
HETATM   16  H6  UNL     1      21.640   2.027  49.627  1.00  0.00     0.196 HD
HETATM   17  C10 UNL     1      20.228   0.413  51.399  1.00  0.00     0.114 C 
HETATM   18  C20 UNL     1      22.251   0.250  52.523  1.00  0.00     0.036 A 
HETATM   19  C11 UNL     1      18.838   0.373  50.873  1.00  0.00     0.086 C 
HETATM   20  C15 UNL     1      17.916  -0.384  51.543  1.00  0.00     0.075 C 
HETATM   21  C16 UNL     1      17.474  -1.294  52.639  1.00  0.00     0.093 C 
HETATM   22  C17 UNL     1      18.502  -1.374  53.761  1.00  0.00     0.174 C 
HETATM   23  O5  UNL     1      19.738  -1.065  53.347  1.00  0.00    -0.387 OA
HETATM   24  C18 UNL     1      20.821  -1.199  54.147  1.00  0.00     0.196 C 
HETATM   25  C19 UNL     1      21.989  -0.476  53.564  1.00  0.00     0.016 C 
BRANCH  19  26
HETATM   26  O2  UNL     1      18.150   0.977  49.745  1.00  0.00    -0.350 OA
BRANCH  26  27
HETATM   27  C12 UNL     1      18.146   2.412  49.777  1.00  0.00     0.201 C 
BRANCH  27  28
HETATM   28  C13 UNL     1      19.092   2.815  48.662  1.00  0.00     0.193 C 
BRANCH  28  29
HETATM   29  O3  UNL     1      20.155   3.577  49.076  1.00  0.00    -0.394 OA
HETATM   30  C14 UNL     1      19.888   4.338  50.205  1.00  0.00     0.201 C 
ENDBRANCH  28  29
ENDBRANCH  27  28
ENDBRANCH  26  27
ENDBRANCH  19  26
BRANCH  20  31
HETATM   31  O4  UNL     1      16.668  -0.305  50.904  1.00  0.00    -0.362 OA
HETATM   32  H15 UNL     1      16.080   0.498  51.016  1.00  0.00     0.217 HD
ENDBRANCH  20  31
ENDBRANCH   9  11
ENDBRANCH   7   9
TORSDOF 7
ENDMDL
MODEL 8
REMARK VINA RESULT:      -7.9      3.409      7.871
REMARK  7 active torsions:
REMARK  status: ('A' for Active; 'I' for Inactive)
REMARK    1  A    between atoms: C7_7  and  N1_8 
REMARK    2  A    between atoms: N1_8  and  C8_9 
REMARK    3  A    between atoms: C11_15  and  O2_16 
REMARK    4  A    between atoms: O2_16  and  C12_17 
REMARK    5  A    between atoms: C12_17  and  C13_18 
REMARK    6  A    between atoms: C13_18  and  O3_19 
REMARK    7  A    between atoms: C15_21  and  O4_22 
ROOT
HETATM    1  C1  UNL     1      13.865   0.508  49.896  1.00  0.00     0.018 C 
HETATM    2  C2  UNL     1      14.928   0.977  50.284  1.00  0.00    -0.078 C 
HETATM    3  C3  UNL     1      16.180   1.536  50.728  1.00  0.00     0.019 A 
HETATM    4  C4  UNL     1      16.222   2.853  51.124  1.00  0.00     0.021 A 
HETATM    5  C5  UNL     1      17.439   3.349  51.541  1.00  0.00     0.004 A 
HETATM    6  C6  UNL     1      18.539   2.519  51.542  1.00  0.00     0.029 A 
HETATM    7  C7  UNL     1      18.504   1.207  51.149  1.00  0.00     0.035 A 
HETATM    8  C21 UNL     1      17.287   0.741  50.741  1.00  0.00     0.050 A 
ENDROOT
BRANCH   7   9
HETATM    9  N1  UNL     1      19.646   0.325  51.138  1.00  0.00    -0.338 N 
HETATM   10  H5  UNL     1      19.626  -0.464  50.426  1.00  0.00     0.167 HD
BRANCH   9  11
HETATM   11  C8  UNL     1      20.804   0.369  51.961  1.00  0.00     0.169 A 
HETATM   12  N2  UNL     1      20.535  -0.235  53.062  1.00  0.00    -0.088 NA
HETATM   13  O1  UNL     1      21.451  -0.363  54.072  1.00  0.00    -0.130 OA
HETATM   14  N3  UNL     1      22.714   0.185  53.883  1.00  0.00    -0.242 N 
HETATM   15  C9  UNL     1      23.067   0.877  52.657  1.00  0.00     0.060 A 
HETATM   16  H6  UNL     1      23.401   0.082  54.652  1.00  0.00     0.196 HD
HETATM   17  C10 UNL     1      24.213   1.446  52.368  1.00  0.00     0.114 C 
HETATM   18  C20 UNL     1      22.070   0.997  51.600  1.00  0.00     0.036 A 
HETATM   19  C11 UNL     1      25.615   1.862  52.635  1.00  0.00     0.086 C 
HETATM   20  C15 UNL     1      26.286   2.539  51.653  1.00  0.00     0.075 C 
HETATM   21  C16 UNL     1      26.408   3.172  50.309  1.00  0.00     0.093 C 
HETATM   22  C17 UNL     1      25.053   3.329  49.629  1.00  0.00     0.174 C 
HETATM   23  O5  UNL     1      24.144   2.460  50.090  1.00  0.00    -0.387 OA
HETATM   24  C18 UNL     1      22.916   2.339  49.535  1.00  0.00     0.196 C 
HETATM   25  C19 UNL     1      22.013   1.566  50.437  1.00  0.00     0.016 C 
BRANCH  19  26
HETATM   26  O2  UNL     1      26.528   1.727  53.756  1.00  0.00    -0.350 OA
BRANCH  26  27
HETATM   27  C12 UNL     1      26.533   0.415  54.339  1.00  0.00     0.201 C 
BRANCH  27  28
HETATM   28  C13 UNL     1      27.902  -0.142  53.997  1.00  0.00     0.193 C 
BRANCH  28  29
HETATM   29  O3  UNL     1      27.876  -1.413  53.478  1.00  0.00    -0.394 OA
HETATM   30  C14 UNL     1      26.772  -1.664  52.677  1.00  0.00     0.201 C 
ENDBRANCH  28  29
ENDBRANCH  27  28
ENDBRANCH  26  27
ENDBRANCH  19  26
BRANCH  20  31
HETATM   31  O4  UNL     1      27.589   2.845  52.080  1.00  0.00    -0.362 OA
HETATM   32  H15 UNL     1      27.770   3.646  52.653  1.00  0.00     0.217 HD
ENDBRANCH  20  31
ENDBRANCH   9  11
ENDBRANCH   7   9
TORSDOF 7
ENDMDL
MODEL 9
REMARK VINA RESULT:      -7.8      3.383      6.640
REMARK  7 active torsions:
REMARK  status: ('A' for Active; 'I' for Inactive)
REMARK    1  A    between atoms: C7_7  and  N1_8 
REMARK    2  A    between atoms: N1_8  and  C8_9 
REMARK    3  A    between atoms: C11_15  and  O2_16 
REMARK    4  A    between atoms: O2_16  and  C12_17 
REMARK    5  A    between atoms: C12_17  and  C13_18 
REMARK    6  A    between atoms: C13_18  and  O3_19 
REMARK    7  A    between atoms: C15_21  and  O4_22 
ROOT
HETATM    1  C1  UNL     1      28.810  -2.785  53.078  1.00  0.00     0.018 C 
HETATM    2  C2  UNL     1      28.708  -1.572  53.214  1.00  0.00    -0.078 C 
HETATM    3  C3  UNL     1      28.582  -0.147  53.388  1.00  0.00     0.019 A 
HETATM    4  C4  UNL     1      29.557   0.530  54.086  1.00  0.00     0.021 A 
HETATM    5  C5  UNL     1      29.399   1.892  54.231  1.00  0.00     0.004 A 
HETATM    6  C6  UNL     1      28.293   2.503  53.680  1.00  0.00     0.029 A 
HETATM    7  C7  UNL     1      27.320   1.835  52.985  1.00  0.00     0.035 A 
HETATM    8  C21 UNL     1      27.501   0.488  52.856  1.00  0.00     0.050 A 
ENDROOT
BRANCH   7   9
HETATM    9  N1  UNL     1      26.154   2.457  52.406  1.00  0.00    -0.338 N 
HETATM   10  H5  UNL     1      26.282   3.445  52.033  1.00  0.00     0.167 HD
BRANCH   9  11
HETATM   11  C8  UNL     1      24.844   1.924  52.269  1.00  0.00     0.169 A 
HETATM   12  N2  UNL     1      24.635   1.119  53.247  1.00  0.00    -0.088 NA
HETATM   13  O1  UNL     1      23.456   0.438  53.399  1.00  0.00    -0.130 OA
HETATM   14  N3  UNL     1      22.459   0.637  52.452  1.00  0.00    -0.242 N 
HETATM   15  C9  UNL     1      22.646   1.536  51.328  1.00  0.00     0.060 A 
HETATM   16  H6  UNL     1      21.571   0.118  52.575  1.00  0.00     0.196 HD
HETATM   17  C10 UNL     1      21.792   1.794  50.366  1.00  0.00     0.114 C 
HETATM   18  C20 UNL     1      23.912   2.246  51.193  1.00  0.00     0.036 A 
HETATM   19  C11 UNL     1      20.502   1.661  49.640  1.00  0.00     0.086 C 
HETATM   20  C15 UNL     1      20.318   2.408  48.508  1.00  0.00     0.075 C 
HETATM   21  C16 UNL     1      20.742   3.392  47.471  1.00  0.00     0.093 C 
HETATM   22  C17 UNL     1      22.237   3.680  47.538  1.00  0.00     0.174 C 
HETATM   23  O5  UNL     1      22.754   3.431  48.748  1.00  0.00    -0.387 OA
HETATM   24  C18 UNL     1      24.033   3.741  49.064  1.00  0.00     0.196 C 
HETATM   25  C19 UNL     1      24.434   3.058  50.328  1.00  0.00     0.016 C 
BRANCH  19  26
HETATM   26  O2  UNL     1      19.292   0.882  49.834  1.00  0.00    -0.350 OA
BRANCH  26  27
HETATM   27  C12 UNL     1      19.135   0.390  51.174  1.00  0.00     0.201 C 
BRANCH  27  28
HETATM   28  C13 UNL     1      17.805   0.961  51.629  1.00  0.00     0.193 C 
BRANCH  28  29
HETATM   29  O3  UNL     1      16.904   0.016  52.052  1.00  0.00    -0.394 OA
HETATM   30  C14 UNL     1      17.476  -1.001  52.803  1.00  0.00     0.201 C 
ENDBRANCH  28  29
ENDBRANCH  27  28
ENDBRANCH  26  27
ENDBRANCH  19  26
BRANCH  20  31
HETATM   31  O4  UNL     1      19.048   2.156  47.963  1.00  0.00    -0.362 OA
HETATM   32  H15 UNL     1      18.282   1.880  48.545  1.00  0.00     0.217 HD
ENDBRANCH  20  31
ENDBRANCH   9  11
ENDBRANCH   7   9
TORSDOF 7
ENDMDL
