MODEL 1
REMARK VINA RESULT:      -9.0      0.000      0.000
REMARK  1 active torsions:
REMARK  status: ('A' for Active; 'I' for Inactive)
REMARK    1  A    between atoms: N1_2  and  C2_3 
ROOT
HETATM    1  C2  UNL     1      23.071   4.411  49.296  1.00  0.00     0.262 C 
HETATM    2  C3  UNL     1      24.486   4.823  49.181  1.00  0.00     0.033 C 
HETATM    3  C4  UNL     1      25.838   4.878  49.272  1.00  0.00     0.029 C 
HETATM    4 CL1  UNL     1      26.610   6.302  48.498  1.00  0.00    -0.085 Cl
HETATM    5  C5  UNL     1      26.797   3.921  49.919  1.00  0.00     0.002 C 
HETATM    6  C6  UNL     1      26.046   2.907  50.442  1.00  0.00     0.046 C 
HETATM    7  C7  UNL     1      26.804   1.811  51.150  1.00  0.00    -0.013 C 
HETATM    8  C8  UNL     1      26.177   0.746  51.712  1.00  0.00     0.010 C 
HETATM    9  C9  UNL     1      26.453  -0.495  52.458  1.00  0.00     0.126 C 
HETATM   10  N2  UNL     1      25.858  -0.608  53.756  1.00  0.00    -0.373 N 
HETATM   11  C10 UNL     1      24.506  -0.701  54.141  1.00  0.00     0.141 A 
HETATM   12  C11 UNL     1      24.108  -1.266  55.330  1.00  0.00     0.166 A 
HETATM   13  N3  UNL     1      22.818  -1.366  55.697  1.00  0.00    -0.267 NA
HETATM   14  C12 UNL     1      21.815  -0.918  54.921  1.00  0.00     0.148 A 
HETATM   15  C13 UNL     1      22.251  -0.364  53.752  1.00  0.00     0.088 A 
HETATM   16  N4  UNL     1      23.535  -0.256  53.370  1.00  0.00    -0.228 NA
HETATM   17  C14 UNL     1      21.386   0.204  52.724  1.00  0.00     0.014 A 
HETATM   18  C15 UNL     1      20.162  -0.381  52.592  1.00  0.00     0.130 A 
HETATM   19  N5  UNL     1      19.352   0.146  51.627  1.00  0.00    -0.270 NA
HETATM   20  C16 UNL     1      19.746   1.179  50.860  1.00  0.00     0.145 A 
HETATM   21  C17 UNL     1      20.960   1.770  50.980  1.00  0.00     0.046 A 
HETATM   22  C18 UNL     1      21.794   1.277  51.926  1.00  0.00     0.046 A 
HETATM   23  N6  UNL     1      21.471   2.843  50.244  1.00  0.00    -0.386 N 
HETATM   24  C19 UNL     1      22.909   3.145  50.152  1.00  0.00     0.159 C 
HETATM   25  H13 UNL     1      26.510  -0.628  54.597  1.00  0.00     0.161 HD
HETATM   26  H19 UNL     1      20.678   3.363  49.794  1.00  0.00     0.159 HD
ENDROOT
BRANCH   1  27
HETATM   27  N1  UNL     1      22.296   5.457  49.995  1.00  0.00     0.088 N 
HETATM   28  C1  UNL     1      23.008   5.858  51.193  1.00  0.00     0.307 C 
HETATM   29  H4  UNL     1      21.384   5.073  50.285  1.00  0.00     0.316 HD
ENDBRANCH   1  27
TORSDOF 1
ENDMDL
MODEL 2
REMARK VINA RESULT:      -8.5      3.070      6.110
REMARK  1 active torsions:
REMARK  status: ('A' for Active; 'I' for Inactive)
REMARK    1  A    between atoms: N1_2  and  C2_3 
ROOT
HETATM    1  C2  UNL     1      18.921   1.307  51.233  1.00  0.00     0.262 C 
HETATM    2  C3  UNL     1      18.259   0.155  51.880  1.00  0.00     0.033 C 
HETATM    3  C4  UNL     1      17.989  -0.931  52.647  1.00  0.00     0.029 C 
HETATM    4 CL1  UNL     1      16.338  -1.614  52.471  1.00  0.00    -0.085 Cl
HETATM    5  C5  UNL     1      18.862  -1.651  53.633  1.00  0.00     0.002 C 
HETATM    6  C6  UNL     1      20.061  -0.999  53.644  1.00  0.00     0.046 C 
HETATM    7  C7  UNL     1      21.113  -1.550  54.575  1.00  0.00    -0.013 C 
HETATM    8  C8  UNL     1      22.347  -0.992  54.683  1.00  0.00     0.010 C 
HETATM    9  C9  UNL     1      23.627  -1.149  55.398  1.00  0.00     0.126 C 
HETATM   10  N2  UNL     1      24.788  -1.370  54.590  1.00  0.00    -0.373 N 
HETATM   11  C10 UNL     1      25.433  -0.531  53.659  1.00  0.00     0.141 A 
HETATM   12  C11 UNL     1      26.759  -0.673  53.323  1.00  0.00     0.166 A 
HETATM   13  N3  UNL     1      27.381   0.131  52.443  1.00  0.00    -0.267 NA
HETATM   14  C12 UNL     1      26.747   1.143  51.825  1.00  0.00     0.148 A 
HETATM   15  C13 UNL     1      25.435   1.251  52.184  1.00  0.00     0.088 A 
HETATM   16  N4  UNL     1      24.798   0.455  53.061  1.00  0.00    -0.228 NA
HETATM   17  C14 UNL     1      24.507   2.252  51.671  1.00  0.00     0.014 A 
HETATM   18  C15 UNL     1      25.056   3.461  51.358  1.00  0.00     0.130 A 
HETATM   19  N5  UNL     1      24.190   4.402  50.880  1.00  0.00    -0.270 NA
HETATM   20  C16 UNL     1      22.877   4.143  50.732  1.00  0.00     0.145 A 
HETATM   21  C17 UNL     1      22.318   2.947  51.038  1.00  0.00     0.046 A 
HETATM   22  C18 UNL     1      23.144   1.986  51.515  1.00  0.00     0.046 A 
HETATM   23  N6  UNL     1      20.977   2.570  50.923  1.00  0.00    -0.386 N 
HETATM   24  C19 UNL     1      20.396   1.429  51.649  1.00  0.00     0.159 C 
HETATM   25  H13 UNL     1      25.276  -2.313  54.675  1.00  0.00     0.161 HD
HETATM   26  H19 UNL     1      20.491   3.219  50.257  1.00  0.00     0.159 HD
ENDROOT
BRANCH   1  27
HETATM   27  N1  UNL     1      18.943   1.120  49.768  1.00  0.00     0.088 N 
HETATM   28  C1  UNL     1      17.930   1.964  49.164  1.00  0.00     0.307 C 
HETATM   29  H4  UNL     1      18.711   0.140  49.543  1.00  0.00     0.316 HD
ENDBRANCH   1  27
TORSDOF 1
ENDMDL
MODEL 3
REMARK VINA RESULT:      -8.3      2.495      4.226
REMARK  1 active torsions:
REMARK  status: ('A' for Active; 'I' for Inactive)
REMARK    1  A    between atoms: N1_2  and  C2_3 
ROOT
HETATM    1  C2  UNL     1      19.749   3.279  50.439  1.00  0.00     0.262 C 
HETATM    2  C3  UNL     1      20.015   4.426  49.546  1.00  0.00     0.033 C 
HETATM    3  C4  UNL     1      20.619   5.363  48.774  1.00  0.00     0.029 C 
HETATM    4 CL1  UNL     1      19.523   6.556  48.000  1.00  0.00    -0.085 Cl
HETATM    5  C5  UNL     1      22.074   5.553  48.456  1.00  0.00     0.002 C 
HETATM    6  C6  UNL     1      22.751   4.565  49.112  1.00  0.00     0.046 C 
HETATM    7  C7  UNL     1      24.250   4.553  48.938  1.00  0.00    -0.013 C 
HETATM    8  C8  UNL     1      25.039   3.623  49.535  1.00  0.00     0.010 C 
HETATM    9  C9  UNL     1      26.451   3.217  49.664  1.00  0.00     0.126 C 
HETATM   10  N2  UNL     1      26.998   3.216  50.987  1.00  0.00    -0.373 N 
HETATM   11  C10 UNL     1      26.687   2.421  52.109  1.00  0.00     0.141 A 
HETATM   12  C11 UNL     1      27.578   2.199  53.133  1.00  0.00     0.166 A 
HETATM   13  N3  UNL     1      27.290   1.434  54.200  1.00  0.00    -0.267 NA
HETATM   14  C12 UNL     1      26.100   0.823  54.344  1.00  0.00     0.148 A 
HETATM   15  C13 UNL     1      25.246   1.068  53.309  1.00  0.00     0.088 A 
HETATM   16  N4  UNL     1      25.517   1.830  52.236  1.00  0.00    -0.228 NA
HETATM   17  C14 UNL     1      23.891   0.539  53.201  1.00  0.00     0.014 A 
HETATM   18  C15 UNL     1      23.691  -0.692  53.753  1.00  0.00     0.130 A 
HETATM   19  N5  UNL     1      22.425  -1.192  53.650  1.00  0.00    -0.270 NA
HETATM   20  C16 UNL     1      21.442  -0.505  53.040  1.00  0.00     0.145 A 
HETATM   21  C17 UNL     1      21.625   0.719  52.487  1.00  0.00     0.046 A 
HETATM   22  C18 UNL     1      22.868   1.251  52.568  1.00  0.00     0.046 A 
HETATM   23  N6  UNL     1      20.682   1.518  51.835  1.00  0.00    -0.386 N 
HETATM   24  C19 UNL     1      21.047   2.613  50.921  1.00  0.00     0.159 C 
HETATM   25  H13 UNL     1      27.770   3.916  51.202  1.00  0.00     0.161 HD
HETATM   26  H19 UNL     1      19.717   1.206  52.105  1.00  0.00     0.159 HD
ENDROOT
BRANCH   1  27
HETATM   27  N1  UNL     1      19.068   3.741  51.666  1.00  0.00     0.088 N 
HETATM   28  C1  UNL     1      17.635   3.591  51.503  1.00  0.00     0.307 C 
HETATM   29  H4  UNL     1      19.265   4.743  51.812  1.00  0.00     0.316 HD
ENDBRANCH   1  27
TORSDOF 1
ENDMDL
MODEL 4
REMARK VINA RESULT:      -8.3      3.266      7.716
REMARK  1 active torsions:
REMARK  status: ('A' for Active; 'I' for Inactive)
REMARK    1  A    between atoms: N1_2  and  C2_3 
ROOT
HETATM    1  C2  UNL     1      26.744   1.997  51.735  1.00  0.00     0.262 C 
HETATM    2  C3  UNL     1      25.905   1.054  52.504  1.00  0.00     0.033 C 
HETATM    3  C4  UNL     1      24.855   0.388  53.044  1.00  0.00     0.029 C 
HETATM    4 CL1  UNL     1      25.278  -0.960  54.152  1.00  0.00    -0.085 Cl
HETATM    5  C5  UNL     1      23.381   0.599  52.852  1.00  0.00     0.002 C 
HETATM    6  C6  UNL     1      23.245   1.643  51.983  1.00  0.00     0.046 C 
HETATM    7  C7  UNL     1      21.833   2.042  51.633  1.00  0.00    -0.013 C 
HETATM    8  C8  UNL     1      21.561   3.063  50.780  1.00  0.00     0.010 C 
HETATM    9  C9  UNL     1      20.431   3.784  50.164  1.00  0.00     0.126 C 
HETATM   10  N2  UNL     1      20.341   5.187  50.438  1.00  0.00    -0.373 N 
HETATM   11  C10 UNL     1      21.192   6.250  50.075  1.00  0.00     0.141 A 
HETATM   12  C11 UNL     1      20.761   7.553  49.989  1.00  0.00     0.166 A 
HETATM   13  N3  UNL     1      21.566   8.569  49.634  1.00  0.00    -0.267 NA
HETATM   14  C12 UNL     1      22.863   8.382  49.331  1.00  0.00     0.148 A 
HETATM   15  C13 UNL     1      23.252   7.078  49.428  1.00  0.00     0.088 A 
HETATM   16  N4  UNL     1      22.461   6.051  49.782  1.00  0.00    -0.228 NA
HETATM   17  C14 UNL     1      24.600   6.586  49.161  1.00  0.00     0.014 A 
HETATM   18  C15 UNL     1      25.297   7.262  48.203  1.00  0.00     0.130 A 
HETATM   19  N5  UNL     1      26.556   6.802  47.949  1.00  0.00    -0.270 NA
HETATM   20  C16 UNL     1      27.069   5.746  48.607  1.00  0.00     0.145 A 
HETATM   21  C17 UNL     1      26.388   5.065  49.561  1.00  0.00     0.046 A 
HETATM   22  C18 UNL     1      25.134   5.490  49.844  1.00  0.00     0.046 A 
HETATM   23  N6  UNL     1      26.820   3.964  50.305  1.00  0.00    -0.386 N 
HETATM   24  C19 UNL     1      25.899   3.049  50.999  1.00  0.00     0.159 C 
HETATM   25  H13 UNL     1      19.509   5.525  51.008  1.00  0.00     0.161 HD
HETATM   26  H19 UNL     1      27.868   3.915  50.275  1.00  0.00     0.159 HD
ENDROOT
BRANCH   1  27
HETATM   27  N1  UNL     1      27.611   2.765  52.653  1.00  0.00     0.088 N 
HETATM   28  C1  UNL     1      28.382   1.843  53.465  1.00  0.00     0.307 C 
HETATM   29  H4  UNL     1      27.026   3.329  53.287  1.00  0.00     0.316 HD
ENDBRANCH   1  27
TORSDOF 1
ENDMDL
MODEL 5
REMARK VINA RESULT:      -8.2      2.989      7.662
REMARK  1 active torsions:
REMARK  status: ('A' for Active; 'I' for Inactive)
REMARK    1  A    between atoms: N1_2  and  C2_3 
ROOT
HETATM    1  C2  UNL     1      25.126   0.489  52.900  1.00  0.00     0.262 C 
HETATM    2  C3  UNL     1      23.972  -0.097  53.613  1.00  0.00     0.033 C 
HETATM    3  C4  UNL     1      22.723  -0.374  54.064  1.00  0.00     0.029 C 
HETATM    4 CL1  UNL     1      22.611  -1.698  55.272  1.00  0.00    -0.085 Cl
HETATM    5  C5  UNL     1      21.409   0.253  53.701  1.00  0.00     0.002 C 
HETATM    6  C6  UNL     1      21.679   1.221  52.775  1.00  0.00     0.046 C 
HETATM    7  C7  UNL     1      20.495   1.997  52.254  1.00  0.00    -0.013 C 
HETATM    8  C8  UNL     1      20.627   2.983  51.331  1.00  0.00     0.010 C 
HETATM    9  C9  UNL     1      19.834   3.961  50.562  1.00  0.00     0.126 C 
HETATM   10  N2  UNL     1      20.153   5.342  50.760  1.00  0.00    -0.373 N 
HETATM   11  C10 UNL     1      21.318   6.070  50.445  1.00  0.00     0.141 A 
HETATM   12  C11 UNL     1      21.315   7.432  50.254  1.00  0.00     0.166 A 
HETATM   13  N3  UNL     1      22.422   8.129  49.943  1.00  0.00    -0.267 NA
HETATM   14  C12 UNL     1      23.622   7.540  49.794  1.00  0.00     0.148 A 
HETATM   15  C13 UNL     1      23.583   6.191  49.992  1.00  0.00     0.088 A 
HETATM   16  N4  UNL     1      22.486   5.479  50.303  1.00  0.00    -0.228 NA
HETATM   17  C14 UNL     1      24.733   5.298  49.898  1.00  0.00     0.014 A 
HETATM   18  C15 UNL     1      25.688   5.659  48.994  1.00  0.00     0.130 A 
HETATM   19  N5  UNL     1      26.764   4.824  48.901  1.00  0.00    -0.270 NA
HETATM   20  C16 UNL     1      26.867   3.717  49.659  1.00  0.00     0.145 A 
HETATM   21  C17 UNL     1      25.926   3.347  50.562  1.00  0.00     0.046 A 
HETATM   22  C18 UNL     1      24.842   4.148  50.685  1.00  0.00     0.046 A 
HETATM   23  N6  UNL     1      25.930   2.227  51.398  1.00  0.00    -0.386 N 
HETATM   24  C19 UNL     1      24.714   1.687  52.028  1.00  0.00     0.159 C 
HETATM   25  H13 UNL     1      19.415   5.957  51.219  1.00  0.00     0.161 HD
HETATM   26  H19 UNL     1      26.911   1.864  51.487  1.00  0.00     0.159 HD
ENDROOT
BRANCH   1  27
HETATM   27  N1  UNL     1      26.098   1.030  53.872  1.00  0.00     0.088 N 
HETATM   28  C1  UNL     1      26.329   0.048  54.914  1.00  0.00     0.307 C 
HETATM   29  H4  UNL     1      25.708   1.875  54.315  1.00  0.00     0.316 HD
ENDBRANCH   1  27
TORSDOF 1
ENDMDL
MODEL 6
REMARK VINA RESULT:      -8.1      2.123      4.702
REMARK  1 active torsions:
REMARK  status: ('A' for Active; 'I' for Inactive)
REMARK    1  A    between atoms: N1_2  and  C2_3 
ROOT
HETATM    1  C2  UNL     1      25.953   4.986  49.760  1.00  0.00     0.262 C 
HETATM    2  C3  UNL     1      24.919   5.672  48.956  1.00  0.00     0.033 C 
HETATM    3  C4  UNL     1      23.739   6.113  48.454  1.00  0.00     0.029 C 
HETATM    4 CL1  UNL     1      23.861   7.252  47.072  1.00  0.00    -0.085 Cl
HETATM    5  C5  UNL     1      22.336   5.799  48.884  1.00  0.00     0.002 C 
HETATM    6  C6  UNL     1      22.432   4.937  49.939  1.00  0.00     0.046 C 
HETATM    7  C7  UNL     1      21.130   4.477  50.547  1.00  0.00    -0.013 C 
HETATM    8  C8  UNL     1      21.088   3.622  51.601  1.00  0.00     0.010 C 
HETATM    9  C9  UNL     1      20.136   2.928  52.488  1.00  0.00     0.126 C 
HETATM   10  N2  UNL     1      20.188   1.497  52.489  1.00  0.00    -0.373 N 
HETATM   11  C10 UNL     1      21.200   0.615  52.918  1.00  0.00     0.141 A 
HETATM   12  C11 UNL     1      20.945  -0.682  53.298  1.00  0.00     0.166 A 
HETATM   13  N3  UNL     1      21.906  -1.523  53.718  1.00  0.00    -0.267 NA
HETATM   14  C12 UNL     1      23.196  -1.154  53.799  1.00  0.00     0.148 A 
HETATM   15  C13 UNL     1      23.408   0.137  53.414  1.00  0.00     0.088 A 
HETATM   16  N4  UNL     1      22.460   0.992  52.992  1.00  0.00    -0.228 NA
HETATM   17  C14 UNL     1      24.706   0.803  53.398  1.00  0.00     0.014 A 
HETATM   18  C15 UNL     1      25.588   0.400  54.357  1.00  0.00     0.130 A 
HETATM   19  N5  UNL     1      26.803   1.024  54.347  1.00  0.00    -0.270 NA
HETATM   20  C16 UNL     1      27.101   1.975  53.443  1.00  0.00     0.145 A 
HETATM   21  C17 UNL     1      26.235   2.385  52.485  1.00  0.00     0.046 A 
HETATM   22  C18 UNL     1      25.018   1.791  52.460  1.00  0.00     0.046 A 
HETATM   23  N6  UNL     1      26.438   3.356  51.500  1.00  0.00    -0.386 N 
HETATM   24  C19 UNL     1      25.336   4.021  50.785  1.00  0.00     0.159 C 
HETATM   25  H13 UNL     1      19.342   0.973  52.111  1.00  0.00     0.161 HD
HETATM   26  H19 UNL     1      27.468   3.513  51.375  1.00  0.00     0.159 HD
ENDROOT
BRANCH   1  27
HETATM   27  N1  UNL     1      26.794   4.142  48.886  1.00  0.00     0.088 N 
HETATM   28  C1  UNL     1      27.952   4.903  48.459  1.00  0.00     0.307 C 
HETATM   29  H4  UNL     1      26.261   3.881  48.044  1.00  0.00     0.316 HD
ENDBRANCH   1  27
TORSDOF 1
ENDMDL
MODEL 7
REMARK VINA RESULT:      -8.0      3.077      7.342
REMARK  1 active torsions:
REMARK  status: ('A' for Active; 'I' for Inactive)
REMARK    1  A    between atoms: N1_2  and  C2_3 
ROOT
HETATM    1  C2  UNL     1      21.028  -1.095  53.611  1.00  0.00     0.262 C 
HETATM    2  C3  UNL     1      19.628  -0.968  53.155  1.00  0.00     0.033 C 
HETATM    3  C4  UNL     1      18.510  -0.651  52.457  1.00  0.00     0.029 C 
HETATM    4 CL1  UNL     1      16.969  -1.273  53.138  1.00  0.00    -0.085 Cl
HETATM    5  C5  UNL     1      18.359   0.138  51.189  1.00  0.00     0.002 C 
HETATM    6  C6  UNL     1      19.616   0.520  50.814  1.00  0.00     0.046 C 
HETATM    7  C7  UNL     1      19.716   1.334  49.548  1.00  0.00    -0.013 C 
HETATM    8  C8  UNL     1      20.907   1.774  49.065  1.00  0.00     0.010 C 
HETATM    9  C9  UNL     1      21.487   2.545  47.950  1.00  0.00     0.126 C 
HETATM   10  N2  UNL     1      22.221   3.724  48.300  1.00  0.00    -0.373 N 
HETATM   11  C10 UNL     1      23.430   3.877  49.009  1.00  0.00     0.141 A 
HETATM   12  C11 UNL     1      24.242   4.977  48.866  1.00  0.00     0.166 A 
HETATM   13  N3  UNL     1      25.401   5.122  49.532  1.00  0.00    -0.267 NA
HETATM   14  C12 UNL     1      25.854   4.193  50.393  1.00  0.00     0.148 A 
HETATM   15  C13 UNL     1      25.021   3.119  50.507  1.00  0.00     0.088 A 
HETATM   16  N4  UNL     1      23.860   2.958  49.849  1.00  0.00    -0.228 NA
HETATM   17  C14 UNL     1      25.258   1.965  51.368  1.00  0.00     0.014 A 
HETATM   18  C15 UNL     1      26.565   1.625  51.553  1.00  0.00     0.130 A 
HETATM   19  N5  UNL     1      26.790   0.544  52.355  1.00  0.00    -0.270 NA
HETATM   20  C16 UNL     1      25.778  -0.137  52.923  1.00  0.00     0.145 A 
HETATM   21  C17 UNL     1      24.474   0.189  52.748  1.00  0.00     0.046 A 
HETATM   22  C18 UNL     1      24.208   1.257  51.959  1.00  0.00     0.046 A 
HETATM   23  N6  UNL     1      23.349  -0.442  53.287  1.00  0.00    -0.386 N 
HETATM   24  C19 UNL     1      21.995  -0.290  52.729  1.00  0.00     0.159 C 
HETATM   25  H13 UNL     1      21.822   4.662  47.994  1.00  0.00     0.161 HD
HETATM   26  H19 UNL     1      23.638  -1.013  54.118  1.00  0.00     0.159 HD
ENDROOT
BRANCH   1  27
HETATM   27  N1  UNL     1      21.171  -0.526  54.967  1.00  0.00     0.088 N 
HETATM   28  C1  UNL     1      20.666   0.833  54.971  1.00  0.00     0.307 C 
HETATM   29  H4  UNL     1      22.169  -0.492  55.223  1.00  0.00     0.316 HD
ENDBRANCH   1  27
TORSDOF 1
ENDMDL
MODEL 8
REMARK VINA RESULT:      -7.8      2.430      4.377
REMARK  1 active torsions:
REMARK  status: ('A' for Active; 'I' for Inactive)
REMARK    1  A    between atoms: N1_2  and  C2_3 
ROOT
HETATM    1  C2  UNL     1      26.091   3.108  50.681  1.00  0.00     0.262 C 
HETATM    2  C3  UNL     1      26.841   2.673  51.878  1.00  0.00     0.033 C 
HETATM    3  C4  UNL     1      27.224   2.052  53.021  1.00  0.00     0.029 C 
HETATM    4 CL1  UNL     1      28.821   2.545  53.676  1.00  0.00    -0.085 Cl
HETATM    5  C5  UNL     1      26.516   1.001  53.826  1.00  0.00     0.002 C 
HETATM    6  C6  UNL     1      25.338   0.744  53.185  1.00  0.00     0.046 C 
HETATM    7  C7  UNL     1      24.446  -0.296  53.818  1.00  0.00    -0.013 C 
HETATM    8  C8  UNL     1      23.249  -0.645  53.280  1.00  0.00     0.010 C 
HETATM    9  C9  UNL     1      22.098  -1.540  53.504  1.00  0.00     0.126 C 
HETATM   10  N2  UNL     1      20.821  -0.913  53.666  1.00  0.00    -0.373 N 
HETATM   11  C10 UNL     1      20.041  -0.171  52.757  1.00  0.00     0.141 A 
HETATM   12  C11 UNL     1      18.677  -0.041  52.880  1.00  0.00     0.166 A 
HETATM   13  N3  UNL     1      17.928   0.658  52.011  1.00  0.00    -0.267 NA
HETATM   14  C12 UNL     1      18.461   1.285  50.947  1.00  0.00     0.148 A 
HETATM   15  C13 UNL     1      19.814   1.133  50.860  1.00  0.00     0.088 A 
HETATM   16  N4  UNL     1      20.578   0.439  51.720  1.00  0.00    -0.228 NA
HETATM   17  C14 UNL     1      20.654   1.704  49.813  1.00  0.00     0.014 A 
HETATM   18  C15 UNL     1      20.070   1.825  48.587  1.00  0.00     0.130 A 
HETATM   19  N5  UNL     1      20.854   2.356  47.604  1.00  0.00    -0.270 NA
HETATM   20  C16 UNL     1      22.124   2.734  47.841  1.00  0.00     0.145 A 
HETATM   21  C17 UNL     1      22.717   2.620  49.054  1.00  0.00     0.046 A 
HETATM   22  C18 UNL     1      21.973   2.098  50.057  1.00  0.00     0.046 A 
HETATM   23  N6  UNL     1      24.020   2.980  49.411  1.00  0.00    -0.386 N 
HETATM   24  C19 UNL     1      24.703   2.453  50.604  1.00  0.00     0.159 C 
HETATM   25  H13 UNL     1      20.348  -0.998  54.615  1.00  0.00     0.161 HD
HETATM   26  H19 UNL     1      24.398   3.660  48.706  1.00  0.00     0.159 HD
ENDROOT
BRANCH   1  27
HETATM   27  N1  UNL     1      25.834   4.562  50.747  1.00  0.00     0.088 N 
HETATM   28  C1  UNL     1      26.352   5.194  49.549  1.00  0.00     0.307 C 
HETATM   29  H4  UNL     1      26.333   4.963  51.555  1.00  0.00     0.316 HD
ENDBRANCH   1  27
TORSDOF 1
ENDMDL
MODEL 9
REMARK VINA RESULT:      -7.5      3.269      7.034
REMARK  1 active torsions:
REMARK  status: ('A' for Active; 'I' for Inactive)
REMARK    1  A    between atoms: N1_2  and  C2_3 
ROOT
HETATM    1  C2  UNL     1      24.158   0.956  52.293  1.00  0.00     0.262 C 
HETATM    2  C3  UNL     1      23.838   0.091  53.448  1.00  0.00     0.033 C 
HETATM    3  C4  UNL     1      23.194  -0.676  54.362  1.00  0.00     0.029 C 
HETATM    4 CL1  UNL     1      24.222  -1.357  55.667  1.00  0.00    -0.085 Cl
HETATM    5  C5  UNL     1      21.744  -1.052  54.449  1.00  0.00     0.002 C 
HETATM    6  C6  UNL     1      21.121  -0.462  53.387  1.00  0.00     0.046 C 
HETATM    7  C7  UNL     1      19.637  -0.703  53.263  1.00  0.00    -0.013 C 
HETATM    8  C8  UNL     1      18.901  -0.175  52.251  1.00  0.00     0.010 C 
HETATM    9  C9  UNL     1      17.522  -0.124  51.730  1.00  0.00     0.126 C 
HETATM   10  N2  UNL     1      16.921   1.172  51.636  1.00  0.00    -0.373 N 
HETATM   11  C10 UNL     1      17.247   2.280  50.827  1.00  0.00     0.141 A 
HETATM   12  C11 UNL     1      16.334   3.254  50.497  1.00  0.00     0.166 A 
HETATM   13  N3  UNL     1      16.638   4.306  49.717  1.00  0.00    -0.267 NA
HETATM   14  C12 UNL     1      17.866   4.483  49.198  1.00  0.00     0.148 A 
HETATM   15  C13 UNL     1      18.741   3.497  49.548  1.00  0.00     0.088 A 
HETATM   16  N4  UNL     1      18.454   2.439  50.326  1.00  0.00    -0.228 NA
HETATM   17  C14 UNL     1      20.138   3.432  49.132  1.00  0.00     0.014 A 
HETATM   18  C15 UNL     1      20.412   3.951  47.901  1.00  0.00     0.130 A 
HETATM   19  N5  UNL     1      21.717   3.888  47.507  1.00  0.00    -0.270 NA
HETATM   20  C16 UNL     1      22.667   3.347  48.292  1.00  0.00     0.145 A 
HETATM   21  C17 UNL     1      22.409   2.828  49.517  1.00  0.00     0.046 A 
HETATM   22  C18 UNL     1      21.126   2.871  49.946  1.00  0.00     0.046 A 
HETATM   23  N6  UNL     1      23.312   2.247  50.413  1.00  0.00    -0.386 N 
HETATM   24  C19 UNL     1      22.898   1.356  51.509  1.00  0.00     0.159 C 
HETATM   25  H13 UNL     1      16.086   1.375  52.265  1.00  0.00     0.161 HD
HETATM   26  H19 UNL     1      24.286   2.550  50.168  1.00  0.00     0.159 HD
ENDROOT
BRANCH   1  27
HETATM   27  N1  UNL     1      24.747   2.227  52.762  1.00  0.00     0.088 N 
HETATM   28  C1  UNL     1      25.852   1.941  53.657  1.00  0.00     0.307 C 
HETATM   29  H4  UNL     1      24.040   2.758  53.293  1.00  0.00     0.316 HD
ENDBRANCH   1  27
TORSDOF 1
ENDMDL
