MODEL 1
REMARK VINA RESULT:      -7.4      0.000      0.000
REMARK  3 active torsions:
REMARK  status: ('A' for Active; 'I' for Inactive)
REMARK    1  A    between atoms: C3_3  and  N1_4 
REMARK    2  A    between atoms: N1_4  and  C4_5 
REMARK    3  A    between atoms: C7_9  and  C8_10 
ROOT
HETATM    1  C1  UNL     1      24.400   5.733  48.882  1.00  0.00     0.014 C 
HETATM    2  C2  UNL     1      25.480   5.205  49.013  1.00  0.00    -0.097 C 
HETATM    3  C3  UNL     1      26.807   4.566  49.187  1.00  0.00     0.231 C 
ENDROOT
BRANCH   3   4
HETATM    4  N1  UNL     1      26.511   3.166  49.476  1.00  0.00    -0.212 N 
HETATM    5  H4  UNL     1      26.407   2.442  48.712  1.00  0.00     0.178 HD
BRANCH   4   6
HETATM    6  C4  UNL     1      26.346   2.692  50.823  1.00  0.00     0.723 A 
HETATM    7  N2  UNL     1      27.376   2.584  51.680  1.00  0.00    -0.075 NA
HETATM    8  C5  UNL     1      27.174   2.127  52.954  1.00  0.00     0.139 A 
HETATM    9  C6  UNL     1      25.865   1.813  53.229  1.00  0.00     0.053 A 
HETATM   10  C7  UNL     1      24.770   1.894  52.423  1.00  0.00     0.089 A 
HETATM   11  N4  UNL     1      25.110   2.354  51.210  1.00  0.00    -0.062 NA
BRANCH  10  12
HETATM   12  C8  UNL     1      23.395   1.563  52.669  1.00  0.00     0.021 A 
HETATM   13  C9  UNL     1      22.379   2.418  52.220  1.00  0.00     0.105 A 
HETATM   14  N3  UNL     1      21.184   1.915  52.566  1.00  0.00    -0.359 N 
HETATM   15  C10 UNL     1      19.859   2.489  52.294  1.00  0.00     0.156 C 
HETATM   16  C11 UNL     1      21.313   0.763  53.229  1.00  0.00     0.045 A 
HETATM   17  C12 UNL     1      20.468  -0.158  53.807  1.00  0.00     0.030 A 
HETATM   18  C16 UNL     1      22.664   0.584  53.271  1.00  0.00     0.005 A 
HETATM   19  C13 UNL     1      20.921  -1.283  54.446  1.00  0.00     0.002 A 
HETATM   20  C14 UNL     1      22.290  -1.447  54.478  1.00  0.00     0.001 A 
HETATM   21  C15 UNL     1      23.142  -0.534  53.904  1.00  0.00     0.014 A 
ENDBRANCH  10  12
ENDBRANCH   4   6
ENDBRANCH   3   4
TORSDOF 3
ENDMDL
MODEL 2
REMARK VINA RESULT:      -7.3      2.471      6.439
REMARK  3 active torsions:
REMARK  status: ('A' for Active; 'I' for Inactive)
REMARK    1  A    between atoms: C3_3  and  N1_4 
REMARK    2  A    between atoms: N1_4  and  C4_5 
REMARK    3  A    between atoms: C7_9  and  C8_10 
ROOT
HETATM    1  C1  UNL     1      23.648  -1.310  55.737  1.00  0.00     0.014 C 
HETATM    2  C2  UNL     1      22.695  -1.362  54.994  1.00  0.00    -0.097 C 
HETATM    3  C3  UNL     1      21.517  -1.431  54.095  1.00  0.00     0.231 C 
ENDROOT
BRANCH   3   4
HETATM    4  N1  UNL     1      21.302  -0.054  53.659  1.00  0.00    -0.212 N 
HETATM    5  H4  UNL     1      20.495   0.531  54.013  1.00  0.00     0.178 HD
BRANCH   4   6
HETATM    6  C4  UNL     1      22.181   0.586  52.719  1.00  0.00     0.723 A 
HETATM    7  N2  UNL     1      21.726   1.225  51.627  1.00  0.00    -0.075 NA
HETATM    8  C5  UNL     1      22.599   1.820  50.757  1.00  0.00     0.139 A 
HETATM    9  C6  UNL     1      23.918   1.691  51.119  1.00  0.00     0.053 A 
HETATM   10  C7  UNL     1      24.458   1.064  52.201  1.00  0.00     0.089 A 
HETATM   11  N4  UNL     1      23.495   0.527  52.965  1.00  0.00    -0.062 NA
BRANCH  10  12
HETATM   12  C8  UNL     1      25.825   0.896  52.605  1.00  0.00     0.021 A 
HETATM   13  C9  UNL     1      26.587   2.011  52.976  1.00  0.00     0.105 A 
HETATM   14  N3  UNL     1      27.828   1.618  53.305  1.00  0.00    -0.359 N 
HETATM   15  C10 UNL     1      28.945   2.462  53.751  1.00  0.00     0.156 C 
HETATM   16  C11 UNL     1      27.969   0.296  53.182  1.00  0.00     0.045 A 
HETATM   17  C12 UNL     1      28.977  -0.623  53.369  1.00  0.00     0.030 A 
HETATM   18  C16 UNL     1      26.737  -0.105  52.757  1.00  0.00     0.005 A 
HETATM   19  C13 UNL     1      28.809  -1.966  53.144  1.00  0.00     0.002 A 
HETATM   20  C14 UNL     1      27.557  -2.352  52.714  1.00  0.00     0.001 A 
HETATM   21  C15 UNL     1      26.545  -1.442  52.525  1.00  0.00     0.014 A 
ENDBRANCH  10  12
ENDBRANCH   4   6
ENDBRANCH   3   4
TORSDOF 3
ENDMDL
MODEL 3
REMARK VINA RESULT:      -7.3      3.341      4.760
REMARK  3 active torsions:
REMARK  status: ('A' for Active; 'I' for Inactive)
REMARK    1  A    between atoms: C3_3  and  N1_4 
REMARK    2  A    between atoms: N1_4  and  C4_5 
REMARK    3  A    between atoms: C7_9  and  C8_10 
ROOT
HETATM    1  C1  UNL     1      29.547  -1.158  53.478  1.00  0.00     0.014 C 
HETATM    2  C2  UNL     1      28.566  -0.501  53.739  1.00  0.00    -0.097 C 
HETATM    3  C3  UNL     1      27.370   0.319  54.050  1.00  0.00     0.231 C 
ENDROOT
BRANCH   3   4
HETATM    4  N1  UNL     1      26.274  -0.342  53.348  1.00  0.00    -0.212 N 
HETATM    5  H4  UNL     1      26.351  -0.647  52.338  1.00  0.00     0.178 HD
BRANCH   4   6
HETATM    6  C4  UNL     1      25.021  -0.617  53.996  1.00  0.00     0.723 A 
HETATM    7  N2  UNL     1      24.949  -1.165  55.222  1.00  0.00    -0.075 NA
HETATM    8  C5  UNL     1      23.735  -1.411  55.802  1.00  0.00     0.139 A 
HETATM    9  C6  UNL     1      22.663  -1.049  55.022  1.00  0.00     0.053 A 
HETATM   10  C7  UNL     1      22.650  -0.492  53.779  1.00  0.00     0.089 A 
HETATM   11  N4  UNL     1      23.901  -0.307  53.332  1.00  0.00    -0.062 NA
BRANCH  10  12
HETATM   12  C8  UNL     1      21.557  -0.114  52.930  1.00  0.00     0.021 A 
HETATM   13  C9  UNL     1      21.759   0.819  51.903  1.00  0.00     0.105 A 
HETATM   14  N3  UNL     1      20.605   1.022  51.249  1.00  0.00    -0.359 N 
HETATM   15  C10 UNL     1      20.370   1.918  50.108  1.00  0.00     0.156 C 
HETATM   16  C11 UNL     1      19.616   0.286  51.762  1.00  0.00     0.045 A 
HETATM   17  C12 UNL     1      18.276   0.098  51.511  1.00  0.00     0.030 A 
HETATM   18  C16 UNL     1      20.231  -0.387  52.776  1.00  0.00     0.005 A 
HETATM   19  C13 UNL     1      17.495  -0.756  52.246  1.00  0.00     0.002 A 
HETATM   20  C14 UNL     1      18.134  -1.428  53.267  1.00  0.00     0.001 A 
HETATM   21  C15 UNL     1      19.471  -1.247  53.526  1.00  0.00     0.014 A 
ENDBRANCH  10  12
ENDBRANCH   4   6
ENDBRANCH   3   4
TORSDOF 3
ENDMDL
MODEL 4
REMARK VINA RESULT:      -7.1      2.107      3.752
REMARK  3 active torsions:
REMARK  status: ('A' for Active; 'I' for Inactive)
REMARK    1  A    between atoms: C3_3  and  N1_4 
REMARK    2  A    between atoms: N1_4  and  C4_5 
REMARK    3  A    between atoms: C7_9  and  C8_10 
ROOT
HETATM    1  C1  UNL     1      28.815   6.437  48.007  1.00  0.00     0.014 C 
HETATM    2  C2  UNL     1      28.074   5.570  48.409  1.00  0.00    -0.097 C 
HETATM    3  C3  UNL     1      27.173   4.507  48.917  1.00  0.00     0.231 C 
ENDROOT
BRANCH   3   4
HETATM    4  N1  UNL     1      25.860   5.138  48.996  1.00  0.00    -0.212 N 
HETATM    5  H4  UNL     1      25.468   5.729  48.210  1.00  0.00     0.178 HD
BRANCH   4   6
HETATM    6  C4  UNL     1      25.020   4.990  50.152  1.00  0.00     0.723 A 
HETATM    7  N2  UNL     1      24.290   6.005  50.649  1.00  0.00    -0.075 NA
HETATM    8  C5  UNL     1      23.504   5.820  51.753  1.00  0.00     0.139 A 
HETATM    9  C6  UNL     1      23.551   4.544  52.260  1.00  0.00     0.053 A 
HETATM   10  C7  UNL     1      24.258   3.466  51.820  1.00  0.00     0.089 A 
HETATM   11  N4  UNL     1      24.982   3.787  50.737  1.00  0.00    -0.062 NA
BRANCH  10  12
HETATM   12  C8  UNL     1      24.344   2.127  52.328  1.00  0.00     0.021 A 
HETATM   13  C9  UNL     1      23.194   1.486  52.809  1.00  0.00     0.105 A 
HETATM   14  N3  UNL     1      23.512   0.255  53.237  1.00  0.00    -0.359 N 
HETATM   15  C10 UNL     1      22.611  -0.752  53.815  1.00  0.00     0.156 C 
HETATM   16  C11 UNL     1      24.815   0.006  53.082  1.00  0.00     0.045 A 
HETATM   17  C12 UNL     1      25.670  -1.043  53.338  1.00  0.00     0.030 A 
HETATM   18  C16 UNL     1      25.283   1.161  52.530  1.00  0.00     0.005 A 
HETATM   19  C13 UNL     1      27.012  -0.992  53.061  1.00  0.00     0.002 A 
HETATM   20  C14 UNL     1      27.467   0.184  52.503  1.00  0.00     0.001 A 
HETATM   21  C15 UNL     1      26.622   1.236  52.244  1.00  0.00     0.014 A 
ENDBRANCH  10  12
ENDBRANCH   4   6
ENDBRANCH   3   4
TORSDOF 3
ENDMDL
MODEL 5
REMARK VINA RESULT:      -7.1      2.640      5.313
REMARK  3 active torsions:
REMARK  status: ('A' for Active; 'I' for Inactive)
REMARK    1  A    between atoms: C3_3  and  N1_4 
REMARK    2  A    between atoms: N1_4  and  C4_5 
REMARK    3  A    between atoms: C7_9  and  C8_10 
ROOT
HETATM    1  C1  UNL     1      23.698   4.864  51.811  1.00  0.00     0.014 C 
HETATM    2  C2  UNL     1      23.739   4.215  50.792  1.00  0.00    -0.097 C 
HETATM    3  C3  UNL     1      23.807   3.417  49.543  1.00  0.00     0.231 C 
ENDROOT
BRANCH   3   4
HETATM    4  N1  UNL     1      23.039   2.209  49.832  1.00  0.00    -0.212 N 
HETATM    5  H4  UNL     1      22.361   1.791  49.137  1.00  0.00     0.178 HD
BRANCH   4   6
HETATM    6  C4  UNL     1      23.165   1.517  51.086  1.00  0.00     0.723 A 
HETATM    7  N2  UNL     1      22.097   1.108  51.794  1.00  0.00    -0.075 NA
HETATM    8  C5  UNL     1      22.263   0.453  52.983  1.00  0.00     0.139 A 
HETATM    9  C6  UNL     1      23.578   0.276  53.341  1.00  0.00     0.053 A 
HETATM   10  C7  UNL     1      24.709   0.657  52.685  1.00  0.00     0.089 A 
HETATM   11  N4  UNL     1      24.402   1.286  51.541  1.00  0.00    -0.062 NA
BRANCH  10  12
HETATM   12  C8  UNL     1      26.093   0.504  53.032  1.00  0.00     0.021 A 
HETATM   13  C9  UNL     1      26.824   1.606  53.496  1.00  0.00     0.105 A 
HETATM   14  N3  UNL     1      28.088   1.233  53.749  1.00  0.00    -0.359 N 
HETATM   15  C10 UNL     1      29.185   2.071  54.250  1.00  0.00     0.156 C 
HETATM   16  C11 UNL     1      28.276  -0.063  53.485  1.00  0.00     0.045 A 
HETATM   17  C12 UNL     1      29.323  -0.954  53.548  1.00  0.00     0.030 A 
HETATM   18  C16 UNL     1      27.048  -0.468  53.054  1.00  0.00     0.005 A 
HETATM   19  C13 UNL     1      29.200  -2.272  53.189  1.00  0.00     0.002 A 
HETATM   20  C14 UNL     1      27.951  -2.663  52.755  1.00  0.00     0.001 A 
HETATM   21  C15 UNL     1      26.899  -1.781  52.689  1.00  0.00     0.014 A 
ENDBRANCH  10  12
ENDBRANCH   4   6
ENDBRANCH   3   4
TORSDOF 3
ENDMDL
MODEL 6
REMARK VINA RESULT:      -7.1      3.046      4.744
REMARK  3 active torsions:
REMARK  status: ('A' for Active; 'I' for Inactive)
REMARK    1  A    between atoms: C3_3  and  N1_4 
REMARK    2  A    between atoms: N1_4  and  C4_5 
REMARK    3  A    between atoms: C7_9  and  C8_10 
ROOT
HETATM    1  C1  UNL     1      28.656   2.419  53.479  1.00  0.00     0.014 C 
HETATM    2  C2  UNL     1      28.088   1.433  53.890  1.00  0.00    -0.097 C 
HETATM    3  C3  UNL     1      27.390   0.231  54.408  1.00  0.00     0.231 C 
ENDROOT
BRANCH   3   4
HETATM    4  N1  UNL     1      26.186   0.119  53.591  1.00  0.00    -0.212 N 
HETATM    5  H4  UNL     1      26.166   0.404  52.572  1.00  0.00     0.178 HD
BRANCH   4   6
HETATM    6  C4  UNL     1      24.954  -0.390  54.129  1.00  0.00     0.723 A 
HETATM    7  N2  UNL     1      24.901  -1.077  55.284  1.00  0.00    -0.075 NA
HETATM    8  C5  UNL     1      23.706  -1.544  55.759  1.00  0.00     0.139 A 
HETATM    9  C6  UNL     1      22.633  -1.240  54.957  1.00  0.00     0.053 A 
HETATM   10  C7  UNL     1      22.601  -0.553  53.782  1.00  0.00     0.089 A 
HETATM   11  N4  UNL     1      23.834  -0.156  53.434  1.00  0.00    -0.062 NA
BRANCH  10  12
HETATM   12  C8  UNL     1      21.507  -0.229  52.911  1.00  0.00     0.021 A 
HETATM   13  C9  UNL     1      20.197  -0.563  53.280  1.00  0.00     0.105 A 
HETATM   14  N3  UNL     1      19.347  -0.174  52.317  1.00  0.00    -0.359 N 
HETATM   15  C10 UNL     1      17.886  -0.329  52.298  1.00  0.00     0.156 C 
HETATM   16  C11 UNL     1      19.992   0.410  51.303  1.00  0.00     0.045 A 
HETATM   17  C12 UNL     1      19.651   0.975  50.095  1.00  0.00     0.030 A 
HETATM   18  C16 UNL     1      21.294   0.358  51.700  1.00  0.00     0.005 A 
HETATM   19  C13 UNL     1      20.578   1.507  49.236  1.00  0.00     0.002 A 
HETATM   20  C14 UNL     1      21.890   1.445  49.653  1.00  0.00     0.001 A 
HETATM   21  C15 UNL     1      22.241   0.883  50.857  1.00  0.00     0.014 A 
ENDBRANCH  10  12
ENDBRANCH   4   6
ENDBRANCH   3   4
TORSDOF 3
ENDMDL
MODEL 7
REMARK VINA RESULT:      -7.0      1.876      3.431
REMARK  3 active torsions:
REMARK  status: ('A' for Active; 'I' for Inactive)
REMARK    1  A    between atoms: C3_3  and  N1_4 
REMARK    2  A    between atoms: N1_4  and  C4_5 
REMARK    3  A    between atoms: C7_9  and  C8_10 
ROOT
HETATM    1  C1  UNL     1      28.750   6.430  48.055  1.00  0.00     0.014 C 
HETATM    2  C2  UNL     1      28.020   5.555  48.461  1.00  0.00    -0.097 C 
HETATM    3  C3  UNL     1      27.132   4.483  48.974  1.00  0.00     0.231 C 
ENDROOT
BRANCH   3   4
HETATM    4  N1  UNL     1      25.796   5.070  48.964  1.00  0.00    -0.212 N 
HETATM    5  H4  UNL     1      25.414   5.592  48.128  1.00  0.00     0.178 HD
BRANCH   4   6
HETATM    6  C4  UNL     1      24.920   4.970  50.099  1.00  0.00     0.723 A 
HETATM    7  N2  UNL     1      24.105   5.972  50.472  1.00  0.00    -0.075 NA
HETATM    8  C5  UNL     1      23.287   5.834  51.560  1.00  0.00     0.139 A 
HETATM    9  C6  UNL     1      23.397   4.616  52.186  1.00  0.00     0.053 A 
HETATM   10  C7  UNL     1      24.192   3.555  51.874  1.00  0.00     0.089 A 
HETATM   11  N4  UNL     1      24.937   3.825  50.793  1.00  0.00    -0.062 NA
BRANCH  10  12
HETATM   12  C8  UNL     1      24.345   2.277  52.509  1.00  0.00     0.021 A 
HETATM   13  C9  UNL     1      25.627   1.770  52.760  1.00  0.00     0.105 A 
HETATM   14  N3  UNL     1      25.527   0.567  53.348  1.00  0.00    -0.359 N 
HETATM   15  C10 UNL     1      26.622  -0.310  53.781  1.00  0.00     0.156 C 
HETATM   16  C11 UNL     1      24.251   0.212  53.517  1.00  0.00     0.045 A 
HETATM   17  C12 UNL     1      23.575  -0.868  54.039  1.00  0.00     0.030 A 
HETATM   18  C16 UNL     1      23.567   1.270  52.998  1.00  0.00     0.005 A 
HETATM   19  C13 UNL     1      22.206  -0.946  54.066  1.00  0.00     0.002 A 
HETATM   20  C14 UNL     1      21.532   0.134  53.535  1.00  0.00     0.001 A 
HETATM   21  C15 UNL     1      22.197   1.217  53.013  1.00  0.00     0.014 A 
ENDBRANCH  10  12
ENDBRANCH   4   6
ENDBRANCH   3   4
TORSDOF 3
ENDMDL
MODEL 8
REMARK VINA RESULT:      -7.0      2.211      5.956
REMARK  3 active torsions:
REMARK  status: ('A' for Active; 'I' for Inactive)
REMARK    1  A    between atoms: C3_3  and  N1_4 
REMARK    2  A    between atoms: N1_4  and  C4_5 
REMARK    3  A    between atoms: C7_9  and  C8_10 
ROOT
HETATM    1  C1  UNL     1      21.943  -1.075  54.797  1.00  0.00     0.014 C 
HETATM    2  C2  UNL     1      23.024  -1.122  55.338  1.00  0.00    -0.097 C 
HETATM    3  C3  UNL     1      24.344  -1.195  56.009  1.00  0.00     0.231 C 
ENDROOT
BRANCH   3   4
HETATM    4  N1  UNL     1      25.302  -1.391  54.924  1.00  0.00    -0.212 N 
HETATM    5  H4  UNL     1      25.417  -2.320  54.433  1.00  0.00     0.178 HD
BRANCH   4   6
HETATM    6  C4  UNL     1      26.146  -0.323  54.462  1.00  0.00     0.723 A 
HETATM    7  N2  UNL     1      27.461  -0.272  54.739  1.00  0.00    -0.075 NA
HETATM    8  C5  UNL     1      28.227   0.763  54.279  1.00  0.00     0.139 A 
HETATM    9  C6  UNL     1      27.527   1.688  53.542  1.00  0.00     0.053 A 
HETATM   10  C7  UNL     1      26.204   1.709  53.218  1.00  0.00     0.089 A 
HETATM   11  N4  UNL     1      25.575   0.642  53.731  1.00  0.00    -0.062 NA
BRANCH  10  12
HETATM   12  C8  UNL     1      25.436   2.660  52.466  1.00  0.00     0.021 A 
HETATM   13  C9  UNL     1      24.181   3.072  52.934  1.00  0.00     0.105 A 
HETATM   14  N3  UNL     1      23.647   3.951  52.072  1.00  0.00    -0.359 N 
HETATM   15  C10 UNL     1      22.348   4.630  52.176  1.00  0.00     0.156 C 
HETATM   16  C11 UNL     1      24.458   4.171  51.034  1.00  0.00     0.045 A 
HETATM   17  C12 UNL     1      24.432   4.937  49.890  1.00  0.00     0.030 A 
HETATM   18  C16 UNL     1      25.528   3.373  51.308  1.00  0.00     0.005 A 
HETATM   19  C13 UNL     1      25.456   4.944  48.978  1.00  0.00     0.002 A 
HETATM   20  C14 UNL     1      26.530   4.131  49.272  1.00  0.00     0.001 A 
HETATM   21  C15 UNL     1      26.565   3.363  50.411  1.00  0.00     0.014 A 
ENDBRANCH  10  12
ENDBRANCH   4   6
ENDBRANCH   3   4
TORSDOF 3
ENDMDL
MODEL 9
REMARK VINA RESULT:      -7.0      2.171      3.624
REMARK  3 active torsions:
REMARK  status: ('A' for Active; 'I' for Inactive)
REMARK    1  A    between atoms: C3_3  and  N1_4 
REMARK    2  A    between atoms: N1_4  and  C4_5 
REMARK    3  A    between atoms: C7_9  and  C8_10 
ROOT
HETATM    1  C1  UNL     1      27.387   8.798  49.814  1.00  0.00     0.014 C 
HETATM    2  C2  UNL     1      26.397   8.153  50.076  1.00  0.00    -0.097 C 
HETATM    3  C3  UNL     1      25.177   7.367  50.381  1.00  0.00     0.231 C 
ENDROOT
BRANCH   3   4
HETATM    4  N1  UNL     1      25.635   5.983  50.452  1.00  0.00    -0.212 N 
HETATM    5  H4  UNL     1      26.617   5.727  50.751  1.00  0.00     0.178 HD
BRANCH   4   6
HETATM    6  C4  UNL     1      24.770   4.884  50.120  1.00  0.00     0.723 A 
HETATM    7  N2  UNL     1      23.968   4.900  49.041  1.00  0.00    -0.075 NA
HETATM    8  C5  UNL     1      23.159   3.832  48.761  1.00  0.00     0.139 A 
HETATM    9  C6  UNL     1      23.264   2.805  49.667  1.00  0.00     0.053 A 
HETATM   10  C7  UNL     1      24.047   2.710  50.778  1.00  0.00     0.089 A 
HETATM   11  N4  UNL     1      24.784   3.820  50.931  1.00  0.00    -0.062 NA
BRANCH  10  12
HETATM   12  C8  UNL     1      24.174   1.664  51.752  1.00  0.00     0.021 A 
HETATM   13  C9  UNL     1      25.424   1.076  51.988  1.00  0.00     0.105 A 
HETATM   14  N3  UNL     1      25.302   0.124  52.926  1.00  0.00    -0.359 N 
HETATM   15  C10 UNL     1      26.362  -0.736  53.471  1.00  0.00     0.156 C 
HETATM   16  C11 UNL     1      24.042   0.019  53.354  1.00  0.00     0.045 A 
HETATM   17  C12 UNL     1      23.356  -0.755  54.263  1.00  0.00     0.030 A 
HETATM   18  C16 UNL     1      23.391   0.966  52.621  1.00  0.00     0.005 A 
HETATM   19  C13 UNL     1      22.008  -0.625  54.482  1.00  0.00     0.002 A 
HETATM   20  C14 UNL     1      21.367   0.337  53.731  1.00  0.00     0.001 A 
HETATM   21  C15 UNL     1      22.042   1.115  52.822  1.00  0.00     0.014 A 
ENDBRANCH  10  12
ENDBRANCH   4   6
ENDBRANCH   3   4
TORSDOF 3
ENDMDL
