MODEL 1
REMARK VINA RESULT:      -7.5      0.000      0.000
REMARK  4 active torsions:
REMARK  status: ('A' for Active; 'I' for Inactive)
REMARK    1  A    between atoms: C2_2  and  S1_3 
REMARK    2  A    between atoms: S1_3  and  C3_5 
REMARK    3  A    between atoms: C6_8  and  N1_9 
REMARK    4  A    between atoms: C11_15  and  N2_16 
ROOT
HETATM    1  C3  UNL     1      26.617   0.618  53.678  1.00  0.00     0.140 A 
HETATM    2  C4  UNL     1      25.515   1.179  53.215  1.00  0.00     0.034 A 
HETATM    3  C5  UNL     1      25.164   2.364  52.441  1.00  0.00     0.043 A 
HETATM    4  C6  UNL     1      23.912   2.670  52.121  1.00  0.00     0.030 A 
HETATM    5  C12 UNL     1      22.794   1.807  52.542  1.00  0.00     0.206 A 
HETATM    6  N3  UNL     1      23.207   0.660  53.299  1.00  0.00    -0.281 NA
HETATM    7  C13 UNL     1      24.393   0.338  53.623  1.00  0.00     0.082 A 
HETATM    8  C14 UNL     1      25.013  -0.763  54.372  1.00  0.00     0.150 A 
HETATM    9  N4  UNL     1      26.297  -0.557  54.377  1.00  0.00    -0.248 NA
ENDROOT
BRANCH   4  10
HETATM   10  N1  UNL     1      23.641   3.828  51.372  1.00  0.00    -0.349 N 
HETATM   11  C7  UNL     1      23.513   3.630  49.917  1.00  0.00     0.145 C 
HETATM   12  C8  UNL     1      22.666   4.681  49.268  1.00  0.00     0.098 C 
HETATM   13 BR1  UNL     1      23.747   6.071  48.432  1.00  0.00    -0.085 Br
HETATM   14  C9  UNL     1      21.658   5.292  50.179  1.00  0.00    -0.010 C 
HETATM   15  C10 UNL     1      22.046   5.546  51.426  1.00  0.00     0.026 C 
HETATM   16  C11 UNL     1      23.463   5.186  51.772  1.00  0.00     0.342 C 
BRANCH  16  17
HETATM   17  N2  UNL     1      23.816   5.524  53.102  1.00  0.00     0.105 N 
HETATM   18  H11 UNL     1      24.590   6.208  53.171  1.00  0.00     0.315 HD
HETATM   19  H12 UNL     1      24.023   4.663  53.658  1.00  0.00     0.315 HD
ENDBRANCH  16  17
ENDBRANCH   4  10
BRANCH   1  20
HETATM   20  S1  UNL     1      28.238   1.311  53.416  1.00  0.00     0.093 S 
HETATM   21  O1  UNL     1      28.285   2.636  54.161  1.00  0.00    -0.247 OA
BRANCH  20  22
HETATM   22  C2  UNL     1      29.487   0.274  54.127  1.00  0.00     0.075 C 
HETATM   23  C1  UNL     1      29.847  -0.838  53.459  1.00  0.00     0.021 C 
ENDBRANCH  20  22
ENDBRANCH   1  20
TORSDOF 4
ENDMDL
MODEL 2
REMARK VINA RESULT:      -7.4      1.126      1.893
REMARK  4 active torsions:
REMARK  status: ('A' for Active; 'I' for Inactive)
REMARK    1  A    between atoms: C2_2  and  S1_3 
REMARK    2  A    between atoms: S1_3  and  C3_5 
REMARK    3  A    between atoms: C6_8  and  N1_9 
REMARK    4  A    between atoms: C11_15  and  N2_16 
ROOT
HETATM    1  C3  UNL     1      26.514   0.672  53.672  1.00  0.00     0.140 A 
HETATM    2  C4  UNL     1      25.452   1.263  53.156  1.00  0.00     0.034 A 
HETATM    3  C5  UNL     1      25.173   2.458  52.367  1.00  0.00     0.043 A 
HETATM    4  C6  UNL     1      23.947   2.798  51.986  1.00  0.00     0.030 A 
HETATM    5  C12 UNL     1      22.786   1.965  52.348  1.00  0.00     0.206 A 
HETATM    6  N3  UNL     1      23.130   0.807  53.122  1.00  0.00    -0.281 NA
HETATM    7  C13 UNL     1      24.288   0.452  53.504  1.00  0.00     0.082 A 
HETATM    8  C14 UNL     1      24.841  -0.666  54.281  1.00  0.00     0.150 A 
HETATM    9  N4  UNL     1      26.128  -0.495  54.351  1.00  0.00    -0.248 NA
ENDROOT
BRANCH   4  10
HETATM   10  N1  UNL     1      23.746   3.964  51.227  1.00  0.00    -0.349 N 
HETATM   11  C7  UNL     1      23.638   5.215  51.999  1.00  0.00     0.145 C 
HETATM   12  C8  UNL     1      24.029   6.419  51.198  1.00  0.00     0.098 C 
HETATM   13 BR1  UNL     1      22.472   7.360  50.496  1.00  0.00    -0.085 Br
HETATM   14  C9  UNL     1      24.992   6.128  50.101  1.00  0.00    -0.010 C 
HETATM   15  C10 UNL     1      24.799   5.006  49.410  1.00  0.00     0.026 C 
HETATM   16  C11 UNL     1      23.626   4.162  49.819  1.00  0.00     0.342 C 
BRANCH  16  17
HETATM   17  N2  UNL     1      23.461   3.008  49.013  1.00  0.00     0.105 N 
HETATM   18  H11 UNL     1      23.505   3.196  47.996  1.00  0.00     0.315 HD
HETATM   19  H12 UNL     1      22.581   2.505  49.266  1.00  0.00     0.315 HD
ENDBRANCH  16  17
ENDBRANCH   4  10
BRANCH   1  20
HETATM   20  S1  UNL     1      28.164   1.321  53.493  1.00  0.00     0.093 S 
HETATM   21  O1  UNL     1      28.216   2.632  54.260  1.00  0.00    -0.247 OA
BRANCH  20  22
HETATM   22  C2  UNL     1      29.350   0.237  54.243  1.00  0.00     0.075 C 
HETATM   23  C1  UNL     1      29.751  -0.845  53.550  1.00  0.00     0.021 C 
ENDBRANCH  20  22
ENDBRANCH   1  20
TORSDOF 4
ENDMDL
MODEL 3
REMARK VINA RESULT:      -6.9      1.899      2.194
REMARK  4 active torsions:
REMARK  status: ('A' for Active; 'I' for Inactive)
REMARK    1  A    between atoms: C2_2  and  S1_3 
REMARK    2  A    between atoms: S1_3  and  C3_5 
REMARK    3  A    between atoms: C6_8  and  N1_9 
REMARK    4  A    between atoms: C11_15  and  N2_16 
ROOT
HETATM    1  C3  UNL     1      24.454   0.147  53.562  1.00  0.00     0.140 A 
HETATM    2  C4  UNL     1      23.931   1.075  52.782  1.00  0.00     0.034 A 
HETATM    3  C5  UNL     1      24.362   2.332  52.180  1.00  0.00     0.043 A 
HETATM    4  C6  UNL     1      23.571   3.070  51.411  1.00  0.00     0.030 A 
HETATM    5  C12 UNL     1      22.190   2.645  51.121  1.00  0.00     0.206 A 
HETATM    6  N3  UNL     1      21.830   1.403  51.742  1.00  0.00    -0.281 NA
HETATM    7  C13 UNL     1      22.559   0.672  52.483  1.00  0.00     0.082 A 
HETATM    8  C14 UNL     1      22.388  -0.601  53.197  1.00  0.00     0.150 A 
HETATM    9  N4  UNL     1      23.507  -0.861  53.805  1.00  0.00    -0.248 NA
ENDROOT
BRANCH   4  10
HETATM   10  N1  UNL     1      24.048   4.273  50.862  1.00  0.00    -0.349 N 
HETATM   11  C7  UNL     1      24.605   4.175  49.501  1.00  0.00     0.145 C 
HETATM   12  C8  UNL     1      24.529   5.472  48.755  1.00  0.00     0.098 C 
HETATM   13 BR1  UNL     1      26.227   6.430  48.791  1.00  0.00    -0.085 Br
HETATM   14  C9  UNL     1      23.425   6.364  49.206  1.00  0.00    -0.010 C 
HETATM   15  C10 UNL     1      23.201   6.432  50.517  1.00  0.00     0.026 C 
HETATM   16  C11 UNL     1      24.092   5.597  51.392  1.00  0.00     0.342 C 
BRANCH  16  17
HETATM   17  N2  UNL     1      23.821   5.753  52.775  1.00  0.00     0.105 N 
HETATM   18  H11 UNL     1      24.069   4.928  53.347  1.00  0.00     0.315 HD
HETATM   19  H12 UNL     1      22.825   6.031  52.925  1.00  0.00     0.315 HD
ENDBRANCH  16  17
ENDBRANCH   4  10
BRANCH   1  20
HETATM   20  S1  UNL     1      26.124   0.231  54.177  1.00  0.00     0.093 S 
HETATM   21  O1  UNL     1      26.148  -0.500  55.510  1.00  0.00    -0.247 OA
BRANCH  20  22
HETATM   22  C2  UNL     1      27.236  -0.629  53.097  1.00  0.00     0.075 C 
HETATM   23  C1  UNL     1      26.773  -1.703  52.431  1.00  0.00     0.021 C 
ENDBRANCH  20  22
ENDBRANCH   1  20
TORSDOF 4
ENDMDL
MODEL 4
REMARK VINA RESULT:      -6.8      1.981      2.547
REMARK  4 active torsions:
REMARK  status: ('A' for Active; 'I' for Inactive)
REMARK    1  A    between atoms: C2_2  and  S1_3 
REMARK    2  A    between atoms: S1_3  and  C3_5 
REMARK    3  A    between atoms: C6_8  and  N1_9 
REMARK    4  A    between atoms: C11_15  and  N2_16 
ROOT
HETATM    1  C3  UNL     1      25.854   0.127  54.051  1.00  0.00     0.140 A 
HETATM    2  C4  UNL     1      24.703   0.271  53.421  1.00  0.00     0.034 A 
HETATM    3  C5  UNL     1      24.192   1.042  52.292  1.00  0.00     0.043 A 
HETATM    4  C6  UNL     1      22.932   0.967  51.881  1.00  0.00     0.030 A 
HETATM    5  C12 UNL     1      21.968   0.083  52.560  1.00  0.00     0.206 A 
HETATM    6  N3  UNL     1      22.533  -0.645  53.659  1.00  0.00    -0.281 NA
HETATM    7  C13 UNL     1      23.732  -0.598  54.079  1.00  0.00     0.082 A 
HETATM    8  C14 UNL     1      24.492  -1.245  55.157  1.00  0.00     0.150 A 
HETATM    9  N4  UNL     1      25.710  -0.794  55.101  1.00  0.00    -0.248 NA
ENDROOT
BRANCH   4  10
HETATM   10  N1  UNL     1      22.504   1.738  50.786  1.00  0.00    -0.349 N 
HETATM   11  C7  UNL     1      23.499   2.679  50.242  1.00  0.00     0.145 C 
HETATM   12  C8  UNL     1      23.253   3.003  48.800  1.00  0.00     0.098 C 
HETATM   13 BR1  UNL     1      22.331   4.707  48.586  1.00  0.00    -0.085 Br
HETATM   14  C9  UNL     1      22.536   1.932  48.054  1.00  0.00    -0.010 C 
HETATM   15  C10 UNL     1      21.542   1.316  48.690  1.00  0.00     0.026 C 
HETATM   16  C11 UNL     1      21.258   1.775  50.092  1.00  0.00     0.342 C 
BRANCH  16  17
HETATM   17  N2  UNL     1      20.161   1.103  50.688  1.00  0.00     0.105 N 
HETATM   18  H11 UNL     1      19.312   1.687  50.783  1.00  0.00     0.315 HD
HETATM   19  H12 UNL     1      20.439   0.689  51.606  1.00  0.00     0.315 HD
ENDBRANCH  16  17
ENDBRANCH   4  10
BRANCH   1  20
HETATM   20  S1  UNL     1      27.330   1.007  53.582  1.00  0.00     0.093 S 
HETATM   21  O1  UNL     1      27.199   2.423  54.120  1.00  0.00    -0.247 OA
BRANCH  20  22
HETATM   22  C2  UNL     1      28.759   0.293  54.350  1.00  0.00     0.075 C 
HETATM   23  C1  UNL     1      29.377  -0.725  53.723  1.00  0.00     0.021 C 
ENDBRANCH  20  22
ENDBRANCH   1  20
TORSDOF 4
ENDMDL
MODEL 5
REMARK VINA RESULT:      -6.8      2.648      3.829
REMARK  4 active torsions:
REMARK  status: ('A' for Active; 'I' for Inactive)
REMARK    1  A    between atoms: C2_2  and  S1_3 
REMARK    2  A    between atoms: S1_3  and  C3_5 
REMARK    3  A    between atoms: C6_8  and  N1_9 
REMARK    4  A    between atoms: C11_15  and  N2_16 
ROOT
HETATM    1  C3  UNL     1      24.062  -0.519  54.043  1.00  0.00     0.140 A 
HETATM    2  C4  UNL     1      24.411   0.531  53.324  1.00  0.00     0.034 A 
HETATM    3  C5  UNL     1      23.747   1.506  52.465  1.00  0.00     0.043 A 
HETATM    4  C6  UNL     1      24.398   2.489  51.854  1.00  0.00     0.030 A 
HETATM    5  C12 UNL     1      25.854   2.645  52.019  1.00  0.00     0.206 A 
HETATM    6  N3  UNL     1      26.445   1.656  52.873  1.00  0.00    -0.281 NA
HETATM    7  C13 UNL     1      25.853   0.704  53.472  1.00  0.00     0.082 A 
HETATM    8  C14 UNL     1      26.261  -0.386  54.369  1.00  0.00     0.150 A 
HETATM    9  N4  UNL     1      25.194  -1.065  54.670  1.00  0.00    -0.248 NA
ENDROOT
BRANCH   4  10
HETATM   10  N1  UNL     1      23.697   3.395  51.039  1.00  0.00    -0.349 N 
HETATM   11  C7  UNL     1      23.383   2.918  49.681  1.00  0.00     0.145 C 
HETATM   12  C8  UNL     1      22.183   3.599  49.097  1.00  0.00     0.098 C 
HETATM   13 BR1  UNL     1      22.685   5.040  47.883  1.00  0.00    -0.085 Br
HETATM   14  C9  UNL     1      21.217   4.098  50.115  1.00  0.00    -0.010 C 
HETATM   15  C10 UNL     1      21.728   4.655  51.210  1.00  0.00     0.026 C 
HETATM   16  C11 UNL     1      23.226   4.718  51.292  1.00  0.00     0.342 C 
BRANCH  16  17
HETATM   17  N2  UNL     1      23.695   5.362  52.466  1.00  0.00     0.105 N 
HETATM   18  H11 UNL     1      24.702   5.215  52.651  1.00  0.00     0.315 HD
HETATM   19  H12 UNL     1      23.115   5.089  53.291  1.00  0.00     0.315 HD
ENDBRANCH  16  17
ENDBRANCH   4  10
BRANCH   1  20
HETATM   20  S1  UNL     1      22.381  -1.100  54.153  1.00  0.00     0.093 S 
HETATM   21  O1  UNL     1      22.306  -2.034  55.351  1.00  0.00    -0.247 OA
BRANCH  20  22
HETATM   22  C2  UNL     1      21.271   0.244  54.477  1.00  0.00     0.075 C 
HETATM   23  C1  UNL     1      20.358   0.555  53.539  1.00  0.00     0.021 C 
ENDBRANCH  20  22
ENDBRANCH   1  20
TORSDOF 4
ENDMDL
MODEL 6
REMARK VINA RESULT:      -6.8      1.747      1.882
REMARK  4 active torsions:
REMARK  status: ('A' for Active; 'I' for Inactive)
REMARK    1  A    between atoms: C2_2  and  S1_3 
REMARK    2  A    between atoms: S1_3  and  C3_5 
REMARK    3  A    between atoms: C6_8  and  N1_9 
REMARK    4  A    between atoms: C11_15  and  N2_16 
ROOT
HETATM    1  C3  UNL     1      25.837   0.012  54.174  1.00  0.00     0.140 A 
HETATM    2  C4  UNL     1      24.667   0.279  53.624  1.00  0.00     0.034 A 
HETATM    3  C5  UNL     1      24.156   1.144  52.566  1.00  0.00     0.043 A 
HETATM    4  C6  UNL     1      22.873   1.191  52.231  1.00  0.00     0.030 A 
HETATM    5  C12 UNL     1      21.881   0.350  52.926  1.00  0.00     0.206 A 
HETATM    6  N3  UNL     1      22.447  -0.475  53.953  1.00  0.00    -0.281 NA
HETATM    7  C13 UNL     1      23.668  -0.545  54.300  1.00  0.00     0.082 A 
HETATM    8  C14 UNL     1      24.434  -1.304  55.297  1.00  0.00     0.150 A 
HETATM    9  N4  UNL     1      25.680  -0.948  55.187  1.00  0.00    -0.248 NA
ENDROOT
BRANCH   4  10
HETATM   10  N1  UNL     1      22.446   2.048  51.202  1.00  0.00    -0.349 N 
HETATM   11  C7  UNL     1      22.233   1.411  49.890  1.00  0.00     0.145 C 
HETATM   12  C8  UNL     1      21.250   2.159  49.042  1.00  0.00     0.098 C 
HETATM   13 BR1  UNL     1      22.139   3.297  47.733  1.00  0.00    -0.085 Br
HETATM   14  C9  UNL     1      20.258   2.950  49.822  1.00  0.00    -0.010 C 
HETATM   15  C10 UNL     1      20.711   3.595  50.896  1.00  0.00     0.026 C 
HETATM   16  C11 UNL     1      22.175   3.449  51.196  1.00  0.00     0.342 C 
BRANCH  16  17
HETATM   17  N2  UNL     1      22.590   4.196  52.327  1.00  0.00     0.105 N 
HETATM   18  H11 UNL     1      23.493   3.885  52.727  1.00  0.00     0.315 HD
HETATM   19  H12 UNL     1      21.840   4.209  53.054  1.00  0.00     0.315 HD
ENDBRANCH  16  17
ENDBRANCH   4  10
BRANCH   1  20
HETATM   20  S1  UNL     1      27.350   0.797  53.656  1.00  0.00     0.093 S 
HETATM   21  O1  UNL     1      27.308   2.230  54.161  1.00  0.00    -0.247 OA
BRANCH  20  22
HETATM   22  C2  UNL     1      28.752   0.023  54.417  1.00  0.00     0.075 C 
HETATM   23  C1  UNL     1      29.754  -0.399  53.623  1.00  0.00     0.021 C 
ENDBRANCH  20  22
ENDBRANCH   1  20
TORSDOF 4
ENDMDL
MODEL 7
REMARK VINA RESULT:      -6.7      2.656      3.742
REMARK  4 active torsions:
REMARK  status: ('A' for Active; 'I' for Inactive)
REMARK    1  A    between atoms: C2_2  and  S1_3 
REMARK    2  A    between atoms: S1_3  and  C3_5 
REMARK    3  A    between atoms: C6_8  and  N1_9 
REMARK    4  A    between atoms: C11_15  and  N2_16 
ROOT
HETATM    1  C3  UNL     1      24.468   0.710  52.608  1.00  0.00     0.140 A 
HETATM    2  C4  UNL     1      24.818   1.765  51.894  1.00  0.00     0.034 A 
HETATM    3  C5  UNL     1      24.170   2.963  51.372  1.00  0.00     0.043 A 
HETATM    4  C6  UNL     1      24.816   3.877  50.658  1.00  0.00     0.030 A 
HETATM    5  C12 UNL     1      26.250   3.722  50.354  1.00  0.00     0.206 A 
HETATM    6  N3  UNL     1      26.825   2.524  50.895  1.00  0.00    -0.281 NA
HETATM    7  C13 UNL     1      26.237   1.629  51.580  1.00  0.00     0.082 A 
HETATM    8  C14 UNL     1      26.633   0.363  52.212  1.00  0.00     0.150 A 
HETATM    9  N4  UNL     1      25.578  -0.130  52.792  1.00  0.00    -0.248 NA
ENDROOT
BRANCH   4  10
HETATM   10  N1  UNL     1      24.133   5.011  50.184  1.00  0.00    -0.349 N 
HETATM   11  C7  UNL     1      23.669   4.935  48.787  1.00  0.00     0.145 C 
HETATM   12  C8  UNL     1      22.489   5.820  48.526  1.00  0.00     0.098 C 
HETATM   13 BR1  UNL     1      23.013   7.500  47.687  1.00  0.00    -0.085 Br
HETATM   14  C9  UNL     1      21.655   6.086  49.731  1.00  0.00    -0.010 C 
HETATM   15  C10 UNL     1      22.299   6.297  50.877  1.00  0.00     0.026 C 
HETATM   16  C11 UNL     1      23.799   6.243  50.820  1.00  0.00     0.342 C 
BRANCH  16  17
HETATM   17  N2  UNL     1      24.415   6.518  52.067  1.00  0.00     0.105 N 
HETATM   18  H11 UNL     1      25.045   5.768  52.399  1.00  0.00     0.315 HD
HETATM   19  H12 UNL     1      23.696   6.753  52.788  1.00  0.00     0.315 HD
ENDBRANCH  16  17
ENDBRANCH   4  10
BRANCH   1  20
HETATM   20  S1  UNL     1      22.811   0.458  53.212  1.00  0.00     0.093 S 
HETATM   21  O1  UNL     1      21.953   0.069  52.019  1.00  0.00    -0.247 OA
BRANCH  20  22
HETATM   22  C2  UNL     1      22.757  -0.900  54.351  1.00  0.00     0.075 C 
HETATM   23  C1  UNL     1      21.608  -1.591  54.463  1.00  0.00     0.021 C 
ENDBRANCH  20  22
ENDBRANCH   1  20
TORSDOF 4
ENDMDL
MODEL 8
REMARK VINA RESULT:      -6.5      3.842      6.968
REMARK  4 active torsions:
REMARK  status: ('A' for Active; 'I' for Inactive)
REMARK    1  A    between atoms: C2_2  and  S1_3 
REMARK    2  A    between atoms: S1_3  and  C3_5 
REMARK    3  A    between atoms: C6_8  and  N1_9 
REMARK    4  A    between atoms: C11_15  and  N2_16 
ROOT
HETATM    1  C3  UNL     1      23.435   5.386  50.431  1.00  0.00     0.140 A 
HETATM    2  C4  UNL     1      24.348   4.470  50.693  1.00  0.00     0.034 A 
HETATM    3  C5  UNL     1      24.555   3.421  51.685  1.00  0.00     0.043 A 
HETATM    4  C6  UNL     1      25.621   2.628  51.684  1.00  0.00     0.030 A 
HETATM    5  C12 UNL     1      26.667   2.774  50.656  1.00  0.00     0.206 A 
HETATM    6  N3  UNL     1      26.404   3.822  49.713  1.00  0.00    -0.281 NA
HETATM    7  C13 UNL     1      25.397   4.597  49.685  1.00  0.00     0.082 A 
HETATM    8  C14 UNL     1      24.948   5.703  48.828  1.00  0.00     0.150 A 
HETATM    9  N4  UNL     1      23.813   6.126  49.299  1.00  0.00    -0.248 NA
ENDROOT
BRANCH   4  10
HETATM   10  N1  UNL     1      25.760   1.636  52.670  1.00  0.00    -0.349 N 
HETATM   11  C7  UNL     1      24.772   0.544  52.618  1.00  0.00     0.145 C 
HETATM   12  C8  UNL     1      25.284  -0.723  53.232  1.00  0.00     0.098 C 
HETATM   13 BR1  UNL     1      24.637  -0.960  55.055  1.00  0.00    -0.085 Br
HETATM   14  C9  UNL     1      26.767  -0.857  53.191  1.00  0.00    -0.010 C 
HETATM   15  C10 UNL     1      27.480   0.240  53.438  1.00  0.00     0.026 C 
HETATM   16  C11 UNL     1      26.701   1.491  53.732  1.00  0.00     0.342 C 
BRANCH  16  17
HETATM   17  N2  UNL     1      27.527   2.606  54.026  1.00  0.00     0.105 N 
HETATM   18  H11 UNL     1      27.004   3.450  54.317  1.00  0.00     0.315 HD
HETATM   19  H12 UNL     1      28.163   2.814  53.224  1.00  0.00     0.315 HD
ENDBRANCH  16  17
ENDBRANCH   4  10
BRANCH   1  20
HETATM   20  S1  UNL     1      21.965   5.595  51.416  1.00  0.00     0.093 S 
HETATM   21  O1  UNL     1      21.383   6.957  51.072  1.00  0.00    -0.247 OA
BRANCH  20  22
HETATM   22  C2  UNL     1      20.742   4.387  50.984  1.00  0.00     0.075 C 
HETATM   23  C1  UNL     1      20.249   3.602  51.960  1.00  0.00     0.021 C 
ENDBRANCH  20  22
ENDBRANCH   1  20
TORSDOF 4
ENDMDL
MODEL 9
REMARK VINA RESULT:      -6.3      4.916      6.772
REMARK  4 active torsions:
REMARK  status: ('A' for Active; 'I' for Inactive)
REMARK    1  A    between atoms: C2_2  and  S1_3 
REMARK    2  A    between atoms: S1_3  and  C3_5 
REMARK    3  A    between atoms: C6_8  and  N1_9 
REMARK    4  A    between atoms: C11_15  and  N2_16 
ROOT
HETATM    1  C3  UNL     1      27.846   7.191  47.905  1.00  0.00     0.140 A 
HETATM    2  C4  UNL     1      27.105   6.296  48.533  1.00  0.00     0.034 A 
HETATM    3  C5  UNL     1      25.765   6.233  49.107  1.00  0.00     0.043 A 
HETATM    4  C6  UNL     1      25.285   5.144  49.696  1.00  0.00     0.030 A 
HETATM    5  C12 UNL     1      26.101   3.921  49.800  1.00  0.00     0.206 A 
HETATM    6  N3  UNL     1      27.406   4.050  49.217  1.00  0.00    -0.281 NA
HETATM    7  C13 UNL     1      27.896   5.075  48.647  1.00  0.00     0.082 A 
HETATM    8  C14 UNL     1      29.174   5.405  48.002  1.00  0.00     0.150 A 
HETATM    9  N4  UNL     1      29.097   6.636  47.591  1.00  0.00    -0.248 NA
ENDROOT
BRANCH   4  10
HETATM   10  N1  UNL     1      23.985   5.150  50.230  1.00  0.00    -0.349 N 
HETATM   11  C7  UNL     1      22.959   4.476  49.413  1.00  0.00     0.145 C 
HETATM   12  C8  UNL     1      21.807   3.982  50.234  1.00  0.00     0.098 C 
HETATM   13 BR1  UNL     1      20.286   5.200  50.157  1.00  0.00    -0.085 Br
HETATM   14  C9  UNL     1      22.157   3.685  51.650  1.00  0.00    -0.010 C 
HETATM   15  C10 UNL     1      22.983   4.534  52.258  1.00  0.00     0.026 C 
HETATM   16  C11 UNL     1      23.467   5.698  51.441  1.00  0.00     0.342 C 
BRANCH  16  17
HETATM   17  N2  UNL     1      24.308   6.578  52.168  1.00  0.00     0.105 N 
HETATM   18  H11 UNL     1      23.872   6.965  53.023  1.00  0.00     0.315 HD
HETATM   19  H12 UNL     1      24.665   7.340  51.548  1.00  0.00     0.315 HD
ENDBRANCH  16  17
ENDBRANCH   4  10
BRANCH   1  20
HETATM   20  S1  UNL     1      27.275   8.840  47.548  1.00  0.00     0.093 S 
HETATM   21  O1  UNL     1      25.988   8.706  46.750  1.00  0.00    -0.247 OA
BRANCH  20  22
HETATM   22  C2  UNL     1      26.868   9.702  49.043  1.00  0.00     0.075 C 
HETATM   23  C1  UNL     1      27.560   9.403  50.158  1.00  0.00     0.021 C 
ENDBRANCH  20  22
ENDBRANCH   1  20
TORSDOF 4
ENDMDL
