MODEL 1
REMARK VINA RESULT:      -8.5      0.000      0.000
REMARK  3 active torsions:
REMARK  status: ('A' for Active; 'I' for Inactive)
REMARK    1  A    between atoms: C4_5  and  N2_6 
REMARK    2  A    between atoms: C4_5  and  C11_14 
REMARK    3  A    between atoms: N2_6  and  C5_7 
ROOT
HETATM    1  C1  UNL     1      27.237   2.538  52.873  1.00  0.00     0.062 C 
HETATM    2  C2  UNL     1      26.061   1.718  52.429  1.00  0.00     0.045 C 
HETATM    3  C3  UNL     1      25.311   2.151  51.260  1.00  0.00     0.097 C 
HETATM    4  N1  UNL     1      24.719   2.512  50.317  1.00  0.00    -0.192 NA
HETATM    5  C4  UNL     1      25.581   0.590  52.979  1.00  0.00     0.079 C 
ENDROOT
BRANCH   5   6
HETATM    6  N2  UNL     1      24.446  -0.110  52.465  1.00  0.00    -0.355 N 
HETATM    7  H4  UNL     1      24.580  -0.744  51.659  1.00  0.00     0.166 HD
BRANCH   6   8
HETATM    8  C5  UNL     1      23.175   0.084  53.072  1.00  0.00     0.033 A 
HETATM    9  C6  UNL     1      22.839  -0.650  54.190  1.00  0.00     0.029 A 
HETATM   10  C7  UNL     1      21.596  -0.434  54.752  1.00  0.00     0.004 A 
HETATM   11  C8  UNL     1      20.715   0.492  54.208  1.00  0.00     0.019 A 
HETATM   12  C9  UNL     1      21.063   1.220  53.088  1.00  0.00     0.013 A 
HETATM   13 BR1  UNL     1      19.887   2.499  52.308  1.00  0.00    -0.051 Br
HETATM   14  C10 UNL     1      22.315   1.018  52.503  1.00  0.00     0.048 A 
ENDBRANCH   6   8
ENDBRANCH   5   6
BRANCH   5  15
HETATM   15  C11 UNL     1      26.007  -0.211  54.150  1.00  0.00     0.373 C 
HETATM   16  N3  UNL     1      26.359  -1.565  53.786  1.00  0.00     0.112 N 
HETATM   17  C12 UNL     1      27.109  -1.693  52.579  1.00  0.00     0.276 C 
HETATM   18  H10 UNL     1      26.709  -2.080  54.600  1.00  0.00     0.319 HD
HETATM   19  C13 UNL     1      28.392  -2.461  52.897  1.00  0.00     0.057 C 
HETATM   20  C14 UNL     1      29.448  -1.578  53.400  1.00  0.00    -0.019 C 
HETATM   21  C15 UNL     1      29.499  -0.475  54.119  1.00  0.00     0.070 C 
HETATM   22  C16 UNL     1      28.481   0.350  54.729  1.00  0.00     0.242 C 
HETATM   23  O1  UNL     1      29.044   1.322  55.319  1.00  0.00    -0.269 OA
HETATM   24  N4  UNL     1      27.067   0.442  54.893  1.00  0.00    -0.323 N 
HETATM   25  H17 UNL     1      26.717   1.076  55.670  1.00  0.00     0.165 HD
ENDBRANCH   5  15
TORSDOF 3
ENDMDL
MODEL 2
REMARK VINA RESULT:      -7.9      3.534      6.421
REMARK  3 active torsions:
REMARK  status: ('A' for Active; 'I' for Inactive)
REMARK    1  A    between atoms: C4_5  and  N2_6 
REMARK    2  A    between atoms: C4_5  and  C11_14 
REMARK    3  A    between atoms: N2_6  and  C5_7 
ROOT
HETATM    1  C1  UNL     1      24.237   3.275  49.133  1.00  0.00     0.062 C 
HETATM    2  C2  UNL     1      25.504   3.335  49.936  1.00  0.00     0.045 C 
HETATM    3  C3  UNL     1      26.709   3.846  49.301  1.00  0.00     0.097 C 
HETATM    4  N1  UNL     1      27.669   4.260  48.775  1.00  0.00    -0.192 NA
HETATM    5  C4  UNL     1      25.693   2.970  51.216  1.00  0.00     0.079 C 
ENDROOT
BRANCH   5   6
HETATM    6  N2  UNL     1      26.954   3.073  51.880  1.00  0.00    -0.355 N 
HETATM    7  H4  UNL     1      27.470   3.968  51.826  1.00  0.00     0.166 HD
BRANCH   6   8
HETATM    8  C5  UNL     1      27.460   1.950  52.592  1.00  0.00     0.033 A 
HETATM    9  C6  UNL     1      28.338   2.150  53.636  1.00  0.00     0.029 A 
HETATM   10  C7  UNL     1      28.808   1.036  54.303  1.00  0.00     0.004 A 
HETATM   11  C8  UNL     1      28.408  -0.242  53.935  1.00  0.00     0.019 A 
HETATM   12  C9  UNL     1      27.528  -0.429  52.888  1.00  0.00     0.013 A 
HETATM   13 BR1  UNL     1      26.953  -2.162  52.348  1.00  0.00    -0.051 Br
HETATM   14  C10 UNL     1      27.040   0.683  52.198  1.00  0.00     0.048 A 
ENDBRANCH   6   8
ENDBRANCH   5   6
BRANCH   5  15
HETATM   15  C11 UNL     1      24.782   2.411  52.241  1.00  0.00     0.373 C 
HETATM   16  N3  UNL     1      24.167   3.443  53.045  1.00  0.00     0.112 N 
HETATM   17  C12 UNL     1      23.736   4.597  52.323  1.00  0.00     0.276 C 
HETATM   18  H10 UNL     1      23.494   3.038  53.703  1.00  0.00     0.319 HD
HETATM   19  C13 UNL     1      22.252   4.815  52.618  1.00  0.00     0.057 C 
HETATM   20  C14 UNL     1      21.396   4.010  51.743  1.00  0.00    -0.019 C 
HETATM   21  C15 UNL     1      21.479   2.833  51.156  1.00  0.00     0.070 C 
HETATM   22  C16 UNL     1      22.502   1.813  51.138  1.00  0.00     0.242 C 
HETATM   23  O1  UNL     1      22.107   0.851  50.411  1.00  0.00    -0.269 OA
HETATM   24  N4  UNL     1      23.798   1.520  51.659  1.00  0.00    -0.323 N 
HETATM   25  H17 UNL     1      24.107   0.504  51.627  1.00  0.00     0.165 HD
ENDBRANCH   5  15
TORSDOF 3
ENDMDL
MODEL 3
REMARK VINA RESULT:      -7.8      2.592      4.080
REMARK  3 active torsions:
REMARK  status: ('A' for Active; 'I' for Inactive)
REMARK    1  A    between atoms: C4_5  and  N2_6 
REMARK    2  A    between atoms: C4_5  and  C11_14 
REMARK    3  A    between atoms: N2_6  and  C5_7 
ROOT
HETATM    1  C1  UNL     1      25.288  -0.686  54.591  1.00  0.00     0.062 C 
HETATM    2  C2  UNL     1      24.480   0.042  53.557  1.00  0.00     0.045 C 
HETATM    3  C3  UNL     1      23.054   0.221  53.785  1.00  0.00     0.097 C 
HETATM    4  N1  UNL     1      21.909   0.358  53.984  1.00  0.00    -0.192 NA
HETATM    5  C4  UNL     1      24.904   0.578  52.399  1.00  0.00     0.079 C 
ENDROOT
BRANCH   5   6
HETATM    6  N2  UNL     1      24.036   1.253  51.486  1.00  0.00    -0.355 N 
HETATM    7  H4  UNL     1      23.475   0.688  50.827  1.00  0.00     0.166 HD
BRANCH   6   8
HETATM    8  C5  UNL     1      23.971   2.674  51.509  1.00  0.00     0.033 A 
HETATM    9  C6  UNL     1      23.524   3.312  52.646  1.00  0.00     0.029 A 
HETATM   10  C7  UNL     1      23.474   4.693  52.632  1.00  0.00     0.004 A 
HETATM   11  C8  UNL     1      23.863   5.412  51.509  1.00  0.00     0.019 A 
HETATM   12  C9  UNL     1      24.308   4.760  50.376  1.00  0.00     0.013 A 
HETATM   13 BR1  UNL     1      24.850   5.705  48.813  1.00  0.00    -0.051 Br
HETATM   14  C10 UNL     1      24.367   3.365  50.368  1.00  0.00     0.048 A 
ENDBRANCH   6   8
ENDBRANCH   5   6
BRANCH   5  15
HETATM   15  C11 UNL     1      26.237   0.645  51.757  1.00  0.00     0.373 C 
HETATM   16  N3  UNL     1      26.977   1.820  52.160  1.00  0.00     0.112 N 
HETATM   17  C12 UNL     1      26.882   2.151  53.545  1.00  0.00     0.276 C 
HETATM   18  H10 UNL     1      27.918   1.813  51.754  1.00  0.00     0.319 HD
HETATM   19  C13 UNL     1      28.301   2.235  54.111  1.00  0.00     0.057 C 
HETATM   20  C14 UNL     1      28.809   0.921  54.511  1.00  0.00    -0.019 C 
HETATM   21  C15 UNL     1      28.658  -0.322  54.097  1.00  0.00     0.070 C 
HETATM   22  C16 UNL     1      27.888  -0.915  53.027  1.00  0.00     0.242 C 
HETATM   23  O1  UNL     1      28.072  -2.170  53.040  1.00  0.00    -0.269 OA
HETATM   24  N4  UNL     1      26.998  -0.571  51.967  1.00  0.00    -0.323 N 
HETATM   25  H17 UNL     1      26.858  -1.298  51.205  1.00  0.00     0.165 HD
ENDBRANCH   5  15
TORSDOF 3
ENDMDL
MODEL 4
REMARK VINA RESULT:      -7.7      3.131      5.409
REMARK  3 active torsions:
REMARK  status: ('A' for Active; 'I' for Inactive)
REMARK    1  A    between atoms: C4_5  and  N2_6 
REMARK    2  A    between atoms: C4_5  and  C11_14 
REMARK    3  A    between atoms: N2_6  and  C5_7 
ROOT
HETATM    1  C1  UNL     1      21.492   2.843  51.465  1.00  0.00     0.062 C 
HETATM    2  C2  UNL     1      22.801   2.839  50.730  1.00  0.00     0.045 C 
HETATM    3  C3  UNL     1      22.783   2.861  49.275  1.00  0.00     0.097 C 
HETATM    4  N1  UNL     1      22.752   2.880  48.105  1.00  0.00    -0.192 NA
HETATM    5  C4  UNL     1      24.042   2.818  51.245  1.00  0.00     0.079 C 
ENDROOT
BRANCH   5   6
HETATM    6  N2  UNL     1      25.223   2.816  50.441  1.00  0.00    -0.355 N 
HETATM    7  H4  UNL     1      25.686   1.912  50.244  1.00  0.00     0.166 HD
BRANCH   6   8
HETATM    8  C5  UNL     1      25.725   4.048  49.939  1.00  0.00     0.033 A 
HETATM    9  C6  UNL     1      26.872   4.050  49.173  1.00  0.00     0.029 A 
HETATM   10  C7  UNL     1      27.330   5.265  48.703  1.00  0.00     0.004 A 
HETATM   11  C8  UNL     1      26.656   6.445  48.991  1.00  0.00     0.019 A 
HETATM   12  C9  UNL     1      25.509   6.430  49.760  1.00  0.00     0.013 A 
HETATM   13 BR1  UNL     1      24.554   8.023  50.181  1.00  0.00    -0.051 Br
HETATM   14  C10 UNL     1      25.028   5.212  50.246  1.00  0.00     0.048 A 
ENDBRANCH   6   8
ENDBRANCH   5   6
BRANCH   5  15
HETATM   15  C11 UNL     1      24.545   2.794  52.638  1.00  0.00     0.373 C 
HETATM   16  N3  UNL     1      24.057   1.650  53.375  1.00  0.00     0.112 N 
HETATM   17  C12 UNL     1      24.041   0.423  52.646  1.00  0.00     0.276 C 
HETATM   18  H10 UNL     1      24.468   1.621  54.313  1.00  0.00     0.319 HD
HETATM   19  C13 UNL     1      24.842  -0.610  53.441  1.00  0.00     0.057 C 
HETATM   20  C14 UNL     1      26.277  -0.522  53.162  1.00  0.00    -0.019 C 
HETATM   21  C15 UNL     1      27.128   0.439  52.857  1.00  0.00     0.070 C 
HETATM   22  C16 UNL     1      26.975   1.863  52.663  1.00  0.00     0.242 C 
HETATM   23  O1  UNL     1      28.106   2.358  52.372  1.00  0.00    -0.269 OA
HETATM   24  N4  UNL     1      25.990   2.895  52.690  1.00  0.00    -0.323 N 
HETATM   25  H17 UNL     1      26.347   3.893  52.761  1.00  0.00     0.165 HD
ENDBRANCH   5  15
TORSDOF 3
ENDMDL
MODEL 5
REMARK VINA RESULT:      -7.5      4.244      5.693
REMARK  3 active torsions:
REMARK  status: ('A' for Active; 'I' for Inactive)
REMARK    1  A    between atoms: C4_5  and  N2_6 
REMARK    2  A    between atoms: C4_5  and  C11_14 
REMARK    3  A    between atoms: N2_6  and  C5_7 
ROOT
HETATM    1  C1  UNL     1      23.168   4.654  48.448  1.00  0.00     0.062 C 
HETATM    2  C2  UNL     1      23.198   3.343  49.179  1.00  0.00     0.045 C 
HETATM    3  C3  UNL     1      22.403   2.239  48.663  1.00  0.00     0.097 C 
HETATM    4  N1  UNL     1      21.758   1.361  48.235  1.00  0.00    -0.192 NA
HETATM    5  C4  UNL     1      23.887   3.028  50.289  1.00  0.00     0.079 C 
ENDROOT
BRANCH   5   6
HETATM    6  N2  UNL     1      23.837   1.738  50.900  1.00  0.00    -0.355 N 
HETATM    7  H4  UNL     1      24.536   1.029  50.617  1.00  0.00     0.166 HD
BRANCH   6   8
HETATM    8  C5  UNL     1      22.836   1.465  51.873  1.00  0.00     0.033 A 
HETATM    9  C6  UNL     1      21.691   2.231  51.898  1.00  0.00     0.029 A 
HETATM   10  C7  UNL     1      20.741   1.937  52.857  1.00  0.00     0.004 A 
HETATM   11  C8  UNL     1      20.935   0.904  53.765  1.00  0.00     0.019 A 
HETATM   12  C9  UNL     1      22.087   0.145  53.730  1.00  0.00     0.013 A 
HETATM   13 BR1  UNL     1      22.396  -1.280  54.955  1.00  0.00    -0.051 Br
HETATM   14  C10 UNL     1      23.062   0.424  52.769  1.00  0.00     0.048 A 
ENDBRANCH   6   8
ENDBRANCH   5   6
BRANCH   5  15
HETATM   15  C11 UNL     1      24.810   3.806  51.147  1.00  0.00     0.373 C 
HETATM   16  N3  UNL     1      26.189   3.660  50.736  1.00  0.00     0.112 N 
HETATM   17  C12 UNL     1      26.406   3.681  49.325  1.00  0.00     0.276 C 
HETATM   18  H10 UNL     1      26.801   4.255  51.302  1.00  0.00     0.319 HD
HETATM   19  C13 UNL     1      27.428   4.776  49.019  1.00  0.00     0.057 C 
HETATM   20  C14 UNL     1      26.799   6.092  48.891  1.00  0.00    -0.019 C 
HETATM   21  C15 UNL     1      25.763   6.706  49.429  1.00  0.00     0.070 C 
HETATM   22  C16 UNL     1      24.781   6.301  50.410  1.00  0.00     0.242 C 
HETATM   23  O1  UNL     1      23.970   7.259  50.593  1.00  0.00    -0.269 OA
HETATM   24  N4  UNL     1      24.418   5.198  51.238  1.00  0.00    -0.323 N 
HETATM   25  H17 UNL     1      23.764   5.406  52.050  1.00  0.00     0.165 HD
ENDBRANCH   5  15
TORSDOF 3
ENDMDL
MODEL 6
REMARK VINA RESULT:      -7.5      1.838      2.500
REMARK  3 active torsions:
REMARK  status: ('A' for Active; 'I' for Inactive)
REMARK    1  A    between atoms: C4_5  and  N2_6 
REMARK    2  A    between atoms: C4_5  and  C11_14 
REMARK    3  A    between atoms: N2_6  and  C5_7 
ROOT
HETATM    1  C1  UNL     1      26.861   2.408  50.887  1.00  0.00     0.062 C 
HETATM    2  C2  UNL     1      25.428   2.728  51.203  1.00  0.00     0.045 C 
HETATM    3  C3  UNL     1      24.605   3.333  50.167  1.00  0.00     0.097 C 
HETATM    4  N1  UNL     1      23.955   3.819  49.323  1.00  0.00    -0.192 NA
HETATM    5  C4  UNL     1      24.768   2.524  52.355  1.00  0.00     0.079 C 
ENDROOT
BRANCH   5   6
HETATM    6  N2  UNL     1      23.394   2.872  52.541  1.00  0.00    -0.355 N 
HETATM    7  H4  UNL     1      23.165   3.822  52.880  1.00  0.00     0.166 HD
BRANCH   6   8
HETATM    8  C5  UNL     1      22.387   1.908  52.256  1.00  0.00     0.033 A 
HETATM    9  C6  UNL     1      21.697   1.982  51.065  1.00  0.00     0.029 A 
HETATM   10  C7  UNL     1      20.727   1.029  50.823  1.00  0.00     0.004 A 
HETATM   11  C8  UNL     1      20.457   0.030  51.750  1.00  0.00     0.019 A 
HETATM   12  C9  UNL     1      21.155  -0.032  52.939  1.00  0.00     0.013 A 
HETATM   13 BR1  UNL     1      20.819  -1.383  54.239  1.00  0.00    -0.051 Br
HETATM   14  C10 UNL     1      22.141   0.921  53.205  1.00  0.00     0.048 A 
ENDBRANCH   6   8
ENDBRANCH   5   6
BRANCH   5  15
HETATM   15  C11 UNL     1      25.180   1.947  53.655  1.00  0.00     0.373 C 
HETATM   16  N3  UNL     1      25.106   0.503  53.657  1.00  0.00     0.112 N 
HETATM   17  C12 UNL     1      25.572  -0.129  52.466  1.00  0.00     0.276 C 
HETATM   18  H10 UNL     1      25.455   0.124  54.543  1.00  0.00     0.319 HD
HETATM   19  C13 UNL     1      26.655  -1.136  52.855  1.00  0.00     0.057 C 
HETATM   20  C14 UNL     1      27.971  -0.505  52.973  1.00  0.00    -0.019 C 
HETATM   21  C15 UNL     1      28.428   0.676  53.339  1.00  0.00     0.070 C 
HETATM   22  C16 UNL     1      27.777   1.885  53.790  1.00  0.00     0.242 C 
HETATM   23  O1  UNL     1      28.663   2.765  54.017  1.00  0.00    -0.269 OA
HETATM   24  N4  UNL     1      26.485   2.423  54.067  1.00  0.00    -0.323 N 
HETATM   25  H17 UNL     1      26.451   3.301  54.663  1.00  0.00     0.165 HD
ENDBRANCH   5  15
TORSDOF 3
ENDMDL
MODEL 7
REMARK VINA RESULT:      -7.4      4.382      7.175
REMARK  3 active torsions:
REMARK  status: ('A' for Active; 'I' for Inactive)
REMARK    1  A    between atoms: C4_5  and  N2_6 
REMARK    2  A    between atoms: C4_5  and  C11_14 
REMARK    3  A    between atoms: N2_6  and  C5_7 
ROOT
HETATM    1  C1  UNL     1      23.436   3.725  48.961  1.00  0.00     0.062 C 
HETATM    2  C2  UNL     1      24.235   3.562  50.222  1.00  0.00     0.045 C 
HETATM    3  C3  UNL     1      25.651   3.243  50.115  1.00  0.00     0.097 C 
HETATM    4  N1  UNL     1      26.788   2.988  50.011  1.00  0.00    -0.192 NA
HETATM    5  C4  UNL     1      23.811   3.674  51.493  1.00  0.00     0.079 C 
ENDROOT
BRANCH   5   6
HETATM    6  N2  UNL     1      24.669   3.496  52.622  1.00  0.00    -0.355 N 
HETATM    7  H4  UNL     1      25.071   4.334  53.075  1.00  0.00     0.166 HD
BRANCH   6   8
HETATM    8  C5  UNL     1      24.943   2.180  53.086  1.00  0.00     0.033 A 
HETATM    9  C6  UNL     1      23.951   1.225  53.041  1.00  0.00     0.029 A 
HETATM   10  C7  UNL     1      24.254  -0.042  53.500  1.00  0.00     0.004 A 
HETATM   11  C8  UNL     1      25.518  -0.342  53.992  1.00  0.00     0.019 A 
HETATM   12  C9  UNL     1      26.504   0.624  54.033  1.00  0.00     0.013 A 
HETATM   13 BR1  UNL     1      28.250   0.259  54.699  1.00  0.00    -0.051 Br
HETATM   14  C10 UNL     1      26.219   1.912  53.573  1.00  0.00     0.048 A 
ENDBRANCH   6   8
ENDBRANCH   5   6
BRANCH   5  15
HETATM   15  C11 UNL     1      22.487   3.981  52.082  1.00  0.00     0.373 C 
HETATM   16  N3  UNL     1      22.299   5.400  52.289  1.00  0.00     0.112 N 
HETATM   17  C12 UNL     1      22.774   6.235  51.233  1.00  0.00     0.276 C 
HETATM   18  H10 UNL     1      21.355   5.593  52.637  1.00  0.00     0.319 HD
HETATM   19  C13 UNL     1      21.614   7.119  50.771  1.00  0.00     0.057 C 
HETATM   20  C14 UNL     1      20.768   6.440  49.786  1.00  0.00    -0.019 C 
HETATM   21  C15 UNL     1      20.391   5.199  49.554  1.00  0.00     0.070 C 
HETATM   22  C16 UNL     1      20.679   3.944  50.211  1.00  0.00     0.242 C 
HETATM   23  O1  UNL     1      20.074   3.014  49.596  1.00  0.00    -0.269 OA
HETATM   24  N4  UNL     1      21.407   3.400  51.311  1.00  0.00    -0.323 N 
HETATM   25  H17 UNL     1      21.130   2.425  51.630  1.00  0.00     0.165 HD
ENDBRANCH   5  15
TORSDOF 3
ENDMDL
MODEL 8
REMARK VINA RESULT:      -7.3      4.490      6.888
REMARK  3 active torsions:
REMARK  status: ('A' for Active; 'I' for Inactive)
REMARK    1  A    between atoms: C4_5  and  N2_6 
REMARK    2  A    between atoms: C4_5  and  C11_14 
REMARK    3  A    between atoms: N2_6  and  C5_7 
ROOT
HETATM    1  C1  UNL     1      21.548   5.157  48.716  1.00  0.00     0.062 C 
HETATM    2  C2  UNL     1      22.452   4.004  49.045  1.00  0.00     0.045 C 
HETATM    3  C3  UNL     1      22.521   2.885  48.117  1.00  0.00     0.097 C 
HETATM    4  N1  UNL     1      22.566   1.994  47.360  1.00  0.00    -0.192 NA
HETATM    5  C4  UNL     1      23.243   3.852  50.121  1.00  0.00     0.079 C 
ENDROOT
BRANCH   5   6
HETATM    6  N2  UNL     1      24.066   2.703  50.329  1.00  0.00    -0.355 N 
HETATM    7  H4  UNL     1      24.931   2.606  49.771  1.00  0.00     0.166 HD
BRANCH   6   8
HETATM    8  C5  UNL     1      23.675   1.731  51.292  1.00  0.00     0.033 A 
HETATM    9  C6  UNL     1      22.368   1.294  51.321  1.00  0.00     0.029 A 
HETATM   10  C7  UNL     1      22.026   0.351  52.269  1.00  0.00     0.004 A 
HETATM   11  C8  UNL     1      22.968  -0.142  53.163  1.00  0.00     0.019 A 
HETATM   12  C9  UNL     1      24.274   0.305  53.124  1.00  0.00     0.013 A 
HETATM   13 BR1  UNL     1      25.599  -0.341  54.330  1.00  0.00    -0.051 Br
HETATM   14  C10 UNL     1      24.643   1.259  52.174  1.00  0.00     0.048 A 
ENDBRANCH   6   8
ENDBRANCH   5   6
BRANCH   5  15
HETATM   15  C11 UNL     1      23.500   4.707  51.302  1.00  0.00     0.373 C 
HETATM   16  N3  UNL     1      24.834   5.265  51.291  1.00  0.00     0.112 N 
HETATM   17  C12 UNL     1      25.287   5.725  50.018  1.00  0.00     0.276 C 
HETATM   18  H10 UNL     1      24.967   5.902  52.082  1.00  0.00     0.319 HD
HETATM   19  C13 UNL     1      25.708   7.188  50.165  1.00  0.00     0.057 C 
HETATM   20  C14 UNL     1      24.570   8.101  50.033  1.00  0.00    -0.019 C 
HETATM   21  C15 UNL     1      23.285   8.064  50.324  1.00  0.00     0.070 C 
HETATM   22  C16 UNL     1      22.440   7.053  50.918  1.00  0.00     0.242 C 
HETATM   23  O1  UNL     1      21.254   7.499  50.982  1.00  0.00    -0.269 OA
HETATM   24  N4  UNL     1      22.486   5.732  51.456  1.00  0.00    -0.323 N 
HETATM   25  H17 UNL     1      21.667   5.436  52.064  1.00  0.00     0.165 HD
ENDBRANCH   5  15
TORSDOF 3
ENDMDL
MODEL 9
REMARK VINA RESULT:      -7.2      3.729      6.068
REMARK  3 active torsions:
REMARK  status: ('A' for Active; 'I' for Inactive)
REMARK    1  A    between atoms: C4_5  and  N2_6 
REMARK    2  A    between atoms: C4_5  and  C11_14 
REMARK    3  A    between atoms: N2_6  and  C5_7 
ROOT
HETATM    1  C1  UNL     1      21.271   4.057  51.589  1.00  0.00     0.062 C 
HETATM    2  C2  UNL     1      22.164   2.884  51.307  1.00  0.00     0.045 C 
HETATM    3  C3  UNL     1      21.566   1.659  50.795  1.00  0.00     0.097 C 
HETATM    4  N1  UNL     1      21.070   0.683  50.383  1.00  0.00    -0.192 NA
HETATM    5  C4  UNL     1      23.496   2.798  51.466  1.00  0.00     0.079 C 
ENDROOT
BRANCH   5   6
HETATM    6  N2  UNL     1      24.245   1.620  51.162  1.00  0.00    -0.355 N 
HETATM    7  H4  UNL     1      24.438   1.398  50.170  1.00  0.00     0.166 HD
BRANCH   6   8
HETATM    8  C5  UNL     1      24.702   0.792  52.224  1.00  0.00     0.033 A 
HETATM    9  C6  UNL     1      23.810   0.379  53.191  1.00  0.00     0.029 A 
HETATM   10  C7  UNL     1      24.289  -0.425  54.207  1.00  0.00     0.004 A 
HETATM   11  C8  UNL     1      25.625  -0.804  54.252  1.00  0.00     0.019 A 
HETATM   12  C9  UNL     1      26.508  -0.383  53.278  1.00  0.00     0.013 A 
HETATM   13 BR1  UNL     1      28.347  -0.877  53.299  1.00  0.00    -0.051 Br
HETATM   14  C10 UNL     1      26.045   0.430  52.240  1.00  0.00     0.048 A 
ENDBRANCH   6   8
ENDBRANCH   5   6
BRANCH   5  15
HETATM   15  C11 UNL     1      24.510   3.766  51.944  1.00  0.00     0.373 C 
HETATM   16  N3  UNL     1      25.747   3.671  51.201  1.00  0.00     0.112 N 
HETATM   17  C12 UNL     1      25.596   3.500  49.793  1.00  0.00     0.276 C 
HETATM   18  H10 UNL     1      26.409   4.390  51.507  1.00  0.00     0.319 HD
HETATM   19  C13 UNL     1      26.373   4.615  49.093  1.00  0.00     0.057 C 
HETATM   20  C14 UNL     1      25.584   5.843  48.977  1.00  0.00    -0.019 C 
HETATM   21  C15 UNL     1      24.653   6.445  49.692  1.00  0.00     0.070 C 
HETATM   22  C16 UNL     1      24.006   6.113  50.941  1.00  0.00     0.242 C 
HETATM   23  O1  UNL     1      23.162   7.020  51.216  1.00  0.00    -0.269 OA
HETATM   24  N4  UNL     1      23.994   5.120  51.965  1.00  0.00    -0.323 N 
HETATM   25  H17 UNL     1      23.548   5.393  52.890  1.00  0.00     0.165 HD
ENDBRANCH   5  15
TORSDOF 3
ENDMDL
