MODEL 1
REMARK VINA RESULT:      -6.8      0.000      0.000
REMARK  3 active torsions:
REMARK  status: ('A' for Active; 'I' for Inactive)
REMARK    1  A    between atoms: O1_2  and  C2_3 
REMARK    2  A    between atoms: C6_9  and  N3_10 
REMARK    3  A    between atoms: N3_10  and  C8_12 
ROOT
HETATM    1  C2  UNL     1      26.166   2.727  50.918  1.00  0.00     0.188 C 
HETATM    2  C3  UNL     1      26.702   1.439  51.297  1.00  0.00     0.093 C 
HETATM    3  C4  UNL     1      26.401   1.003  52.757  1.00  0.00     0.058 C 
HETATM    4  N1  UNL     1      25.861  -0.243  52.747  1.00  0.00    -0.245 NA
HETATM    5  C5  UNL     1      24.341  -0.357  53.072  1.00  0.00     0.235 C 
HETATM    6  N2  UNL     1      23.333   0.582  53.442  1.00  0.00    -0.220 NA
HETATM    7  C6  UNL     1      23.486   1.940  52.763  1.00  0.00     0.183 C 
HETATM    8  C14 UNL     1      24.650   2.702  52.893  1.00  0.00     0.193 C 
HETATM    9  N4  UNL     1      25.573   2.909  54.039  1.00  0.00    -0.362 N 
HETATM   10  C15 UNL     1      26.591   1.814  54.052  1.00  0.00     0.181 C 
HETATM   11  O2  UNL     1      25.074   3.432  51.696  1.00  0.00    -0.267 OA
HETATM   12  H14 UNL     1      25.821   3.531  54.880  1.00  0.00     0.162 HD
ENDROOT
BRANCH   7  13
HETATM   13  N3  UNL     1      22.828   2.833  51.884  1.00  0.00    -0.333 N 
HETATM   14  C7  UNL     1      22.521   4.169  52.369  1.00  0.00     0.158 C 
BRANCH  13  15
HETATM   15  C8  UNL     1      22.475   2.421  50.603  1.00  0.00     0.035 A 
HETATM   16  C9  UNL     1      21.797   1.255  50.239  1.00  0.00     0.029 A 
HETATM   17  C10 UNL     1      21.497   0.960  48.924  1.00  0.00     0.002 A 
HETATM   18  C11 UNL     1      21.865   1.826  47.908  1.00  0.00     0.000 A 
HETATM   19  C12 UNL     1      22.542   3.006  48.176  1.00  0.00     0.002 A 
HETATM   20  C13 UNL     1      22.804   3.229  49.511  1.00  0.00     0.029 A 
ENDBRANCH  13  15
ENDBRANCH   7  13
BRANCH   1  21
HETATM   21  O1  UNL     1      26.925   2.902  49.832  1.00  0.00    -0.335 OA
HETATM   22  C1  UNL     1      26.949   4.153  49.192  1.00  0.00     0.212 C 
ENDBRANCH   1  21
TORSDOF 3
ENDMDL
MODEL 2
REMARK VINA RESULT:      -6.7      2.206      4.438
REMARK  3 active torsions:
REMARK  status: ('A' for Active; 'I' for Inactive)
REMARK    1  A    between atoms: O1_2  and  C2_3 
REMARK    2  A    between atoms: C6_9  and  N3_10 
REMARK    3  A    between atoms: N3_10  and  C8_12 
ROOT
HETATM    1  C2  UNL     1      24.298   3.006  52.858  1.00  0.00     0.188 C 
HETATM    2  C3  UNL     1      23.770   1.743  52.392  1.00  0.00     0.093 C 
HETATM    3  C4  UNL     1      22.346   1.812  51.776  1.00  0.00     0.058 C 
HETATM    4  N1  UNL     1      22.361   1.216  50.555  1.00  0.00    -0.245 NA
HETATM    5  C5  UNL     1      22.254   2.151  49.312  1.00  0.00     0.235 C 
HETATM    6  N2  UNL     1      22.092   3.558  49.140  1.00  0.00    -0.220 NA
HETATM    7  C6  UNL     1      22.821   4.389  50.192  1.00  0.00     0.183 C 
HETATM    8  C14 UNL     1      22.568   4.235  51.558  1.00  0.00     0.193 C 
HETATM    9  N4  UNL     1      21.314   3.961  52.306  1.00  0.00    -0.362 N 
HETATM   10  C15 UNL     1      21.088   2.483  52.355  1.00  0.00     0.181 C 
HETATM   11  O2  UNL     1      23.732   4.347  52.440  1.00  0.00    -0.267 OA
HETATM   12  H14 UNL     1      20.484   4.389  52.838  1.00  0.00     0.162 HD
ENDROOT
BRANCH   7  13
HETATM   13  N3  UNL     1      23.838   5.361  50.343  1.00  0.00    -0.333 N 
HETATM   14  C7  UNL     1      23.516   6.583  51.062  1.00  0.00     0.158 C 
BRANCH  13  15
HETATM   15  C8  UNL     1      25.099   5.145  49.796  1.00  0.00     0.035 A 
HETATM   16  C9  UNL     1      25.823   3.951  49.770  1.00  0.00     0.029 A 
HETATM   17  C10 UNL     1      27.071   3.863  49.186  1.00  0.00     0.002 A 
HETATM   18  C11 UNL     1      27.653   4.973  48.599  1.00  0.00     0.000 A 
HETATM   19  C12 UNL     1      27.007   6.200  48.578  1.00  0.00     0.002 A 
HETATM   20  C13 UNL     1      25.767   6.208  49.180  1.00  0.00     0.029 A 
ENDBRANCH  13  15
ENDBRANCH   7  13
BRANCH   1  21
HETATM   21  O1  UNL     1      25.271   2.498  53.622  1.00  0.00    -0.335 OA
HETATM   22  C1  UNL     1      26.483   2.100  53.034  1.00  0.00     0.212 C 
ENDBRANCH   1  21
TORSDOF 3
ENDMDL
MODEL 3
REMARK VINA RESULT:      -6.5      3.058      5.133
REMARK  3 active torsions:
REMARK  status: ('A' for Active; 'I' for Inactive)
REMARK    1  A    between atoms: O1_2  and  C2_3 
REMARK    2  A    between atoms: C6_9  and  N3_10 
REMARK    3  A    between atoms: N3_10  and  C8_12 
ROOT
HETATM    1  C2  UNL     1      21.589   5.870  50.465  1.00  0.00     0.188 C 
HETATM    2  C3  UNL     1      22.126   6.724  49.429  1.00  0.00     0.093 C 
HETATM    3  C4  UNL     1      23.574   7.229  49.675  1.00  0.00     0.058 C 
HETATM    4  N1  UNL     1      24.332   6.960  48.580  1.00  0.00    -0.245 NA
HETATM    5  C5  UNL     1      25.386   5.819  48.713  1.00  0.00     0.235 C 
HETATM    6  N2  UNL     1      25.799   4.970  49.783  1.00  0.00    -0.220 NA
HETATM    7  C6  UNL     1      24.659   4.559  50.711  1.00  0.00     0.183 C 
HETATM    8  C14 UNL     1      23.875   5.503  51.379  1.00  0.00     0.193 C 
HETATM    9  N4  UNL     1      24.215   6.811  51.995  1.00  0.00    -0.362 N 
HETATM   10  C15 UNL     1      24.154   7.876  50.946  1.00  0.00     0.181 C 
HETATM   11  O2  UNL     1      22.452   5.181  51.501  1.00  0.00    -0.267 OA
HETATM   12  H14 UNL     1      24.492   7.325  52.897  1.00  0.00     0.162 HD
ENDROOT
BRANCH   7  13
HETATM   13  N3  UNL     1      23.955   3.427  51.184  1.00  0.00    -0.333 N 
HETATM   14  C7  UNL     1      24.105   3.063  52.584  1.00  0.00     0.158 C 
BRANCH  13  15
HETATM   15  C8  UNL     1      23.160   2.683  50.317  1.00  0.00     0.035 A 
HETATM   16  C9  UNL     1      23.066   2.808  48.929  1.00  0.00     0.029 A 
HETATM   17  C10 UNL     1      22.241   1.999  48.173  1.00  0.00     0.002 A 
HETATM   18  C11 UNL     1      21.468   1.022  48.778  1.00  0.00     0.000 A 
HETATM   19  C12 UNL     1      21.498   0.827  50.151  1.00  0.00     0.002 A 
HETATM   20  C13 UNL     1      22.345   1.672  50.835  1.00  0.00     0.029 A 
ENDBRANCH  13  15
ENDBRANCH   7  13
BRANCH   1  21
HETATM   21  O1  UNL     1      20.305   5.982  50.112  1.00  0.00    -0.335 OA
HETATM   22  C1  UNL     1      19.587   4.838  49.723  1.00  0.00     0.212 C 
ENDBRANCH   1  21
TORSDOF 3
ENDMDL
MODEL 4
REMARK VINA RESULT:      -6.4      2.456      5.590
REMARK  3 active torsions:
REMARK  status: ('A' for Active; 'I' for Inactive)
REMARK    1  A    between atoms: O1_2  and  C2_3 
REMARK    2  A    between atoms: C6_9  and  N3_10 
REMARK    3  A    between atoms: N3_10  and  C8_12 
ROOT
HETATM    1  C2  UNL     1      23.385   0.841  52.583  1.00  0.00     0.188 C 
HETATM    2  C3  UNL     1      23.386   1.396  51.248  1.00  0.00     0.093 C 
HETATM    3  C4  UNL     1      24.109   2.763  51.102  1.00  0.00     0.058 C 
HETATM    4  N1  UNL     1      25.009   2.684  50.088  1.00  0.00    -0.245 NA
HETATM    5  C5  UNL     1      26.517   2.647  50.483  1.00  0.00     0.235 C 
HETATM    6  N2  UNL     1      27.220   2.725  51.722  1.00  0.00    -0.220 NA
HETATM    7  C6  UNL     1      26.497   2.038  52.878  1.00  0.00     0.183 C 
HETATM    8  C14 UNL     1      25.203   2.402  53.258  1.00  0.00     0.193 C 
HETATM    9  N4  UNL     1      24.523   3.722  53.310  1.00  0.00    -0.362 N 
HETATM   10  C15 UNL     1      23.941   4.026  51.966  1.00  0.00     0.181 C 
HETATM   11  O2  UNL     1      24.326   1.306  53.675  1.00  0.00    -0.267 OA
HETATM   12  H14 UNL     1      24.268   4.568  53.922  1.00  0.00     0.162 HD
ENDROOT
BRANCH   7  13
HETATM   13  N3  UNL     1      26.632   0.988  53.816  1.00  0.00    -0.333 N 
HETATM   14  C7  UNL     1      26.064   1.177  55.141  1.00  0.00     0.158 C 
BRANCH  13  15
HETATM   15  C8  UNL     1      27.308  -0.178  53.470  1.00  0.00     0.035 A 
HETATM   16  C9  UNL     1      28.654  -0.480  53.691  1.00  0.00     0.029 A 
HETATM   17  C10 UNL     1      29.209  -1.684  53.305  1.00  0.00     0.002 A 
HETATM   18  C11 UNL     1      28.437  -2.645  52.675  1.00  0.00     0.000 A 
HETATM   19  C12 UNL     1      27.092  -2.431  52.414  1.00  0.00     0.002 A 
HETATM   20  C13 UNL     1      26.611  -1.207  52.830  1.00  0.00     0.029 A 
ENDBRANCH  13  15
ENDBRANCH   7  13
BRANCH   1  21
HETATM   21  O1  UNL     1      22.401  -0.042  52.387  1.00  0.00    -0.335 OA
HETATM   22  C1  UNL     1      21.351   0.269  51.506  1.00  0.00     0.212 C 
ENDBRANCH   1  21
TORSDOF 3
ENDMDL
MODEL 5
REMARK VINA RESULT:      -6.3      2.562      4.262
REMARK  3 active torsions:
REMARK  status: ('A' for Active; 'I' for Inactive)
REMARK    1  A    between atoms: O1_2  and  C2_3 
REMARK    2  A    between atoms: C6_9  and  N3_10 
REMARK    3  A    between atoms: N3_10  and  C8_12 
ROOT
HETATM    1  C2  UNL     1      23.481  -0.169  52.885  1.00  0.00     0.188 C 
HETATM    2  C3  UNL     1      24.088  -0.837  54.015  1.00  0.00     0.093 C 
HETATM    3  C4  UNL     1      25.639  -0.910  53.982  1.00  0.00     0.058 C 
HETATM    4  N1  UNL     1      26.132  -0.440  55.157  1.00  0.00    -0.245 NA
HETATM    5  C5  UNL     1      26.831   0.954  55.122  1.00  0.00     0.235 C 
HETATM    6  N2  UNL     1      27.133   1.886  54.086  1.00  0.00    -0.220 NA
HETATM    7  C6  UNL     1      26.062   1.959  53.000  1.00  0.00     0.183 C 
HETATM    8  C14 UNL     1      25.675   0.832  52.270  1.00  0.00     0.193 C 
HETATM    9  N4  UNL     1      26.450  -0.325  51.754  1.00  0.00    -0.362 N 
HETATM   10  C15 UNL     1      26.547  -1.365  52.825  1.00  0.00     0.181 C 
HETATM   11  O2  UNL     1      24.250   0.738  51.947  1.00  0.00    -0.267 OA
HETATM   12  H14 UNL     1      26.982  -0.738  50.916  1.00  0.00     0.162 HD
ENDROOT
BRANCH   7  13
HETATM   13  N3  UNL     1      25.141   2.846  52.395  1.00  0.00    -0.333 N 
HETATM   14  C7  UNL     1      23.840   3.015  53.022  1.00  0.00     0.158 C 
BRANCH  13  15
HETATM   15  C8  UNL     1      25.479   3.514  51.222  1.00  0.00     0.035 A 
HETATM   16  C9  UNL     1      26.604   3.309  50.419  1.00  0.00     0.029 A 
HETATM   17  C10 UNL     1      26.825   4.037  49.267  1.00  0.00     0.002 A 
HETATM   18  C11 UNL     1      25.925   5.009  48.865  1.00  0.00     0.000 A 
HETATM   19  C12 UNL     1      24.781   5.280  49.601  1.00  0.00     0.002 A 
HETATM   20  C13 UNL     1      24.631   4.513  50.736  1.00  0.00     0.029 A 
ENDBRANCH  13  15
ENDBRANCH   7  13
BRANCH   1  21
HETATM   21  O1  UNL     1      22.243  -0.641  53.069  1.00  0.00    -0.335 OA
HETATM   22  C1  UNL     1      21.738  -0.782  54.373  1.00  0.00     0.212 C 
ENDBRANCH   1  21
TORSDOF 3
ENDMDL
MODEL 6
REMARK VINA RESULT:      -6.3      2.384      5.367
REMARK  3 active torsions:
REMARK  status: ('A' for Active; 'I' for Inactive)
REMARK    1  A    between atoms: O1_2  and  C2_3 
REMARK    2  A    between atoms: C6_9  and  N3_10 
REMARK    3  A    between atoms: N3_10  and  C8_12 
ROOT
HETATM    1  C2  UNL     1      21.636   0.864  52.140  1.00  0.00     0.188 C 
HETATM    2  C3  UNL     1      21.426   0.236  50.855  1.00  0.00     0.093 C 
HETATM    3  C4  UNL     1      20.871   1.171  49.746  1.00  0.00     0.058 C 
HETATM    4  N1  UNL     1      21.660   1.072  48.645  1.00  0.00    -0.245 NA
HETATM    5  C5  UNL     1      22.581   2.288  48.324  1.00  0.00     0.235 C 
HETATM    6  N2  UNL     1      22.773   3.570  48.918  1.00  0.00    -0.220 NA
HETATM    7  C6  UNL     1      22.655   3.562  50.440  1.00  0.00     0.183 C 
HETATM    8  C14 UNL     1      21.499   3.115  51.087  1.00  0.00     0.193 C 
HETATM    9  N4  UNL     1      20.060   3.248  50.742  1.00  0.00    -0.362 N 
HETATM   10  C15 UNL     1      19.672   2.133  49.824  1.00  0.00     0.181 C 
HETATM   11  O2  UNL     1      21.710   2.365  52.327  1.00  0.00    -0.267 OA
HETATM   12  H14 UNL     1      19.162   3.822  50.879  1.00  0.00     0.162 HD
ENDROOT
BRANCH   7  13
HETATM   13  N3  UNL     1      23.389   3.821  51.621  1.00  0.00    -0.333 N 
HETATM   14  C7  UNL     1      22.935   4.897  52.487  1.00  0.00     0.158 C 
BRANCH  13  15
HETATM   15  C8  UNL     1      24.522   3.071  51.920  1.00  0.00     0.035 A 
HETATM   16  C9  UNL     1      25.431   2.507  51.023  1.00  0.00     0.029 A 
HETATM   17  C10 UNL     1      26.529   1.785  51.447  1.00  0.00     0.002 A 
HETATM   18  C11 UNL     1      26.766   1.594  52.798  1.00  0.00     0.000 A 
HETATM   19  C12 UNL     1      25.916   2.117  53.760  1.00  0.00     0.002 A 
HETATM   20  C13 UNL     1      24.845   2.825  53.258  1.00  0.00     0.029 A 
ENDBRANCH  13  15
ENDBRANCH   7  13
BRANCH   1  21
HETATM   21  O1  UNL     1      21.714  -0.262  52.857  1.00  0.00    -0.335 OA
HETATM   22  C1  UNL     1      22.916  -0.594  53.505  1.00  0.00     0.212 C 
ENDBRANCH   1  21
TORSDOF 3
ENDMDL
MODEL 7
REMARK VINA RESULT:      -6.3      2.299      4.656
REMARK  3 active torsions:
REMARK  status: ('A' for Active; 'I' for Inactive)
REMARK    1  A    between atoms: O1_2  and  C2_3 
REMARK    2  A    between atoms: C6_9  and  N3_10 
REMARK    3  A    between atoms: N3_10  and  C8_12 
ROOT
HETATM    1  C2  UNL     1      25.015   3.546  49.437  1.00  0.00     0.188 C 
HETATM    2  C3  UNL     1      25.074   4.798  50.160  1.00  0.00     0.093 C 
HETATM    3  C4  UNL     1      23.784   5.659  50.094  1.00  0.00     0.058 C 
HETATM    4  N1  UNL     1      23.410   5.998  51.355  1.00  0.00    -0.245 NA
HETATM    5  C5  UNL     1      22.147   5.289  51.932  1.00  0.00     0.235 C 
HETATM    6  N2  UNL     1      21.210   4.350  51.408  1.00  0.00    -0.220 NA
HETATM    7  C6  UNL     1      21.837   3.325  50.466  1.00  0.00     0.183 C 
HETATM    8  C14 UNL     1      22.534   3.708  49.317  1.00  0.00     0.193 C 
HETATM    9  N4  UNL     1      22.306   4.809  48.345  1.00  0.00    -0.362 N 
HETATM   10  C15 UNL     1      22.963   6.053  48.852  1.00  0.00     0.181 C 
HETATM   11  O2  UNL     1      23.716   2.909  48.989  1.00  0.00    -0.267 OA
HETATM   12  H14 UNL     1      21.858   5.091  47.410  1.00  0.00     0.162 HD
ENDROOT
BRANCH   7  13
HETATM   13  N3  UNL     1      22.060   1.936  50.312  1.00  0.00    -0.333 N 
HETATM   14  C7  UNL     1      21.711   1.323  49.040  1.00  0.00     0.158 C 
BRANCH  13  15
HETATM   15  C8  UNL     1      22.582   1.190  51.364  1.00  0.00     0.035 A 
HETATM   16  C9  UNL     1      23.824   1.346  51.985  1.00  0.00     0.029 A 
HETATM   17  C10 UNL     1      24.226   0.542  53.033  1.00  0.00     0.002 A 
HETATM   18  C11 UNL     1      23.398  -0.462  53.507  1.00  0.00     0.000 A 
HETATM   19  C12 UNL     1      22.149  -0.689  52.951  1.00  0.00     0.002 A 
HETATM   20  C13 UNL     1      21.819   0.155  51.911  1.00  0.00     0.029 A 
ENDBRANCH  13  15
ENDBRANCH   7  13
BRANCH   1  21
HETATM   21  O1  UNL     1      26.332   3.323  49.399  1.00  0.00    -0.335 OA
HETATM   22  C1  UNL     1      27.206   4.365  49.043  1.00  0.00     0.212 C 
ENDBRANCH   1  21
TORSDOF 3
ENDMDL
MODEL 8
REMARK VINA RESULT:      -6.2      2.215      5.080
REMARK  3 active torsions:
REMARK  status: ('A' for Active; 'I' for Inactive)
REMARK    1  A    between atoms: O1_2  and  C2_3 
REMARK    2  A    between atoms: C6_9  and  N3_10 
REMARK    3  A    between atoms: N3_10  and  C8_12 
ROOT
HETATM    1  C2  UNL     1      22.327   2.659  49.189  1.00  0.00     0.188 C 
HETATM    2  C3  UNL     1      22.743   4.010  48.885  1.00  0.00     0.093 C 
HETATM    3  C4  UNL     1      22.242   5.093  49.878  1.00  0.00     0.058 C 
HETATM    4  N1  UNL     1      23.299   5.834  50.300  1.00  0.00    -0.245 NA
HETATM    5  C5  UNL     1      23.774   5.615  51.769  1.00  0.00     0.235 C 
HETATM    6  N2  UNL     1      23.311   4.809  52.851  1.00  0.00    -0.220 NA
HETATM    7  C6  UNL     1      22.763   3.454  52.411  1.00  0.00     0.183 C 
HETATM    8  C14 UNL     1      21.708   3.346  51.500  1.00  0.00     0.193 C 
HETATM    9  N4  UNL     1      20.487   4.167  51.301  1.00  0.00    -0.362 N 
HETATM   10  C15 UNL     1      20.811   5.317  50.402  1.00  0.00     0.181 C 
HETATM   11  O2  UNL     1      21.800   2.239  50.546  1.00  0.00    -0.267 OA
HETATM   12  H14 UNL     1      19.444   4.283  51.537  1.00  0.00     0.162 HD
ENDROOT
BRANCH   7  13
HETATM   13  N3  UNL     1      22.974   2.062  52.552  1.00  0.00    -0.333 N 
HETATM   14  C7  UNL     1      21.844   1.235  52.945  1.00  0.00     0.158 C 
BRANCH  13  15
HETATM   15  C8  UNL     1      24.237   1.520  52.337  1.00  0.00     0.035 A 
HETATM   16  C9  UNL     1      25.272   2.054  51.566  1.00  0.00     0.029 A 
HETATM   17  C10 UNL     1      26.492   1.420  51.436  1.00  0.00     0.002 A 
HETATM   18  C11 UNL     1      26.730   0.215  52.075  1.00  0.00     0.000 A 
HETATM   19  C12 UNL     1      25.759  -0.388  52.860  1.00  0.00     0.002 A 
HETATM   20  C13 UNL     1      24.571   0.305  52.941  1.00  0.00     0.029 A 
ENDBRANCH  13  15
ENDBRANCH   7  13
BRANCH   1  21
HETATM   21  O1  UNL     1      22.589   2.138  47.986  1.00  0.00    -0.335 OA
HETATM   22  C1  UNL     1      22.181   2.820  46.827  1.00  0.00     0.212 C 
ENDBRANCH   1  21
TORSDOF 3
ENDMDL
MODEL 9
REMARK VINA RESULT:      -6.0      2.332      4.894
REMARK  3 active torsions:
REMARK  status: ('A' for Active; 'I' for Inactive)
REMARK    1  A    between atoms: O1_2  and  C2_3 
REMARK    2  A    between atoms: C6_9  and  N3_10 
REMARK    3  A    between atoms: N3_10  and  C8_12 
ROOT
HETATM    1  C2  UNL     1      20.648   3.212  51.805  1.00  0.00     0.188 C 
HETATM    2  C3  UNL     1      20.351   1.923  52.390  1.00  0.00     0.093 C 
HETATM    3  C4  UNL     1      21.171   0.735  51.817  1.00  0.00     0.058 C 
HETATM    4  N1  UNL     1      21.740   0.051  52.843  1.00  0.00    -0.245 NA
HETATM    5  C5  UNL     1      23.281   0.200  53.022  1.00  0.00     0.235 C 
HETATM    6  N2  UNL     1      24.302   0.887  52.301  1.00  0.00    -0.220 NA
HETATM    7  C6  UNL     1      23.845   2.223  51.721  1.00  0.00     0.183 C 
HETATM    8  C14 UNL     1      22.761   2.314  50.844  1.00  0.00     0.193 C 
HETATM    9  N4  UNL     1      22.292   1.416  49.757  1.00  0.00    -0.362 N 
HETATM   10  C15 UNL     1      21.406   0.363  50.341  1.00  0.00     0.181 C 
HETATM   11  O2  UNL     1      21.904   3.490  51.006  1.00  0.00    -0.267 OA
HETATM   12  H14 UNL     1      22.323   1.202  48.704  1.00  0.00     0.162 HD
ENDROOT
BRANCH   7  13
HETATM   13  N3  UNL     1      24.101   3.613  51.777  1.00  0.00    -0.333 N 
HETATM   14  C7  UNL     1      23.519   4.373  52.871  1.00  0.00     0.158 C 
BRANCH  13  15
HETATM   15  C8  UNL     1      24.874   4.223  50.794  1.00  0.00     0.035 A 
HETATM   16  C9  UNL     1      24.682   5.480  50.216  1.00  0.00     0.029 A 
HETATM   17  C10 UNL     1      25.530   5.980  49.248  1.00  0.00     0.002 A 
HETATM   18  C11 UNL     1      26.614   5.239  48.811  1.00  0.00     0.000 A 
HETATM   19  C12 UNL     1      26.882   3.980  49.328  1.00  0.00     0.002 A 
HETATM   20  C13 UNL     1      25.992   3.551  50.290  1.00  0.00     0.029 A 
ENDBRANCH  13  15
ENDBRANCH   7  13
BRANCH   1  21
HETATM   21  O1  UNL     1      19.546   3.837  52.232  1.00  0.00    -0.335 OA
HETATM   22  C1  UNL     1      18.389   3.832  51.435  1.00  0.00     0.212 C 
ENDBRANCH   1  21
TORSDOF 3
ENDMDL
