MODEL 1
REMARK VINA RESULT:      -8.8      0.000      0.000
REMARK  6 active torsions:
REMARK  status: ('A' for Active; 'I' for Inactive)
REMARK    1  A    between atoms: N1_2  and  C2_3 
REMARK    2  A    between atoms: C2_3  and  N2_4 
REMARK    3  A    between atoms: N2_4  and  C3_5 
REMARK    4  A    between atoms: C3_5  and  C4_6 
REMARK    5  A    between atoms: C12_15  and  C13_16 
REMARK    6  A    between atoms: C16_19  and  O1_20 
ROOT
HETATM    1  C2  UNL     1      23.756   0.220  53.290  1.00  0.00     0.083 C 
HETATM    2  C10 UNL     1      22.585  -0.309  53.602  1.00  0.00     0.049 A 
HETATM    3  C11 UNL     1      21.341  -0.181  52.853  1.00  0.00     0.049 A 
HETATM    4  C12 UNL     1      20.389  -0.852  53.485  1.00  0.00     0.045 A 
HETATM    5  N3  UNL     1      20.920  -1.455  54.662  1.00  0.00    -0.340 N 
HETATM    6  C19 UNL     1      22.311  -1.133  54.770  1.00  0.00     0.134 A 
HETATM    7  N4  UNL     1      23.124  -1.500  55.704  1.00  0.00    -0.283 NA
HETATM    8  H16 UNL     1      20.367  -2.036  55.330  1.00  0.00     0.167 HD
HETATM    9  H17 UNL     1      22.795  -2.093  56.488  1.00  0.00     0.188 HD
ENDROOT
BRANCH   1  10
HETATM   10  N1  UNL     1      23.888   1.014  52.106  1.00  0.00    -0.295 NA
HETATM   11  C1  UNL     1      24.037   2.272  52.138  1.00  0.00     0.263 C 
ENDBRANCH   1  10
BRANCH   1  12
HETATM   12  N2  UNL     1      24.885   0.007  54.122  1.00  0.00    -0.376 N 
HETATM   13  H3  UNL     1      24.462  -0.828  54.581  1.00  0.00     0.161 HD
BRANCH  12  14
HETATM   14  C3  UNL     1      26.200   0.479  54.485  1.00  0.00     0.162 C 
BRANCH  14  15
HETATM   15  C4  UNL     1      27.229  -0.466  53.946  1.00  0.00    -0.002 A 
HETATM   16  C5  UNL     1      26.996  -1.559  53.113  1.00  0.00     0.012 A 
HETATM   17  C6  UNL     1      28.083  -2.320  52.716  1.00  0.00     0.001 A 
HETATM   18  C7  UNL     1      29.373  -2.052  53.100  1.00  0.00     0.003 A 
HETATM   19  C8  UNL     1      29.602  -0.969  53.925  1.00  0.00     0.043 A 
HETATM   20  C9  UNL     1      28.535  -0.175  54.349  1.00  0.00     0.124 A 
HETATM   21  F1  UNL     1      28.904   0.849  55.152  1.00  0.00    -0.205 F 
ENDBRANCH  14  15
ENDBRANCH  12  14
ENDBRANCH   1  12
BRANCH   4  22
HETATM   22  C13 UNL     1      19.013  -0.935  53.010  1.00  0.00    -0.009 A 
HETATM   23  C14 UNL     1      18.584  -0.054  52.036  1.00  0.00     0.016 A 
HETATM   24  C15 UNL     1      17.285  -0.072  51.534  1.00  0.00     0.037 A 
HETATM   25  C16 UNL     1      16.382  -0.987  52.006  1.00  0.00     0.065 A 
HETATM   26  C17 UNL     1      16.836  -1.857  52.979  1.00  0.00     0.037 A 
HETATM   27  C18 UNL     1      18.123  -1.867  53.502  1.00  0.00     0.016 A 
BRANCH  25  28
HETATM   28  O1  UNL     1      15.080  -1.033  51.527  1.00  0.00    -0.361 OA
HETATM   29  H13 UNL     1      14.286  -1.059  52.125  1.00  0.00     0.217 HD
ENDBRANCH  25  28
ENDBRANCH   4  22
TORSDOF 6
ENDMDL
MODEL 2
REMARK VINA RESULT:      -8.4      4.258      8.867
REMARK  6 active torsions:
REMARK  status: ('A' for Active; 'I' for Inactive)
REMARK    1  A    between atoms: N1_2  and  C2_3 
REMARK    2  A    between atoms: C2_3  and  N2_4 
REMARK    3  A    between atoms: N2_4  and  C3_5 
REMARK    4  A    between atoms: C3_5  and  C4_6 
REMARK    5  A    between atoms: C12_15  and  C13_16 
REMARK    6  A    between atoms: C16_19  and  O1_20 
ROOT
HETATM    1  C2  UNL     1      21.113   0.259  52.467  1.00  0.00     0.083 C 
HETATM    2  C10 UNL     1      22.145  -0.169  53.173  1.00  0.00     0.049 A 
HETATM    3  C11 UNL     1      23.553   0.109  52.919  1.00  0.00     0.049 A 
HETATM    4  C12 UNL     1      24.284  -0.496  53.845  1.00  0.00     0.045 A 
HETATM    5  N3  UNL     1      23.435  -1.196  54.752  1.00  0.00    -0.340 N 
HETATM    6  C19 UNL     1      22.071  -1.011  54.359  1.00  0.00     0.134 A 
HETATM    7  N4  UNL     1      21.022  -1.493  54.938  1.00  0.00    -0.283 NA
HETATM    8  H16 UNL     1      23.773  -1.750  55.569  1.00  0.00     0.167 HD
HETATM    9  H17 UNL     1      21.112  -2.085  55.784  1.00  0.00     0.188 HD
ENDROOT
BRANCH   1  10
HETATM   10  N1  UNL     1      21.328   1.086  51.318  1.00  0.00    -0.295 NA
HETATM   11  C1  UNL     1      21.197   0.657  50.132  1.00  0.00     0.263 C 
ENDBRANCH   1  10
BRANCH   1  12
HETATM   12  N2  UNL     1      19.790  -0.096  52.839  1.00  0.00    -0.376 N 
HETATM   13  H3  UNL     1      20.111  -0.674  53.645  1.00  0.00     0.161 HD
BRANCH  12  14
HETATM   14  C3  UNL     1      18.388   0.049  52.528  1.00  0.00     0.162 C 
BRANCH  14  15
HETATM   15  C4  UNL     1      17.690  -1.250  52.783  1.00  0.00    -0.002 A 
HETATM   16  C5  UNL     1      18.184  -2.327  53.517  1.00  0.00     0.012 A 
HETATM   17  C6  UNL     1      17.386  -3.452  53.644  1.00  0.00     0.001 A 
HETATM   18  C7  UNL     1      16.136  -3.558  53.083  1.00  0.00     0.003 A 
HETATM   19  C8  UNL     1      15.650  -2.491  52.356  1.00  0.00     0.043 A 
HETATM   20  C9  UNL     1      16.421  -1.337  52.204  1.00  0.00     0.124 A 
HETATM   21  F1  UNL     1      15.821  -0.373  51.469  1.00  0.00    -0.205 F 
ENDBRANCH  14  15
ENDBRANCH  12  14
ENDBRANCH   1  12
BRANCH   4  22
HETATM   22  C13 UNL     1      25.739  -0.428  53.892  1.00  0.00    -0.009 A 
HETATM   23  C14 UNL     1      26.473  -1.081  52.920  1.00  0.00     0.016 A 
HETATM   24  C15 UNL     1      27.866  -1.063  52.900  1.00  0.00     0.037 A 
HETATM   25  C16 UNL     1      28.556  -0.381  53.868  1.00  0.00     0.065 A 
HETATM   26  C17 UNL     1      27.797   0.264  54.827  1.00  0.00     0.037 A 
HETATM   27  C18 UNL     1      26.410   0.266  54.878  1.00  0.00     0.016 A 
BRANCH  25  28
HETATM   28  O1  UNL     1      29.942  -0.342  53.876  1.00  0.00    -0.361 OA
HETATM   29  H13 UNL     1      30.489  -0.376  53.046  1.00  0.00     0.217 HD
ENDBRANCH  25  28
ENDBRANCH   4  22
TORSDOF 6
ENDMDL
MODEL 3
REMARK VINA RESULT:      -8.3      1.084      1.493
REMARK  6 active torsions:
REMARK  status: ('A' for Active; 'I' for Inactive)
REMARK    1  A    between atoms: N1_2  and  C2_3 
REMARK    2  A    between atoms: C2_3  and  N2_4 
REMARK    3  A    between atoms: N2_4  and  C3_5 
REMARK    4  A    between atoms: C3_5  and  C4_6 
REMARK    5  A    between atoms: C12_15  and  C13_16 
REMARK    6  A    between atoms: C16_19  and  O1_20 
ROOT
HETATM    1  C2  UNL     1      23.990   1.422  52.929  1.00  0.00     0.083 C 
HETATM    2  C10 UNL     1      23.068   0.543  53.281  1.00  0.00     0.049 A 
HETATM    3  C11 UNL     1      21.679   0.509  52.840  1.00  0.00     0.049 A 
HETATM    4  C12 UNL     1      21.072  -0.521  53.412  1.00  0.00     0.045 A 
HETATM    5  N3  UNL     1      21.990  -1.222  54.247  1.00  0.00    -0.340 N 
HETATM    6  C19 UNL     1      23.267  -0.577  54.189  1.00  0.00     0.134 A 
HETATM    7  N4  UNL     1      24.344  -0.925  54.813  1.00  0.00    -0.283 NA
HETATM    8  H16 UNL     1      21.752  -2.071  54.806  1.00  0.00     0.167 HD
HETATM    9  H17 UNL     1      24.348  -1.753  55.437  1.00  0.00     0.188 HD
ENDROOT
BRANCH   1  10
HETATM   10  N1  UNL     1      23.659   2.480  52.022  1.00  0.00    -0.295 NA
HETATM   11  C1  UNL     1      24.039   2.490  50.813  1.00  0.00     0.263 C 
ENDBRANCH   1  10
BRANCH   1  12
HETATM   12  N2  UNL     1      25.309   1.326  53.444  1.00  0.00    -0.376 N 
HETATM   13  H3  UNL     1      25.020   0.702  54.227  1.00  0.00     0.161 HD
BRANCH  12  14
HETATM   14  C3  UNL     1      26.683   1.735  53.276  1.00  0.00     0.162 C 
BRANCH  14  15
HETATM   15  C4  UNL     1      27.560   0.521  53.260  1.00  0.00    -0.002 A 
HETATM   16  C5  UNL     1      27.191  -0.763  52.860  1.00  0.00     0.012 A 
HETATM   17  C6  UNL     1      28.147  -1.763  52.915  1.00  0.00     0.001 A 
HETATM   18  C7  UNL     1      29.435  -1.554  53.343  1.00  0.00     0.003 A 
HETATM   19  C8  UNL     1      29.798  -0.282  53.738  1.00  0.00     0.043 A 
HETATM   20  C9  UNL     1      28.865   0.756  53.699  1.00  0.00     0.124 A 
HETATM   21  F1  UNL     1      29.356   1.946  54.114  1.00  0.00    -0.205 F 
ENDBRANCH  14  15
ENDBRANCH  12  14
ENDBRANCH   1  12
BRANCH   4  22
HETATM   22  C13 UNL     1      19.670  -0.852  53.191  1.00  0.00    -0.009 A 
HETATM   23  C14 UNL     1      19.127  -1.944  53.840  1.00  0.00     0.016 A 
HETATM   24  C15 UNL     1      17.797  -2.323  53.677  1.00  0.00     0.037 A 
HETATM   25  C16 UNL     1      16.976  -1.603  52.850  1.00  0.00     0.065 A 
HETATM   26  C17 UNL     1      17.543  -0.515  52.214  1.00  0.00     0.037 A 
HETATM   27  C18 UNL     1      18.864  -0.109  52.352  1.00  0.00     0.016 A 
BRANCH  25  28
HETATM   28  O1  UNL     1      15.646  -1.952  52.667  1.00  0.00    -0.361 OA
HETATM   29  H13 UNL     1      15.203  -2.679  53.181  1.00  0.00     0.217 HD
ENDBRANCH  25  28
ENDBRANCH   4  22
TORSDOF 6
ENDMDL
MODEL 4
REMARK VINA RESULT:      -8.3      1.471      2.449
REMARK  6 active torsions:
REMARK  status: ('A' for Active; 'I' for Inactive)
REMARK    1  A    between atoms: N1_2  and  C2_3 
REMARK    2  A    between atoms: C2_3  and  N2_4 
REMARK    3  A    between atoms: N2_4  and  C3_5 
REMARK    4  A    between atoms: C3_5  and  C4_6 
REMARK    5  A    between atoms: C12_15  and  C13_16 
REMARK    6  A    between atoms: C16_19  and  O1_20 
ROOT
HETATM    1  C2  UNL     1      23.950   0.330  53.366  1.00  0.00     0.083 C 
HETATM    2  C10 UNL     1      22.715   0.567  52.961  1.00  0.00     0.049 A 
HETATM    3  C11 UNL     1      21.558  -0.304  53.127  1.00  0.00     0.049 A 
HETATM    4  C12 UNL     1      20.499   0.281  52.588  1.00  0.00     0.045 A 
HETATM    5  N3  UNL     1      20.868   1.545  52.042  1.00  0.00    -0.340 N 
HETATM    6  C19 UNL     1      22.266   1.762  52.260  1.00  0.00     0.134 A 
HETATM    7  N4  UNL     1      22.959   2.793  51.905  1.00  0.00    -0.283 NA
HETATM    8  H16 UNL     1      20.209   2.197  51.562  1.00  0.00     0.167 HD
HETATM    9  H17 UNL     1      22.510   3.583  51.405  1.00  0.00     0.188 HD
ENDROOT
BRANCH   1  10
HETATM   10  N1  UNL     1      24.256  -0.891  54.048  1.00  0.00    -0.295 NA
HETATM   11  C1  UNL     1      24.785  -0.919  55.200  1.00  0.00     0.263 C 
ENDBRANCH   1  10
BRANCH   1  12
HETATM   12  N2  UNL     1      24.979   1.279  53.130  1.00  0.00    -0.376 N 
HETATM   13  H3  UNL     1      24.619   1.935  53.856  1.00  0.00     0.161 HD
BRANCH  12  14
HETATM   14  C3  UNL     1      26.155   1.589  52.353  1.00  0.00     0.162 C 
BRANCH  14  15
HETATM   15  C4  UNL     1      27.296   0.745  52.829  1.00  0.00    -0.002 A 
HETATM   16  C5  UNL     1      27.431  -0.634  52.671  1.00  0.00     0.012 A 
HETATM   17  C6  UNL     1      28.565  -1.242  53.182  1.00  0.00     0.001 A 
HETATM   18  C7  UNL     1      29.560  -0.557  53.836  1.00  0.00     0.003 A 
HETATM   19  C8  UNL     1      29.424   0.808  53.992  1.00  0.00     0.043 A 
HETATM   20  C9  UNL     1      28.296   1.461  53.491  1.00  0.00     0.124 A 
HETATM   21  F1  UNL     1      28.295   2.795  53.715  1.00  0.00    -0.205 F 
ENDBRANCH  14  15
ENDBRANCH  12  14
ENDBRANCH   1  12
BRANCH   4  22
HETATM   22  C13 UNL     1      19.168  -0.316  52.576  1.00  0.00    -0.009 A 
HETATM   23  C14 UNL     1      18.890  -1.353  53.447  1.00  0.00     0.016 A 
HETATM   24  C15 UNL     1      17.644  -1.973  53.492  1.00  0.00     0.037 A 
HETATM   25  C16 UNL     1      16.642  -1.559  52.655  1.00  0.00     0.065 A 
HETATM   26  C17 UNL     1      16.946  -0.520  51.796  1.00  0.00     0.037 A 
HETATM   27  C18 UNL     1      18.176   0.120  51.723  1.00  0.00     0.016 A 
BRANCH  25  28
HETATM   28  O1  UNL     1      15.389  -2.154  52.676  1.00  0.00    -0.361 OA
HETATM   29  H13 UNL     1      15.182  -2.957  53.225  1.00  0.00     0.217 HD
ENDBRANCH  25  28
ENDBRANCH   4  22
TORSDOF 6
ENDMDL
MODEL 5
REMARK VINA RESULT:      -8.2      4.659      7.294
REMARK  6 active torsions:
REMARK  status: ('A' for Active; 'I' for Inactive)
REMARK    1  A    between atoms: N1_2  and  C2_3 
REMARK    2  A    between atoms: C2_3  and  N2_4 
REMARK    3  A    between atoms: N2_4  and  C3_5 
REMARK    4  A    between atoms: C3_5  and  C4_6 
REMARK    5  A    between atoms: C12_15  and  C13_16 
REMARK    6  A    between atoms: C16_19  and  O1_20 
ROOT
HETATM    1  C2  UNL     1      24.568   1.627  51.559  1.00  0.00     0.083 C 
HETATM    2  C10 UNL     1      25.039   2.696  50.941  1.00  0.00     0.049 A 
HETATM    3  C11 UNL     1      24.301   3.593  50.061  1.00  0.00     0.049 A 
HETATM    4  C12 UNL     1      25.118   4.546  49.636  1.00  0.00     0.045 A 
HETATM    5  N3  UNL     1      26.417   4.354  50.189  1.00  0.00    -0.340 N 
HETATM    6  C19 UNL     1      26.406   3.191  51.024  1.00  0.00     0.134 A 
HETATM    7  N4  UNL     1      27.398   2.703  51.692  1.00  0.00    -0.283 NA
HETATM    8  H16 UNL     1      27.236   4.974  50.005  1.00  0.00     0.167 HD
HETATM    9  H17 UNL     1      28.329   3.158  51.662  1.00  0.00     0.188 HD
ENDROOT
BRANCH   1  10
HETATM   10  N1  UNL     1      23.197   1.251  51.391  1.00  0.00    -0.295 NA
HETATM   11  C1  UNL     1      22.331   1.392  52.306  1.00  0.00     0.263 C 
ENDBRANCH   1  10
BRANCH   1  12
HETATM   12  N2  UNL     1      25.413   0.847  52.390  1.00  0.00    -0.376 N 
HETATM   13  H3  UNL     1      26.175   1.558  52.381  1.00  0.00     0.161 HD
BRANCH  12  14
HETATM   14  C3  UNL     1      25.549  -0.392  53.119  1.00  0.00     0.162 C 
BRANCH  14  15
HETATM   15  C4  UNL     1      27.000  -0.659  53.372  1.00  0.00    -0.002 A 
HETATM   16  C5  UNL     1      27.869   0.128  54.126  1.00  0.00     0.012 A 
HETATM   17  C6  UNL     1      29.185  -0.285  54.247  1.00  0.00     0.001 A 
HETATM   18  C7  UNL     1      29.675  -1.427  53.662  1.00  0.00     0.003 A 
HETATM   19  C8  UNL     1      28.813  -2.204  52.916  1.00  0.00     0.043 A 
HETATM   20  C9  UNL     1      27.477  -1.825  52.768  1.00  0.00     0.124 A 
HETATM   21  F1  UNL     1      26.749  -2.677  52.012  1.00  0.00    -0.205 F 
ENDBRANCH  14  15
ENDBRANCH  12  14
ENDBRANCH   1  12
BRANCH   4  22
HETATM   22  C13 UNL     1      24.706   5.616  48.735  1.00  0.00    -0.009 A 
HETATM   23  C14 UNL     1      25.615   6.602  48.403  1.00  0.00     0.016 A 
HETATM   24  C15 UNL     1      25.294   7.656  47.550  1.00  0.00     0.037 A 
HETATM   25  C16 UNL     1      24.039   7.739  47.008  1.00  0.00     0.065 A 
HETATM   26  C17 UNL     1      23.149   6.740  47.355  1.00  0.00     0.037 A 
HETATM   27  C18 UNL     1      23.434   5.677  48.202  1.00  0.00     0.016 A 
BRANCH  25  28
HETATM   28  O1  UNL     1      23.687   8.774  46.154  1.00  0.00    -0.361 OA
HETATM   29  H13 UNL     1      24.069   9.689  46.228  1.00  0.00     0.217 HD
ENDBRANCH  25  28
ENDBRANCH   4  22
TORSDOF 6
ENDMDL
MODEL 6
REMARK VINA RESULT:      -8.0      5.466      8.980
REMARK  6 active torsions:
REMARK  status: ('A' for Active; 'I' for Inactive)
REMARK    1  A    between atoms: N1_2  and  C2_3 
REMARK    2  A    between atoms: C2_3  and  N2_4 
REMARK    3  A    between atoms: N2_4  and  C3_5 
REMARK    4  A    between atoms: C3_5  and  C4_6 
REMARK    5  A    between atoms: C12_15  and  C13_16 
REMARK    6  A    between atoms: C16_19  and  O1_20 
ROOT
HETATM    1  C2  UNL     1      22.595   2.279  49.906  1.00  0.00     0.083 C 
HETATM    2  C10 UNL     1      23.575   3.136  50.135  1.00  0.00     0.049 A 
HETATM    3  C11 UNL     1      24.464   3.731  49.145  1.00  0.00     0.049 A 
HETATM    4  C12 UNL     1      25.315   4.537  49.761  1.00  0.00     0.045 A 
HETATM    5  N3  UNL     1      25.058   4.534  51.163  1.00  0.00    -0.340 N 
HETATM    6  C19 UNL     1      23.960   3.657  51.439  1.00  0.00     0.134 A 
HETATM    7  N4  UNL     1      23.442   3.397  52.593  1.00  0.00    -0.283 NA
HETATM    8  H16 UNL     1      25.595   5.090  51.864  1.00  0.00     0.167 HD
HETATM    9  H17 UNL     1      23.817   3.841  53.451  1.00  0.00     0.188 HD
ENDROOT
BRANCH   1  10
HETATM   10  N1  UNL     1      22.321   1.847  48.569  1.00  0.00    -0.295 NA
HETATM   11  C1  UNL     1      21.253   2.149  47.957  1.00  0.00     0.263 C 
ENDBRANCH   1  10
BRANCH   1  12
HETATM   12  N2  UNL     1      21.810   1.783  50.979  1.00  0.00    -0.376 N 
HETATM   13  H3  UNL     1      21.964   2.633  51.562  1.00  0.00     0.161 HD
BRANCH  12  14
HETATM   14  C3  UNL     1      21.006   0.682  51.454  1.00  0.00     0.162 C 
BRANCH  14  15
HETATM   15  C4  UNL     1      21.687   0.044  52.625  1.00  0.00    -0.002 A 
HETATM   16  C5  UNL     1      23.060   0.004  52.866  1.00  0.00     0.012 A 
HETATM   17  C6  UNL     1      23.503  -0.636  54.011  1.00  0.00     0.001 A 
HETATM   18  C7  UNL     1      22.661  -1.231  54.918  1.00  0.00     0.003 A 
HETATM   19  C8  UNL     1      21.303  -1.191  54.677  1.00  0.00     0.043 A 
HETATM   20  C9  UNL     1      20.812  -0.556  53.535  1.00  0.00     0.124 A 
HETATM   21  F1  UNL     1      19.465  -0.593  53.426  1.00  0.00    -0.205 F 
ENDBRANCH  14  15
ENDBRANCH  12  14
ENDBRANCH   1  12
BRANCH   4  22
HETATM   22  C13 UNL     1      26.349   5.298  49.069  1.00  0.00    -0.009 A 
HETATM   23  C14 UNL     1      27.588   4.720  48.868  1.00  0.00     0.016 A 
HETATM   24  C15 UNL     1      28.624   5.386  48.217  1.00  0.00     0.037 A 
HETATM   25  C16 UNL     1      28.432   6.658  47.749  1.00  0.00     0.065 A 
HETATM   26  C17 UNL     1      27.184   7.213  47.961  1.00  0.00     0.037 A 
HETATM   27  C18 UNL     1      26.130   6.580  48.606  1.00  0.00     0.016 A 
BRANCH  25  28
HETATM   28  O1  UNL     1      29.443   7.349  47.095  1.00  0.00    -0.361 OA
HETATM   29  H13 UNL     1      29.321   7.764  46.200  1.00  0.00     0.217 HD
ENDBRANCH  25  28
ENDBRANCH   4  22
TORSDOF 6
ENDMDL
MODEL 7
REMARK VINA RESULT:      -7.9      5.154      7.145
REMARK  6 active torsions:
REMARK  status: ('A' for Active; 'I' for Inactive)
REMARK    1  A    between atoms: N1_2  and  C2_3 
REMARK    2  A    between atoms: C2_3  and  N2_4 
REMARK    3  A    between atoms: N2_4  and  C3_5 
REMARK    4  A    between atoms: C3_5  and  C4_6 
REMARK    5  A    between atoms: C12_15  and  C13_16 
REMARK    6  A    between atoms: C16_19  and  O1_20 
ROOT
HETATM    1  C2  UNL     1      24.379   4.613  49.731  1.00  0.00     0.083 C 
HETATM    2  C10 UNL     1      24.534   3.607  50.575  1.00  0.00     0.049 A 
HETATM    3  C11 UNL     1      23.479   2.817  51.196  1.00  0.00     0.049 A 
HETATM    4  C12 UNL     1      24.032   1.902  51.979  1.00  0.00     0.045 A 
HETATM    5  N3  UNL     1      25.452   2.018  51.932  1.00  0.00    -0.340 N 
HETATM    6  C19 UNL     1      25.809   3.088  51.051  1.00  0.00     0.134 A 
HETATM    7  N4  UNL     1      27.000   3.490  50.757  1.00  0.00    -0.283 NA
HETATM    8  H16 UNL     1      26.113   1.409  52.463  1.00  0.00     0.167 HD
HETATM    9  H17 UNL     1      27.830   3.028  51.172  1.00  0.00     0.188 HD
ENDROOT
BRANCH   1  10
HETATM   10  N1  UNL     1      23.063   5.023  49.343  1.00  0.00    -0.295 NA
HETATM   11  C1  UNL     1      22.594   4.814  48.185  1.00  0.00     0.263 C 
ENDBRANCH   1  10
BRANCH   1  12
HETATM   12  N2  UNL     1      25.509   5.291  49.205  1.00  0.00    -0.376 N 
HETATM   13  H3  UNL     1      26.170   4.543  49.505  1.00  0.00     0.161 HD
BRANCH  12  14
HETATM   14  C3  UNL     1      25.972   6.470  48.513  1.00  0.00     0.162 C 
BRANCH  14  15
HETATM   15  C4  UNL     1      27.466   6.434  48.423  1.00  0.00    -0.002 A 
HETATM   16  C5  UNL     1      28.261   5.297  48.281  1.00  0.00     0.012 A 
HETATM   17  C6  UNL     1      29.634   5.465  48.215  1.00  0.00     0.001 A 
HETATM   18  C7  UNL     1      30.249   6.691  48.282  1.00  0.00     0.003 A 
HETATM   19  C8  UNL     1      29.460   7.815  48.423  1.00  0.00     0.043 A 
HETATM   20  C9  UNL     1      28.071   7.691  48.494  1.00  0.00     0.124 A 
HETATM   21  F1  UNL     1      27.425   8.871  48.631  1.00  0.00    -0.205 F 
ENDBRANCH  14  15
ENDBRANCH  12  14
ENDBRANCH   1  12
BRANCH   4  22
HETATM   22  C13 UNL     1      23.263   0.938  52.757  1.00  0.00    -0.009 A 
HETATM   23  C14 UNL     1      21.889   1.069  52.820  1.00  0.00     0.016 A 
HETATM   24  C15 UNL     1      21.089   0.188  53.544  1.00  0.00     0.037 A 
HETATM   25  C16 UNL     1      21.661  -0.854  54.225  1.00  0.00     0.065 A 
HETATM   26  C17 UNL     1      23.037  -0.962  54.145  1.00  0.00     0.037 A 
HETATM   27  C18 UNL     1      23.864  -0.103  53.435  1.00  0.00     0.016 A 
BRANCH  25  28
HETATM   28  O1  UNL     1      20.893  -1.750  54.955  1.00  0.00    -0.361 OA
HETATM   29  H13 UNL     1      19.905  -1.814  54.863  1.00  0.00     0.217 HD
ENDBRANCH  25  28
ENDBRANCH   4  22
TORSDOF 6
ENDMDL
MODEL 8
REMARK VINA RESULT:      -7.8      5.500      9.396
REMARK  6 active torsions:
REMARK  status: ('A' for Active; 'I' for Inactive)
REMARK    1  A    between atoms: N1_2  and  C2_3 
REMARK    2  A    between atoms: C2_3  and  N2_4 
REMARK    3  A    between atoms: N2_4  and  C3_5 
REMARK    4  A    between atoms: C3_5  and  C4_6 
REMARK    5  A    between atoms: C12_15  and  C13_16 
REMARK    6  A    between atoms: C16_19  and  O1_20 
ROOT
HETATM    1  C2  UNL     1      25.388   1.860  51.546  1.00  0.00     0.083 C 
HETATM    2  C10 UNL     1      25.368   2.985  50.853  1.00  0.00     0.049 A 
HETATM    3  C11 UNL     1      26.487   3.598  50.149  1.00  0.00     0.049 A 
HETATM    4  C12 UNL     1      26.072   4.717  49.574  1.00  0.00     0.045 A 
HETATM    5  N3  UNL     1      24.688   4.919  49.848  1.00  0.00    -0.340 N 
HETATM    6  C19 UNL     1      24.206   3.840  50.657  1.00  0.00     0.134 A 
HETATM    7  N4  UNL     1      23.005   3.679  51.104  1.00  0.00    -0.283 NA
HETATM    8  H16 UNL     1      24.130   5.731  49.506  1.00  0.00     0.167 HD
HETATM    9  H17 UNL     1      22.265   4.372  50.888  1.00  0.00     0.188 HD
ENDROOT
BRANCH   1  10
HETATM   10  N1  UNL     1      26.604   1.113  51.659  1.00  0.00    -0.295 NA
HETATM   11  C1  UNL     1      27.267   1.043  52.738  1.00  0.00     0.263 C 
ENDBRANCH   1  10
BRANCH   1  12
HETATM   12  N2  UNL     1      24.211   1.386  52.181  1.00  0.00    -0.376 N 
HETATM   13  H3  UNL     1      23.640   2.194  51.855  1.00  0.00     0.161 HD
BRANCH  12  14
HETATM   14  C3  UNL     1      23.637   0.338  52.991  1.00  0.00     0.162 C 
BRANCH  14  15
HETATM   15  C4  UNL     1      22.175   0.227  52.689  1.00  0.00    -0.002 A 
HETATM   16  C5  UNL     1      21.564   0.443  51.455  1.00  0.00     0.012 A 
HETATM   17  C6  UNL     1      20.190   0.291  51.371  1.00  0.00     0.001 A 
HETATM   18  C7  UNL     1      19.403  -0.061  52.439  1.00  0.00     0.003 A 
HETATM   19  C8  UNL     1      20.010  -0.274  53.661  1.00  0.00     0.043 A 
HETATM   20  C9  UNL     1      21.393  -0.132  53.790  1.00  0.00     0.124 A 
HETATM   21  F1  UNL     1      21.851  -0.370  55.040  1.00  0.00    -0.205 F 
ENDBRANCH  14  15
ENDBRANCH  12  14
ENDBRANCH   1  12
BRANCH   4  22
HETATM   22  C13 UNL     1      26.938   5.586  48.785  1.00  0.00    -0.009 A 
HETATM   23  C14 UNL     1      28.253   5.216  48.580  1.00  0.00     0.016 A 
HETATM   24  C15 UNL     1      29.140   5.995  47.839  1.00  0.00     0.037 A 
HETATM   25  C16 UNL     1      28.716   7.172  47.283  1.00  0.00     0.065 A 
HETATM   26  C17 UNL     1      27.396   7.518  47.502  1.00  0.00     0.037 A 
HETATM   27  C18 UNL     1      26.486   6.768  48.235  1.00  0.00     0.016 A 
BRANCH  25  28
HETATM   28  O1  UNL     1      29.573   7.971  46.539  1.00  0.00    -0.361 OA
HETATM   29  H13 UNL     1      30.489   8.210  46.843  1.00  0.00     0.217 HD
ENDBRANCH  25  28
ENDBRANCH   4  22
TORSDOF 6
ENDMDL
MODEL 9
REMARK VINA RESULT:      -7.6      6.184      9.669
REMARK  6 active torsions:
REMARK  status: ('A' for Active; 'I' for Inactive)
REMARK    1  A    between atoms: N1_2  and  C2_3 
REMARK    2  A    between atoms: C2_3  and  N2_4 
REMARK    3  A    between atoms: N2_4  and  C3_5 
REMARK    4  A    between atoms: C3_5  and  C4_6 
REMARK    5  A    between atoms: C12_15  and  C13_16 
REMARK    6  A    between atoms: C16_19  and  O1_20 
ROOT
HETATM    1  C2  UNL     1      23.450   3.705  49.949  1.00  0.00     0.083 C 
HETATM    2  C10 UNL     1      24.383   4.641  49.932  1.00  0.00     0.049 A 
HETATM    3  C11 UNL     1      25.441   4.802  48.942  1.00  0.00     0.049 A 
HETATM    4  C12 UNL     1      26.178   5.855  49.268  1.00  0.00     0.045 A 
HETATM    5  N3  UNL     1      25.674   6.448  50.463  1.00  0.00    -0.340 N 
HETATM    6  C19 UNL     1      24.535   5.706  50.913  1.00  0.00     0.134 A 
HETATM    7  N4  UNL     1      23.817   5.943  51.960  1.00  0.00    -0.283 NA
HETATM    8  H16 UNL     1      26.083   7.290  50.922  1.00  0.00     0.167 HD
HETATM    9  H17 UNL     1      24.038   6.743  52.581  1.00  0.00     0.188 HD
ENDROOT
BRANCH   1  10
HETATM   10  N1  UNL     1      23.415   2.713  48.918  1.00  0.00    -0.295 NA
HETATM   11  C1  UNL     1      22.386   2.500  48.208  1.00  0.00     0.263 C 
ENDBRANCH   1  10
BRANCH   1  12
HETATM   12  N2  UNL     1      22.481   3.676  50.985  1.00  0.00    -0.376 N 
HETATM   13  H3  UNL     1      21.919   4.444  50.561  1.00  0.00     0.161 HD
BRANCH  12  14
HETATM   14  C3  UNL     1      22.081   3.046  52.221  1.00  0.00     0.162 C 
BRANCH  14  15
HETATM   15  C4  UNL     1      23.171   2.131  52.684  1.00  0.00    -0.002 A 
HETATM   16  C5  UNL     1      24.456   2.503  53.077  1.00  0.00     0.012 A 
HETATM   17  C6  UNL     1      25.331   1.507  53.475  1.00  0.00     0.001 A 
HETATM   18  C7  UNL     1      24.997   0.175  53.502  1.00  0.00     0.003 A 
HETATM   19  C8  UNL     1      23.725  -0.191  53.112  1.00  0.00     0.043 A 
HETATM   20  C9  UNL     1      22.811   0.781  52.703  1.00  0.00     0.124 A 
HETATM   21  F1  UNL     1      21.605   0.281  52.349  1.00  0.00    -0.205 F 
ENDBRANCH  14  15
ENDBRANCH  12  14
ENDBRANCH   1  12
BRANCH   4  22
HETATM   22  C13 UNL     1      27.326   6.305  48.491  1.00  0.00    -0.009 A 
HETATM   23  C14 UNL     1      28.483   5.550  48.504  1.00  0.00     0.016 A 
HETATM   24  C15 UNL     1      29.621   5.918  47.788  1.00  0.00     0.037 A 
HETATM   25  C16 UNL     1      29.616   7.062  47.037  1.00  0.00     0.065 A 
HETATM   26  C17 UNL     1      28.446   7.798  47.040  1.00  0.00     0.037 A 
HETATM   27  C18 UNL     1      27.295   7.463  47.741  1.00  0.00     0.016 A 
BRANCH  25  28
HETATM   28  O1  UNL     1      30.731   7.456  46.311  1.00  0.00    -0.361 OA
HETATM   29  H13 UNL     1      31.660   7.354  46.651  1.00  0.00     0.217 HD
ENDBRANCH  25  28
ENDBRANCH   4  22
TORSDOF 6
ENDMDL
