MODEL 1
REMARK VINA RESULT:      -8.7      0.000      0.000
REMARK  3 active torsions:
REMARK  status: ('A' for Active; 'I' for Inactive)
REMARK    1  A    between atoms: C6_7  and  C7_8 
REMARK    2  A    between atoms: C10_12  and  C11_13 
REMARK    3  A    between atoms: C13_15  and  N3_16 
ROOT
HETATM    1  C7  UNL     1      26.466   1.139  52.306  1.00  0.00     0.072 A 
HETATM    2  C8  UNL     1      26.324   2.096  51.346  1.00  0.00     0.052 A 
HETATM    3  C9  UNL     1      25.164   2.633  50.853  1.00  0.00     0.121 A 
HETATM    4  N2  UNL     1      24.009   2.143  51.397  1.00  0.00    -0.241 NA
HETATM    5  C10 UNL     1      24.081   1.191  52.354  1.00  0.00     0.156 A 
HETATM    6  N4  UNL     1      25.271   0.731  52.767  1.00  0.00    -0.228 NA
ENDROOT
BRANCH   5   7
HETATM    7  C11 UNL     1      22.872   0.643  52.959  1.00  0.00    -0.005 C 
HETATM    8  C12 UNL     1      23.166  -0.358  53.803  1.00  0.00     0.040 C 
HETATM    9  C13 UNL     1      22.257  -1.166  54.606  1.00  0.00     0.026 C 
HETATM   10  C14 UNL     1      20.948  -1.310  54.479  1.00  0.00     0.028 C 
HETATM   11  C15 UNL     1      20.122  -0.660  53.468  1.00  0.00    -0.001 C 
HETATM   12  C16 UNL     1      20.417   0.380  52.705  1.00  0.00    -0.022 C 
HETATM   13  C17 UNL     1      21.595   1.240  52.572  1.00  0.00     0.070 C 
BRANCH   9  14
HETATM   14  N3  UNL     1      22.823  -1.921  55.687  1.00  0.00    -0.399 N 
HETATM   15  H10 UNL     1      23.654  -2.457  55.367  1.00  0.00     0.156 HD
HETATM   16  H11 UNL     1      22.421  -1.904  56.649  1.00  0.00     0.156 HD
ENDBRANCH   9  14
ENDBRANCH   5   7
BRANCH   1  17
HETATM   17  C6  UNL     1      27.636   0.510  52.855  1.00  0.00     0.016 A 
HETATM   18  C2  UNL     1      28.746   1.035  53.455  1.00  0.00    -0.047 A 
HETATM   19  C1  UNL     1      28.811   2.498  53.619  1.00  0.00     0.049 C 
HETATM   20  C3  UNL     1      29.774   0.257  53.939  1.00  0.00     0.027 A 
HETATM   21  C4  UNL     1      29.744  -1.107  53.845  1.00  0.00     0.116 A 
HETATM   22  N1  UNL     1      28.668  -1.638  53.262  1.00  0.00    -0.272 NA
HETATM   23  C5  UNL     1      27.672  -0.876  52.793  1.00  0.00     0.130 A 
ENDBRANCH   1  17
TORSDOF 3
ENDMDL
MODEL 2
REMARK VINA RESULT:      -8.7      1.887      6.616
REMARK  3 active torsions:
REMARK  status: ('A' for Active; 'I' for Inactive)
REMARK    1  A    between atoms: C6_7  and  C7_8 
REMARK    2  A    between atoms: C10_12  and  C11_13 
REMARK    3  A    between atoms: C13_15  and  N3_16 
ROOT
HETATM    1  C7  UNL     1      23.599   1.360  51.594  1.00  0.00     0.072 A 
HETATM    2  C8  UNL     1      22.796   0.672  52.454  1.00  0.00     0.052 A 
HETATM    3  C9  UNL     1      23.168  -0.196  53.446  1.00  0.00     0.121 A 
HETATM    4  N2  UNL     1      24.514  -0.392  53.585  1.00  0.00    -0.241 NA
HETATM    5  C10 UNL     1      25.365   0.259  52.761  1.00  0.00     0.156 A 
HETATM    6  N4  UNL     1      24.896   1.091  51.819  1.00  0.00    -0.228 NA
ENDROOT
BRANCH   5   7
HETATM    7  C11 UNL     1      26.808   0.078  52.878  1.00  0.00    -0.005 C 
HETATM    8  C12 UNL     1      27.117  -1.213  53.074  1.00  0.00     0.040 C 
HETATM    9  C13 UNL     1      28.433  -1.817  53.239  1.00  0.00     0.026 C 
HETATM   10  C14 UNL     1      29.583  -1.228  53.527  1.00  0.00     0.028 C 
HETATM   11  C15 UNL     1      29.766   0.202  53.745  1.00  0.00    -0.001 C 
HETATM   12  C16 UNL     1      28.955   1.197  53.423  1.00  0.00    -0.022 C 
HETATM   13  C17 UNL     1      27.647   1.269  52.767  1.00  0.00     0.070 C 
BRANCH   9  14
HETATM   14  N3  UNL     1      28.533  -3.239  53.074  1.00  0.00    -0.399 N 
HETATM   15  H10 UNL     1      29.472  -3.578  53.367  1.00  0.00     0.156 HD
HETATM   16  H11 UNL     1      27.745  -3.815  52.707  1.00  0.00     0.156 HD
ENDBRANCH   9  14
ENDBRANCH   5   7
BRANCH   1  17
HETATM   17  C6  UNL     1      23.287   2.262  50.519  1.00  0.00     0.016 A 
HETATM   18  C2  UNL     1      22.387   2.170  49.495  1.00  0.00    -0.047 A 
HETATM   19  C1  UNL     1      21.538   0.967  49.432  1.00  0.00     0.049 C 
HETATM   20  C3  UNL     1      22.220   3.162  48.554  1.00  0.00     0.027 A 
HETATM   21  C4  UNL     1      22.957   4.312  48.590  1.00  0.00     0.116 A 
HETATM   22  N1  UNL     1      23.841   4.421  49.582  1.00  0.00    -0.272 NA
HETATM   23  C5  UNL     1      23.999   3.453  50.494  1.00  0.00     0.130 A 
ENDBRANCH   1  17
TORSDOF 3
ENDMDL
MODEL 3
REMARK VINA RESULT:      -8.5      1.155      1.941
REMARK  3 active torsions:
REMARK  status: ('A' for Active; 'I' for Inactive)
REMARK    1  A    between atoms: C6_7  and  C7_8 
REMARK    2  A    between atoms: C10_12  and  C11_13 
REMARK    3  A    between atoms: C13_15  and  N3_16 
ROOT
HETATM    1  C7  UNL     1      26.290   1.076  52.304  1.00  0.00     0.072 A 
HETATM    2  C8  UNL     1      26.137   2.154  51.483  1.00  0.00     0.052 A 
HETATM    3  C9  UNL     1      24.974   2.681  50.989  1.00  0.00     0.121 A 
HETATM    4  N2  UNL     1      23.827   2.041  51.369  1.00  0.00    -0.241 NA
HETATM    5  C10 UNL     1      23.910   0.964  52.182  1.00  0.00     0.156 A 
HETATM    6  N4  UNL     1      25.103   0.527  52.612  1.00  0.00    -0.228 NA
ENDROOT
BRANCH   5   7
HETATM    7  C11 UNL     1      22.710   0.254  52.611  1.00  0.00    -0.005 C 
HETATM    8  C12 UNL     1      21.630   0.682  51.940  1.00  0.00     0.040 C 
HETATM    9  C13 UNL     1      20.248   0.237  52.064  1.00  0.00     0.026 C 
HETATM   10  C14 UNL     1      19.687  -0.456  53.041  1.00  0.00     0.028 C 
HETATM   11  C15 UNL     1      20.372  -0.933  54.238  1.00  0.00    -0.001 C 
HETATM   12  C16 UNL     1      21.672  -1.044  54.456  1.00  0.00    -0.022 C 
HETATM   13  C17 UNL     1      22.864  -0.760  53.653  1.00  0.00     0.070 C 
BRANCH   9  14
HETATM   14  N3  UNL     1      19.345   0.580  51.002  1.00  0.00    -0.399 N 
HETATM   15  H10 UNL     1      19.810   1.200  50.309  1.00  0.00     0.156 HD
HETATM   16  H11 UNL     1      18.363   0.231  50.972  1.00  0.00     0.156 HD
ENDBRANCH   9  14
ENDBRANCH   5   7
BRANCH   1  17
HETATM   17  C6  UNL     1      27.468   0.451  52.842  1.00  0.00     0.016 A 
HETATM   18  C2  UNL     1      28.585   0.980  53.423  1.00  0.00    -0.047 A 
HETATM   19  C1  UNL     1      28.654   2.444  53.575  1.00  0.00     0.049 C 
HETATM   20  C3  UNL     1      29.620   0.205  53.899  1.00  0.00     0.027 A 
HETATM   21  C4  UNL     1      29.587  -1.160  53.815  1.00  0.00     0.116 A 
HETATM   22  N1  UNL     1      28.504  -1.694  53.252  1.00  0.00    -0.272 NA
HETATM   23  C5  UNL     1      27.502  -0.936  52.790  1.00  0.00     0.130 A 
ENDBRANCH   1  17
TORSDOF 3
ENDMDL
MODEL 4
REMARK VINA RESULT:      -8.5      1.674      6.590
REMARK  3 active torsions:
REMARK  status: ('A' for Active; 'I' for Inactive)
REMARK    1  A    between atoms: C6_7  and  C7_8 
REMARK    2  A    between atoms: C10_12  and  C11_13 
REMARK    3  A    between atoms: C13_15  and  N3_16 
ROOT
HETATM    1  C7  UNL     1      23.312   1.473  51.569  1.00  0.00     0.072 A 
HETATM    2  C8  UNL     1      23.665   2.520  50.771  1.00  0.00     0.052 A 
HETATM    3  C9  UNL     1      24.923   2.996  50.509  1.00  0.00     0.121 A 
HETATM    4  N2  UNL     1      25.946   2.334  51.130  1.00  0.00    -0.241 NA
HETATM    5  C10 UNL     1      25.662   1.287  51.937  1.00  0.00     0.156 A 
HETATM    6  N4  UNL     1      24.392   0.899  52.126  1.00  0.00    -0.228 NA
ENDROOT
BRANCH   5   7
HETATM    7  C11 UNL     1      26.725   0.555  52.616  1.00  0.00    -0.005 C 
HETATM    8  C12 UNL     1      27.666   1.391  53.082  1.00  0.00     0.040 C 
HETATM    9  C13 UNL     1      28.884   1.070  53.815  1.00  0.00     0.026 C 
HETATM   10  C14 UNL     1      29.494  -0.098  53.934  1.00  0.00     0.028 C 
HETATM   11  C15 UNL     1      29.046  -1.348  53.330  1.00  0.00    -0.001 C 
HETATM   12  C16 UNL     1      27.859  -1.644  52.826  1.00  0.00    -0.022 C 
HETATM   13  C17 UNL     1      26.605  -0.901  52.680  1.00  0.00     0.070 C 
BRANCH   9  14
HETATM   14  N3  UNL     1      29.537   2.141  54.513  1.00  0.00    -0.399 N 
HETATM   15  H10 UNL     1      30.498   2.287  54.144  1.00  0.00     0.156 HD
HETATM   16  H11 UNL     1      29.072   2.672  55.280  1.00  0.00     0.156 HD
ENDBRANCH   9  14
ENDBRANCH   5   7
BRANCH   1  17
HETATM   17  C6  UNL     1      22.025   0.931  51.912  1.00  0.00     0.016 A 
HETATM   18  C2  UNL     1      20.956   0.585  51.135  1.00  0.00    -0.047 A 
HETATM   19  C1  UNL     1      21.082   0.753  49.677  1.00  0.00     0.049 C 
HETATM   20  C3  UNL     1      19.793   0.059  51.654  1.00  0.00     0.027 A 
HETATM   21  C4  UNL     1      19.641  -0.151  52.996  1.00  0.00     0.116 A 
HETATM   22  N1  UNL     1      20.674   0.180  53.770  1.00  0.00    -0.272 NA
HETATM   23  C5  UNL     1      21.801   0.692  53.260  1.00  0.00     0.130 A 
ENDBRANCH   1  17
TORSDOF 3
ENDMDL
MODEL 5
REMARK VINA RESULT:      -8.4      2.396      4.270
REMARK  3 active torsions:
REMARK  status: ('A' for Active; 'I' for Inactive)
REMARK    1  A    between atoms: C6_7  and  C7_8 
REMARK    2  A    between atoms: C10_12  and  C11_13 
REMARK    3  A    between atoms: C13_15  and  N3_16 
ROOT
HETATM    1  C7  UNL     1      24.885  -0.185  53.530  1.00  0.00     0.072 A 
HETATM    2  C8  UNL     1      23.869  -0.736  54.253  1.00  0.00     0.052 A 
HETATM    3  C9  UNL     1      22.521  -0.639  54.027  1.00  0.00     0.121 A 
HETATM    4  N2  UNL     1      22.157   0.105  52.939  1.00  0.00    -0.241 NA
HETATM    5  C10 UNL     1      23.118   0.680  52.181  1.00  0.00     0.156 A 
HETATM    6  N4  UNL     1      24.413   0.523  52.489  1.00  0.00    -0.228 NA
ENDROOT
BRANCH   5   7
HETATM    7  C11 UNL     1      22.771   1.481  51.011  1.00  0.00    -0.005 C 
HETATM    8  C12 UNL     1      21.603   1.083  50.484  1.00  0.00     0.040 C 
HETATM    9  C13 UNL     1      20.903   1.615  49.321  1.00  0.00     0.026 C 
HETATM   10  C14 UNL     1      21.373   2.390  48.357  1.00  0.00     0.028 C 
HETATM   11  C15 UNL     1      22.741   2.886  48.265  1.00  0.00    -0.001 C 
HETATM   12  C16 UNL     1      23.668   2.932  49.208  1.00  0.00    -0.022 C 
HETATM   13  C17 UNL     1      23.702   2.537  50.618  1.00  0.00     0.070 C 
BRANCH   9  14
HETATM   14  N3  UNL     1      19.518   1.272  49.169  1.00  0.00    -0.399 N 
HETATM   15  H10 UNL     1      18.915   2.108  49.304  1.00  0.00     0.156 HD
HETATM   16  H11 UNL     1      19.205   0.301  48.952  1.00  0.00     0.156 HD
ENDBRANCH   9  14
ENDBRANCH   5   7
BRANCH   1  17
HETATM   17  C6  UNL     1      26.310  -0.219  53.715  1.00  0.00     0.016 A 
HETATM   18  C2  UNL     1      27.271  -1.025  53.174  1.00  0.00    -0.047 A 
HETATM   19  C1  UNL     1      26.844  -2.051  52.207  1.00  0.00     0.049 C 
HETATM   20  C3  UNL     1      28.611  -0.893  53.467  1.00  0.00     0.027 A 
HETATM   21  C4  UNL     1      29.062   0.067  54.329  1.00  0.00     0.116 A 
HETATM   22  N1  UNL     1      28.139   0.864  54.867  1.00  0.00    -0.272 NA
HETATM   23  C5  UNL     1      26.838   0.730  54.579  1.00  0.00     0.130 A 
ENDBRANCH   1  17
TORSDOF 3
ENDMDL
MODEL 6
REMARK VINA RESULT:      -8.3      1.915      4.640
REMARK  3 active torsions:
REMARK  status: ('A' for Active; 'I' for Inactive)
REMARK    1  A    between atoms: C6_7  and  C7_8 
REMARK    2  A    between atoms: C10_12  and  C11_13 
REMARK    3  A    between atoms: C13_15  and  N3_16 
ROOT
HETATM    1  C7  UNL     1      25.680  -0.132  52.882  1.00  0.00     0.072 A 
HETATM    2  C8  UNL     1      24.516  -0.358  53.552  1.00  0.00     0.052 A 
HETATM    3  C9  UNL     1      23.307   0.263  53.380  1.00  0.00     0.121 A 
HETATM    4  N2  UNL     1      23.272   1.230  52.414  1.00  0.00    -0.241 NA
HETATM    5  C10 UNL     1      24.395   1.504  51.713  1.00  0.00     0.156 A 
HETATM    6  N4  UNL     1      25.531   0.835  51.960  1.00  0.00    -0.228 NA
ENDROOT
BRANCH   5   7
HETATM    7  C11 UNL     1      24.399   2.527  50.673  1.00  0.00    -0.005 C 
HETATM    8  C12 UNL     1      25.576   3.169  50.632  1.00  0.00     0.040 C 
HETATM    9  C13 UNL     1      25.991   4.249  49.747  1.00  0.00     0.026 C 
HETATM   10  C14 UNL     1      25.240   5.039  48.997  1.00  0.00     0.028 C 
HETATM   11  C15 UNL     1      23.785   4.979  48.904  1.00  0.00    -0.001 C 
HETATM   12  C16 UNL     1      22.974   4.002  49.274  1.00  0.00    -0.022 C 
HETATM   13  C17 UNL     1      23.181   2.684  49.879  1.00  0.00     0.070 C 
BRANCH   9  14
HETATM   14  N3  UNL     1      27.397   4.523  49.652  1.00  0.00    -0.399 N 
HETATM   15  H10 UNL     1      27.933   3.934  50.320  1.00  0.00     0.156 HD
HETATM   16  H11 UNL     1      27.784   5.227  48.987  1.00  0.00     0.156 HD
ENDBRANCH   9  14
ENDBRANCH   5   7
BRANCH   1  17
HETATM   17  C6  UNL     1      26.986  -0.718  53.019  1.00  0.00     0.016 A 
HETATM   18  C2  UNL     1      28.184  -0.177  53.391  1.00  0.00    -0.047 A 
HETATM   19  C1  UNL     1      28.212   1.253  53.744  1.00  0.00     0.049 C 
HETATM   20  C3  UNL     1      29.343  -0.915  53.479  1.00  0.00     0.027 A 
HETATM   21  C4  UNL     1      29.362  -2.252  53.197  1.00  0.00     0.116 A 
HETATM   22  N1  UNL     1      28.202  -2.799  52.834  1.00  0.00    -0.272 NA
HETATM   23  C5  UNL     1      27.078  -2.076  52.748  1.00  0.00     0.130 A 
ENDBRANCH   1  17
TORSDOF 3
ENDMDL
MODEL 7
REMARK VINA RESULT:      -8.2      2.498      6.525
REMARK  3 active torsions:
REMARK  status: ('A' for Active; 'I' for Inactive)
REMARK    1  A    between atoms: C6_7  and  C7_8 
REMARK    2  A    between atoms: C10_12  and  C11_13 
REMARK    3  A    between atoms: C13_15  and  N3_16 
ROOT
HETATM    1  C7  UNL     1      23.962   2.609  51.042  1.00  0.00     0.072 A 
HETATM    2  C8  UNL     1      24.586   3.352  50.085  1.00  0.00     0.052 A 
HETATM    3  C9  UNL     1      25.924   3.408  49.797  1.00  0.00     0.121 A 
HETATM    4  N2  UNL     1      26.728   2.617  50.569  1.00  0.00    -0.241 NA
HETATM    5  C10 UNL     1      26.171   1.856  51.538  1.00  0.00     0.156 A 
HETATM    6  N4  UNL     1      24.845   1.874  51.740  1.00  0.00    -0.228 NA
ENDROOT
BRANCH   5   7
HETATM    7  C11 UNL     1      26.995   0.998  52.383  1.00  0.00    -0.005 C 
HETATM    8  C12 UNL     1      27.983   1.696  52.963  1.00  0.00     0.040 C 
HETATM    9  C13 UNL     1      29.017   1.223  53.874  1.00  0.00     0.026 C 
HETATM   10  C14 UNL     1      29.406  -0.020  54.108  1.00  0.00     0.028 C 
HETATM   11  C15 UNL     1      28.852  -1.211  53.474  1.00  0.00    -0.001 C 
HETATM   12  C16 UNL     1      27.716  -1.339  52.809  1.00  0.00    -0.022 C 
HETATM   13  C17 UNL     1      26.633  -0.416  52.463  1.00  0.00     0.070 C 
BRANCH   9  14
HETATM   14  N3  UNL     1      29.730   2.209  54.635  1.00  0.00    -0.399 N 
HETATM   15  H10 UNL     1      29.106   2.653  55.339  1.00  0.00     0.156 HD
HETATM   16  H11 UNL     1      30.738   2.419  54.469  1.00  0.00     0.156 HD
ENDBRANCH   9  14
ENDBRANCH   5   7
BRANCH   1  17
HETATM   17  C6  UNL     1      22.579   2.515  51.421  1.00  0.00     0.016 A 
HETATM   18  C2  UNL     1      21.749   3.408  52.039  1.00  0.00    -0.047 A 
HETATM   19  C1  UNL     1      22.300   4.728  52.391  1.00  0.00     0.049 C 
HETATM   20  C3  UNL     1      20.426   3.136  52.310  1.00  0.00     0.027 A 
HETATM   21  C4  UNL     1      19.858   1.940  51.970  1.00  0.00     0.116 A 
HETATM   22  N1  UNL     1      20.652   1.056  51.365  1.00  0.00    -0.272 NA
HETATM   23  C5  UNL     1      21.937   1.325  51.106  1.00  0.00     0.130 A 
ENDBRANCH   1  17
TORSDOF 3
ENDMDL
MODEL 8
REMARK VINA RESULT:      -8.2      1.474      6.280
REMARK  3 active torsions:
REMARK  status: ('A' for Active; 'I' for Inactive)
REMARK    1  A    between atoms: C6_7  and  C7_8 
REMARK    2  A    between atoms: C10_12  and  C11_13 
REMARK    3  A    between atoms: C13_15  and  N3_16 
ROOT
HETATM    1  C7  UNL     1      22.964   1.053  52.046  1.00  0.00     0.072 A 
HETATM    2  C8  UNL     1      22.929   2.100  51.174  1.00  0.00     0.052 A 
HETATM    3  C9  UNL     1      23.983   2.806  50.658  1.00  0.00     0.121 A 
HETATM    4  N2  UNL     1      25.223   2.404  51.074  1.00  0.00    -0.241 NA
HETATM    5  C10 UNL     1      25.326   1.371  51.940  1.00  0.00     0.156 A 
HETATM    6  N4  UNL     1      24.228   0.745  52.386  1.00  0.00    -0.228 NA
ENDROOT
BRANCH   5   7
HETATM    7  C11 UNL     1      26.630   0.912  52.406  1.00  0.00    -0.005 C 
HETATM    8  C12 UNL     1      26.635  -0.416  52.593  1.00  0.00     0.040 C 
HETATM    9  C13 UNL     1      27.729  -1.265  53.048  1.00  0.00     0.026 C 
HETATM   10  C14 UNL     1      28.851  -0.914  53.655  1.00  0.00     0.028 C 
HETATM   11  C15 UNL     1      29.230   0.451  54.002  1.00  0.00    -0.001 C 
HETATM   12  C16 UNL     1      28.728   1.588  53.548  1.00  0.00    -0.022 C 
HETATM   13  C17 UNL     1      27.673   1.920  52.588  1.00  0.00     0.070 C 
BRANCH   9  14
HETATM   14  N3  UNL     1      27.606  -2.678  52.825  1.00  0.00    -0.399 N 
HETATM   15  H10 UNL     1      26.813  -2.882  52.184  1.00  0.00     0.156 HD
HETATM   16  H11 UNL     1      28.248  -3.370  53.268  1.00  0.00     0.156 HD
ENDBRANCH   9  14
ENDBRANCH   5   7
BRANCH   1  17
HETATM   17  C6  UNL     1      21.911   0.282  52.648  1.00  0.00     0.016 A 
HETATM   18  C2  UNL     1      21.922  -0.603  53.689  1.00  0.00    -0.047 A 
HETATM   19  C1  UNL     1      23.205  -0.845  54.372  1.00  0.00     0.049 C 
HETATM   20  C3  UNL     1      20.788  -1.243  54.139  1.00  0.00     0.027 A 
HETATM   21  C4  UNL     1      19.568  -1.026  53.563  1.00  0.00     0.116 A 
HETATM   22  N1  UNL     1      19.537  -0.164  52.546  1.00  0.00    -0.272 NA
HETATM   23  C5  UNL     1      20.642   0.455  52.112  1.00  0.00     0.130 A 
ENDBRANCH   1  17
TORSDOF 3
ENDMDL
MODEL 9
REMARK VINA RESULT:      -8.2      2.278      6.325
REMARK  3 active torsions:
REMARK  status: ('A' for Active; 'I' for Inactive)
REMARK    1  A    between atoms: C6_7  and  C7_8 
REMARK    2  A    between atoms: C10_12  and  C11_13 
REMARK    3  A    between atoms: C13_15  and  N3_16 
ROOT
HETATM    1  C7  UNL     1      24.533   3.032  51.387  1.00  0.00     0.072 A 
HETATM    2  C8  UNL     1      23.345   2.383  51.533  1.00  0.00     0.052 A 
HETATM    3  C9  UNL     1      23.115   1.157  52.101  1.00  0.00     0.121 A 
HETATM    4  N2  UNL     1      24.222   0.512  52.579  1.00  0.00    -0.241 NA
HETATM    5  C10 UNL     1      25.433   1.102  52.463  1.00  0.00     0.156 A 
HETATM    6  N4  UNL     1      25.549   2.308  51.888  1.00  0.00    -0.228 NA
ENDROOT
BRANCH   5   7
HETATM    7  C11 UNL     1      26.637   0.446  52.960  1.00  0.00    -0.005 C 
HETATM    8  C12 UNL     1      27.568   1.348  53.310  1.00  0.00     0.040 C 
HETATM    9  C13 UNL     1      28.901   1.114  53.849  1.00  0.00     0.026 C 
HETATM   10  C14 UNL     1      29.611  -0.003  53.845  1.00  0.00     0.028 C 
HETATM   11  C15 UNL     1      29.179  -1.274  53.275  1.00  0.00    -0.001 C 
HETATM   12  C16 UNL     1      27.958  -1.656  52.940  1.00  0.00    -0.022 C 
HETATM   13  C17 UNL     1      26.642  -1.015  52.998  1.00  0.00     0.070 C 
BRANCH   9  14
HETATM   14  N3  UNL     1      29.564   2.222  54.476  1.00  0.00    -0.399 N 
HETATM   15  H10 UNL     1      30.219   1.890  55.213  1.00  0.00     0.156 HD
HETATM   16  H11 UNL     1      29.383   3.210  54.197  1.00  0.00     0.156 HD
ENDBRANCH   9  14
ENDBRANCH   5   7
BRANCH   1  17
HETATM   17  C6  UNL     1      24.858   4.297  50.784  1.00  0.00     0.016 A 
HETATM   18  C2  UNL     1      25.809   4.642  49.867  1.00  0.00    -0.047 A 
HETATM   19  C1  UNL     1      26.680   3.575  49.345  1.00  0.00     0.049 C 
HETATM   20  C3  UNL     1      25.959   5.926  49.391  1.00  0.00     0.027 A 
HETATM   21  C4  UNL     1      25.152   6.945  49.816  1.00  0.00     0.116 A 
HETATM   22  N1  UNL     1      24.216   6.627  50.711  1.00  0.00    -0.272 NA
HETATM   23  C5  UNL     1      24.076   5.377  51.171  1.00  0.00     0.130 A 
ENDBRANCH   1  17
TORSDOF 3
ENDMDL
