MODEL 1
REMARK VINA RESULT:      -9.1      0.000      0.000
REMARK  3 active torsions:
REMARK  status: ('A' for Active; 'I' for Inactive)
REMARK    1  A    between atoms: O1_1  and  C1_2 
REMARK    2  A    between atoms: C18_21  and  N3_22 
REMARK    3  A    between atoms: C19_23  and  C20_24 
ROOT
HETATM    1  C1  UNL     1      23.828   5.808  50.458  1.00  0.00     0.138 C 
HETATM    2  C2  UNL     1      24.773   5.156  49.515  1.00  0.00     0.063 C 
HETATM    3  C3  UNL     1      25.688   4.242  49.245  1.00  0.00    -0.018 C 
HETATM    4  C4  UNL     1      26.474   3.117  49.768  1.00  0.00    -0.007 C 
HETATM    5  C5  UNL     1      26.574   2.410  50.879  1.00  0.00    -0.026 C 
HETATM    6  C6  UNL     1      25.750   2.539  52.127  1.00  0.00     0.003 C 
HETATM    7  C7  UNL     1      24.834   2.895  53.022  1.00  0.00     0.051 C 
HETATM    8  C8  UNL     1      23.633   3.811  53.039  1.00  0.00    -0.020 C 
HETATM    9  C9  UNL     1      22.783   4.636  52.422  1.00  0.00     0.027 C 
HETATM   10  C10 UNL     1      22.681   5.075  51.029  1.00  0.00     0.175 C 
HETATM   11  N1  UNL     1      21.296   5.685  50.847  1.00  0.00    -0.360 N 
HETATM   12  C11 UNL     1      21.480   6.962  50.265  1.00  0.00     0.019 C 
HETATM   13  C12 UNL     1      21.570   8.323  49.990  1.00  0.00     0.026 C 
HETATM   14  C13 UNL     1      23.122   8.381  49.604  1.00  0.00     0.009 C 
HETATM   15  C14 UNL     1      23.301   7.079  49.803  1.00  0.00    -0.027 C 
HETATM   16  C15 UNL     1      22.147   6.580  48.901  1.00  0.00     0.091 C 
HETATM   17  C16 UNL     1      22.140   5.205  48.559  1.00  0.00     0.008 C 
HETATM   18  C17 UNL     1      22.547   4.106  47.950  1.00  0.00     0.133 C 
HETATM   19  N2  UNL     1      21.830   2.855  48.233  1.00  0.00    -0.076 NA
HETATM   20  C18 UNL     1      21.787   2.701  49.573  1.00  0.00     0.724 C 
HETATM   21  N5  UNL     1      22.463   3.778  50.306  1.00  0.00    -0.189 N 
HETATM   22  H10 UNL     1      20.407   5.290  51.081  1.00  0.00     0.162 HD
HETATM   23  H21 UNL     1      23.373   3.235  50.231  1.00  0.00     0.181 HD
ENDROOT
BRANCH  20  24
HETATM   24  N3  UNL     1      21.252   1.728  50.465  1.00  0.00    -0.074 NA
HETATM   25  C19 UNL     1      21.926   1.211  51.436  1.00  0.00     0.149 C 
BRANCH  25  26
HETATM   26  C20 UNL     1      21.626   0.222  52.471  1.00  0.00    -0.001 A 
HETATM   27  C21 UNL     1      22.584  -0.464  53.190  1.00  0.00     0.016 A 
HETATM   28  C22 UNL     1      22.101  -1.367  54.116  1.00  0.00     0.020 A 
HETATM   29  C23 UNL     1      20.741  -1.516  54.253  1.00  0.00     0.116 A 
HETATM   30  N4  UNL     1      19.819  -0.824  53.529  1.00  0.00    -0.272 NA
HETATM   31  C24 UNL     1      20.248   0.071  52.612  1.00  0.00     0.129 A 
ENDBRANCH  25  26
ENDBRANCH  20  24
BRANCH   1  32
HETATM   32  O1  UNL     1      24.642   6.218  51.576  1.00  0.00    -0.380 OA
HETATM   33  H1  UNL     1      25.299   6.838  51.206  1.00  0.00     0.211 HD
ENDBRANCH   1  32
TORSDOF 3
ENDMDL
MODEL 2
REMARK VINA RESULT:      -8.1      2.674      4.847
REMARK  3 active torsions:
REMARK  status: ('A' for Active; 'I' for Inactive)
REMARK    1  A    between atoms: O1_1  and  C1_2 
REMARK    2  A    between atoms: C18_21  and  N3_22 
REMARK    3  A    between atoms: C19_23  and  C20_24 
ROOT
HETATM    1  C1  UNL     1      20.409   3.672  48.370  1.00  0.00     0.138 C 
HETATM    2  C2  UNL     1      19.374   4.036  49.372  1.00  0.00     0.063 C 
HETATM    3  C3  UNL     1      18.666   3.761  50.454  1.00  0.00    -0.018 C 
HETATM    4  C4  UNL     1      18.406   2.786  51.520  1.00  0.00    -0.007 C 
HETATM    5  C5  UNL     1      18.875   1.624  51.936  1.00  0.00    -0.026 C 
HETATM    6  C6  UNL     1      20.032   0.847  51.378  1.00  0.00     0.003 C 
HETATM    7  C7  UNL     1      21.093   0.464  50.675  1.00  0.00     0.051 C 
HETATM    8  C8  UNL     1      21.970   1.081  49.611  1.00  0.00    -0.020 C 
HETATM    9  C9  UNL     1      22.326   2.115  48.845  1.00  0.00     0.027 C 
HETATM   10  C10 UNL     1      21.822   3.488  48.755  1.00  0.00     0.175 C 
HETATM   11  N1  UNL     1      22.867   4.305  48.004  1.00  0.00    -0.360 N 
HETATM   12  C11 UNL     1      22.193   4.974  46.955  1.00  0.00     0.019 C 
HETATM   13  C12 UNL     1      21.693   5.418  45.735  1.00  0.00     0.026 C 
HETATM   14  C13 UNL     1      20.138   5.160  46.013  1.00  0.00     0.009 C 
HETATM   15  C14 UNL     1      20.354   4.688  47.236  1.00  0.00    -0.027 C 
HETATM   16  C15 UNL     1      21.197   5.875  47.761  1.00  0.00     0.091 C 
HETATM   17  C16 UNL     1      21.407   5.952  49.160  1.00  0.00     0.008 C 
HETATM   18  C17 UNL     1      21.083   6.152  50.425  1.00  0.00     0.133 C 
HETATM   19  N2  UNL     1      22.128   5.969  51.442  1.00  0.00    -0.076 NA
HETATM   20  C18 UNL     1      22.677   4.751  51.250  1.00  0.00     0.724 C 
HETATM   21  N5  UNL     1      22.070   4.006  50.142  1.00  0.00    -0.189 N 
HETATM   22  H10 UNL     1      23.847   4.380  48.189  1.00  0.00     0.162 HD
HETATM   23  H21 UNL     1      21.348   3.619  50.819  1.00  0.00     0.181 HD
ENDROOT
BRANCH  20  24
HETATM   24  N3  UNL     1      23.706   3.994  51.878  1.00  0.00    -0.074 NA
HETATM   25  C19 UNL     1      23.519   2.816  52.371  1.00  0.00     0.149 C 
BRANCH  25  26
HETATM   26  C20 UNL     1      24.378   1.847  53.049  1.00  0.00    -0.001 A 
HETATM   27  C21 UNL     1      24.116   0.493  53.123  1.00  0.00     0.016 A 
HETATM   28  C22 UNL     1      25.043  -0.256  53.820  1.00  0.00     0.020 A 
HETATM   29  C23 UNL     1      26.129   0.378  54.375  1.00  0.00     0.116 A 
HETATM   30  N4  UNL     1      26.363   1.716  54.286  1.00  0.00    -0.272 NA
HETATM   31  C24 UNL     1      25.480   2.487  53.612  1.00  0.00     0.129 A 
ENDBRANCH  25  26
ENDBRANCH  20  24
BRANCH   1  32
HETATM   32  O1  UNL     1      19.971   2.411  47.826  1.00  0.00    -0.380 OA
HETATM   33  H1  UNL     1      19.007   2.382  47.976  1.00  0.00     0.211 HD
ENDBRANCH   1  32
TORSDOF 3
ENDMDL
MODEL 3
REMARK VINA RESULT:      -8.0      2.854      4.866
REMARK  3 active torsions:
REMARK  status: ('A' for Active; 'I' for Inactive)
REMARK    1  A    between atoms: O1_1  and  C1_2 
REMARK    2  A    between atoms: C18_21  and  N3_22 
REMARK    3  A    between atoms: C19_23  and  C20_24 
ROOT
HETATM    1  C1  UNL     1      21.662   4.771  49.656  1.00  0.00     0.138 C 
HETATM    2  C2  UNL     1      20.775   4.618  50.837  1.00  0.00     0.063 C 
HETATM    3  C3  UNL     1      20.010   3.874  51.618  1.00  0.00    -0.018 C 
HETATM    4  C4  UNL     1      19.466   2.533  51.866  1.00  0.00    -0.007 C 
HETATM    5  C5  UNL     1      19.569   1.315  51.368  1.00  0.00    -0.026 C 
HETATM    6  C6  UNL     1      20.450   0.853  50.243  1.00  0.00     0.003 C 
HETATM    7  C7  UNL     1      21.355   0.792  49.272  1.00  0.00     0.051 C 
HETATM    8  C8  UNL     1      22.382   1.733  48.686  1.00  0.00    -0.020 C 
HETATM    9  C9  UNL     1      23.032   2.899  48.684  1.00  0.00     0.027 C 
HETATM   10  C10 UNL     1      22.956   4.065  49.568  1.00  0.00     0.175 C 
HETATM   11  N1  UNL     1      24.201   4.908  49.313  1.00  0.00    -0.360 N 
HETATM   12  C11 UNL     1      23.761   6.230  49.061  1.00  0.00     0.019 C 
HETATM   13  C12 UNL     1      23.422   7.460  48.507  1.00  0.00     0.026 C 
HETATM   14  C13 UNL     1      21.858   7.446  48.848  1.00  0.00     0.009 C 
HETATM   15  C14 UNL     1      21.917   6.258  49.440  1.00  0.00    -0.027 C 
HETATM   16  C15 UNL     1      23.070   6.583  50.421  1.00  0.00     0.091 C 
HETATM   17  C16 UNL     1      23.283   5.678  51.491  1.00  0.00     0.008 C 
HETATM   18  C17 UNL     1      23.024   5.073  52.636  1.00  0.00     0.133 C 
HETATM   19  N2  UNL     1      23.962   4.039  53.097  1.00  0.00    -0.076 NA
HETATM   20  C18 UNL     1      24.128   3.158  52.088  1.00  0.00     0.724 C 
HETATM   21  N5  UNL     1      23.336   3.479  50.896  1.00  0.00    -0.189 N 
HETATM   22  H10 UNL     1      25.158   4.619  49.315  1.00  0.00     0.162 HD
HETATM   23  H21 UNL     1      22.528   2.923  51.303  1.00  0.00     0.181 HD
ENDROOT
BRANCH  20  24
HETATM   24  N3  UNL     1      24.885   1.966  51.898  1.00  0.00    -0.074 NA
HETATM   25  C19 UNL     1      25.699   1.496  52.782  1.00  0.00     0.149 C 
BRANCH  25  26
HETATM   26  C20 UNL     1      26.573   0.325  52.842  1.00  0.00    -0.001 A 
HETATM   27  C21 UNL     1      26.176  -0.958  52.524  1.00  0.00     0.016 A 
HETATM   28  C22 UNL     1      27.145  -1.932  52.656  1.00  0.00     0.020 A 
HETATM   29  C23 UNL     1      28.401  -1.568  53.082  1.00  0.00     0.116 A 
HETATM   30  N4  UNL     1      28.765  -0.292  53.388  1.00  0.00    -0.272 NA
HETATM   31  C24 UNL     1      27.846   0.693  53.273  1.00  0.00     0.129 A 
ENDBRANCH  25  26
ENDBRANCH  20  24
BRANCH   1  32
HETATM   32  O1  UNL     1      20.876   4.314  48.537  1.00  0.00    -0.380 OA
HETATM   33  H1  UNL     1      21.522   4.045  47.856  1.00  0.00     0.211 HD
ENDBRANCH   1  32
TORSDOF 3
ENDMDL
MODEL 4
REMARK VINA RESULT:      -7.8      2.558      6.773
REMARK  3 active torsions:
REMARK  status: ('A' for Active; 'I' for Inactive)
REMARK    1  A    between atoms: O1_1  and  C1_2 
REMARK    2  A    between atoms: C18_21  and  N3_22 
REMARK    3  A    between atoms: C19_23  and  C20_24 
ROOT
HETATM    1  C1  UNL     1      22.969   2.169  51.407  1.00  0.00     0.138 C 
HETATM    2  C2  UNL     1      22.911   1.762  49.979  1.00  0.00     0.063 C 
HETATM    3  C3  UNL     1      22.292   1.733  48.811  1.00  0.00    -0.018 C 
HETATM    4  C4  UNL     1      21.101   2.140  48.056  1.00  0.00    -0.007 C 
HETATM    5  C5  UNL     1      20.009   2.858  48.241  1.00  0.00    -0.026 C 
HETATM    6  C6  UNL     1      19.615   3.633  49.465  1.00  0.00     0.003 C 
HETATM    7  C7  UNL     1      19.604   4.216  50.659  1.00  0.00     0.051 C 
HETATM    8  C8  UNL     1      20.583   4.369  51.800  1.00  0.00    -0.020 C 
HETATM    9  C9  UNL     1      21.794   4.191  52.332  1.00  0.00     0.027 C 
HETATM   10  C10 UNL     1      23.020   3.591  51.800  1.00  0.00     0.175 C 
HETATM   11  N1  UNL     1      24.167   4.029  52.704  1.00  0.00    -0.360 N 
HETATM   12  C11 UNL     1      24.863   2.857  53.086  1.00  0.00     0.019 C 
HETATM   13  C12 UNL     1      25.412   1.768  53.755  1.00  0.00     0.026 C 
HETATM   14  C13 UNL     1      24.783   0.602  52.857  1.00  0.00     0.009 C 
HETATM   15  C14 UNL     1      24.146   1.453  52.059  1.00  0.00    -0.027 C 
HETATM   16  C15 UNL     1      25.364   2.336  51.697  1.00  0.00     0.091 C 
HETATM   17  C16 UNL     1      25.219   3.222  50.601  1.00  0.00     0.008 C 
HETATM   18  C17 UNL     1      25.104   3.572  49.332  1.00  0.00     0.133 C 
HETATM   19  N2  UNL     1      24.959   5.001  49.021  1.00  0.00    -0.076 NA
HETATM   20  C18 UNL     1      23.943   5.481  49.769  1.00  0.00     0.724 C 
HETATM   21  N5  UNL     1      23.308   4.464  50.614  1.00  0.00    -0.189 N 
HETATM   22  H10 UNL     1      24.412   4.955  52.992  1.00  0.00     0.162 HD
HETATM   23  H21 UNL     1      22.657   4.226  49.809  1.00  0.00     0.181 HD
ENDROOT
BRANCH  20  24
HETATM   24  N3  UNL     1      23.318   6.750  49.932  1.00  0.00    -0.074 NA
HETATM   25  C19 UNL     1      22.135   7.019  49.491  1.00  0.00     0.149 C 
BRANCH  25  26
HETATM   26  C20 UNL     1      21.281   8.205  49.522  1.00  0.00    -0.001 A 
HETATM   27  C21 UNL     1      20.019   8.240  50.082  1.00  0.00     0.016 A 
HETATM   28  C22 UNL     1      19.364   9.452  50.001  1.00  0.00     0.020 A 
HETATM   29  C23 UNL     1      19.993  10.508  49.386  1.00  0.00     0.116 A 
HETATM   30  N4  UNL     1      21.239  10.445  48.841  1.00  0.00    -0.272 NA
HETATM   31  C24 UNL     1      21.917   9.277  48.899  1.00  0.00     0.129 A 
ENDBRANCH  25  26
ENDBRANCH  20  24
BRANCH   1  32
HETATM   32  O1  UNL     1      21.769   1.630  51.997  1.00  0.00    -0.380 OA
HETATM   33  H1  UNL     1      21.387   1.041  51.318  1.00  0.00     0.211 HD
ENDBRANCH   1  32
TORSDOF 3
ENDMDL
MODEL 5
REMARK VINA RESULT:      -7.7      2.245      3.162
REMARK  3 active torsions:
REMARK  status: ('A' for Active; 'I' for Inactive)
REMARK    1  A    between atoms: O1_1  and  C1_2 
REMARK    2  A    between atoms: C18_21  and  N3_22 
REMARK    3  A    between atoms: C19_23  and  C20_24 
ROOT
HETATM    1  C1  UNL     1      23.039   4.162  51.601  1.00  0.00     0.138 C 
HETATM    2  C2  UNL     1      24.081   3.130  51.367  1.00  0.00     0.063 C 
HETATM    3  C3  UNL     1      24.579   1.923  51.575  1.00  0.00    -0.018 C 
HETATM    4  C4  UNL     1      24.403   0.638  52.262  1.00  0.00    -0.007 C 
HETATM    5  C5  UNL     1      23.514   0.041  53.035  1.00  0.00    -0.026 C 
HETATM    6  C6  UNL     1      22.182   0.571  53.481  1.00  0.00     0.003 C 
HETATM    7  C7  UNL     1      21.093   1.314  53.645  1.00  0.00     0.051 C 
HETATM    8  C8  UNL     1      20.564   2.606  53.066  1.00  0.00    -0.020 C 
HETATM    9  C9  UNL     1      20.658   3.630  52.214  1.00  0.00     0.027 C 
HETATM   10  C10 UNL     1      21.640   3.954  51.176  1.00  0.00     0.175 C 
HETATM   11  N1  UNL     1      21.014   5.014  50.277  1.00  0.00    -0.360 N 
HETATM   12  C11 UNL     1      21.943   6.079  50.184  1.00  0.00     0.019 C 
HETATM   13  C12 UNL     1      22.634   7.282  50.280  1.00  0.00     0.026 C 
HETATM   14  C13 UNL     1      23.965   6.731  50.977  1.00  0.00     0.009 C 
HETATM   15  C14 UNL     1      23.526   5.477  51.005  1.00  0.00    -0.027 C 
HETATM   16  C15 UNL     1      23.159   5.363  49.506  1.00  0.00     0.091 C 
HETATM   17  C16 UNL     1      22.920   4.063  48.995  1.00  0.00     0.008 C 
HETATM   18  C17 UNL     1      23.229   2.843  48.593  1.00  0.00     0.133 C 
HETATM   19  N2  UNL     1      22.140   1.973  48.128  1.00  0.00    -0.076 NA
HETATM   20  C18 UNL     1      21.188   1.961  49.085  1.00  0.00     0.724 C 
HETATM   21  N5  UNL     1      21.531   2.772  50.259  1.00  0.00    -0.189 N 
HETATM   22  H10 UNL     1      20.124   4.995  49.822  1.00  0.00     0.162 HD
HETATM   23  H21 UNL     1      22.021   1.928  50.678  1.00  0.00     0.181 HD
ENDROOT
BRANCH  20  24
HETATM   24  N3  UNL     1      19.920   1.334  49.244  1.00  0.00    -0.074 NA
HETATM   25  C19 UNL     1      19.504   0.854  50.368  1.00  0.00     0.149 C 
BRANCH  25  26
HETATM   26  C20 UNL     1      18.279   0.179  50.796  1.00  0.00    -0.001 A 
HETATM   27  C21 UNL     1      18.137  -0.484  51.999  1.00  0.00     0.016 A 
HETATM   28  C22 UNL     1      16.906  -1.069  52.215  1.00  0.00     0.020 A 
HETATM   29  C23 UNL     1      15.936  -0.955  51.247  1.00  0.00     0.116 A 
HETATM   30  N4  UNL     1      16.104  -0.294  50.069  1.00  0.00    -0.272 NA
HETATM   31  C24 UNL     1      17.294   0.294  49.817  1.00  0.00     0.129 A 
ENDBRANCH  25  26
ENDBRANCH  20  24
BRANCH   1  32
HETATM   32  O1  UNL     1      23.004   4.337  53.032  1.00  0.00    -0.380 OA
HETATM   33  H1  UNL     1      23.623   3.673  53.391  1.00  0.00     0.211 HD
ENDBRANCH   1  32
TORSDOF 3
ENDMDL
MODEL 6
REMARK VINA RESULT:      -7.7      2.565      4.555
REMARK  3 active torsions:
REMARK  status: ('A' for Active; 'I' for Inactive)
REMARK    1  A    between atoms: O1_1  and  C1_2 
REMARK    2  A    between atoms: C18_21  and  N3_22 
REMARK    3  A    between atoms: C19_23  and  C20_24 
ROOT
HETATM    1  C1  UNL     1      22.353   5.257  47.979  1.00  0.00     0.138 C 
HETATM    2  C2  UNL     1      20.939   5.560  48.319  1.00  0.00     0.063 C 
HETATM    3  C3  UNL     1      19.714   5.166  48.622  1.00  0.00    -0.018 C 
HETATM    4  C4  UNL     1      18.830   4.018  48.857  1.00  0.00    -0.007 C 
HETATM    5  C5  UNL     1      18.912   2.702  48.925  1.00  0.00    -0.026 C 
HETATM    6  C6  UNL     1      20.142   1.851  48.803  1.00  0.00     0.003 C 
HETATM    7  C7  UNL     1      21.397   1.428  48.690  1.00  0.00     0.051 C 
HETATM    8  C8  UNL     1      22.759   2.079  48.633  1.00  0.00    -0.020 C 
HETATM    9  C9  UNL     1      23.542   3.159  48.694  1.00  0.00     0.027 C 
HETATM   10  C10 UNL     1      23.245   4.573  48.937  1.00  0.00     0.175 C 
HETATM   11  N1  UNL     1      24.562   5.259  49.284  1.00  0.00    -0.360 N 
HETATM   12  C11 UNL     1      24.677   6.385  48.435  1.00  0.00     0.019 C 
HETATM   13  C12 UNL     1      25.026   7.313  47.458  1.00  0.00     0.026 C 
HETATM   14  C13 UNL     1      23.606   7.426  46.727  1.00  0.00     0.009 C 
HETATM   15  C14 UNL     1      23.027   6.551  47.543  1.00  0.00    -0.027 C 
HETATM   16  C15 UNL     1      23.432   7.226  48.876  1.00  0.00     0.091 C 
HETATM   17  C16 UNL     1      22.763   6.795  50.049  1.00  0.00     0.008 C 
HETATM   18  C17 UNL     1      21.753   6.668  50.891  1.00  0.00     0.133 C 
HETATM   19  N2  UNL     1      21.972   5.888  52.117  1.00  0.00    -0.076 NA
HETATM   20  C18 UNL     1      22.479   4.691  51.756  1.00  0.00     0.724 C 
HETATM   21  N5  UNL     1      22.631   4.535  50.305  1.00  0.00    -0.189 N 
HETATM   22  H10 UNL     1      25.237   4.994  49.972  1.00  0.00     0.162 HD
HETATM   23  H21 UNL     1      21.633   4.172  50.257  1.00  0.00     0.181 HD
ENDROOT
BRANCH  20  24
HETATM   24  N3  UNL     1      22.897   3.518  52.447  1.00  0.00    -0.074 NA
HETATM   25  C19 UNL     1      24.097   3.047  52.382  1.00  0.00     0.149 C 
BRANCH  25  26
HETATM   26  C20 UNL     1      24.773   1.894  52.975  1.00  0.00    -0.001 A 
HETATM   27  C21 UNL     1      24.426   0.580  52.731  1.00  0.00     0.016 A 
HETATM   28  C22 UNL     1      25.177  -0.368  53.396  1.00  0.00     0.020 A 
HETATM   29  C23 UNL     1      26.188   0.049  54.230  1.00  0.00     0.116 A 
HETATM   30  N4  UNL     1      26.508   1.353  54.452  1.00  0.00    -0.272 NA
HETATM   31  C24 UNL     1      25.798   2.315  53.820  1.00  0.00     0.129 A 
ENDBRANCH  25  26
ENDBRANCH  20  24
BRANCH   1  32
HETATM   32  O1  UNL     1      22.282   4.407  46.816  1.00  0.00    -0.380 OA
HETATM   33  H1  UNL     1      22.984   4.727  46.217  1.00  0.00     0.211 HD
ENDBRANCH   1  32
TORSDOF 3
ENDMDL
MODEL 7
REMARK VINA RESULT:      -7.6      8.407     12.171
REMARK  3 active torsions:
REMARK  status: ('A' for Active; 'I' for Inactive)
REMARK    1  A    between atoms: O1_1  and  C1_2 
REMARK    2  A    between atoms: C18_21  and  N3_22 
REMARK    3  A    between atoms: C19_23  and  C20_24 
ROOT
HETATM    1  C1  UNL     1      31.908   7.010  48.675  1.00  0.00     0.138 C 
HETATM    2  C2  UNL     1      30.854   6.169  48.051  1.00  0.00     0.063 C 
HETATM    3  C3  UNL     1      29.583   5.908  47.799  1.00  0.00    -0.018 C 
HETATM    4  C4  UNL     1      28.192   6.338  47.993  1.00  0.00    -0.007 C 
HETATM    5  C5  UNL     1      27.534   7.344  48.538  1.00  0.00    -0.026 C 
HETATM    6  C6  UNL     1      28.104   8.569  49.193  1.00  0.00     0.003 C 
HETATM    7  C7  UNL     1      28.926   9.507  49.650  1.00  0.00     0.051 C 
HETATM    8  C8  UNL     1      30.413   9.771  49.586  1.00  0.00    -0.020 C 
HETATM    9  C9  UNL     1      31.637   9.465  49.149  1.00  0.00     0.027 C 
HETATM   10  C10 UNL     1      32.123   8.409  48.257  1.00  0.00     0.175 C 
HETATM   11  N1  UNL     1      33.528   8.802  47.816  1.00  0.00    -0.360 N 
HETATM   12  C11 UNL     1      34.368   7.692  48.071  1.00  0.00     0.019 C 
HETATM   13  C12 UNL     1      35.311   6.794  48.561  1.00  0.00     0.026 C 
HETATM   14  C13 UNL     1      34.315   5.608  48.966  1.00  0.00     0.009 C 
HETATM   15  C14 UNL     1      33.236   6.271  48.565  1.00  0.00    -0.027 C 
HETATM   16  C15 UNL     1      33.730   6.608  47.138  1.00  0.00     0.091 C 
HETATM   17  C16 UNL     1      32.763   7.067  46.209  1.00  0.00     0.008 C 
HETATM   18  C17 UNL     1      31.731   6.976  45.389  1.00  0.00     0.133 C 
HETATM   19  N2  UNL     1      31.297   8.192  44.688  1.00  0.00    -0.076 NA
HETATM   20  C18 UNL     1      31.120   9.158  45.614  1.00  0.00     0.724 C 
HETATM   21  N5  UNL     1      31.385   8.707  46.985  1.00  0.00    -0.189 N 
HETATM   22  H10 UNL     1      33.835   9.667  47.418  1.00  0.00     0.162 HD
HETATM   23  H21 UNL     1      30.372   8.393  47.060  1.00  0.00     0.181 HD
ENDROOT
BRANCH  20  24
HETATM   24  N3  UNL     1      30.720  10.524  45.589  1.00  0.00    -0.074 NA
HETATM   25  C19 UNL     1      29.958  11.055  46.485  1.00  0.00     0.149 C 
BRANCH  25  26
HETATM   26  C20 UNL     1      29.411  12.395  46.693  1.00  0.00    -0.001 A 
HETATM   27  C21 UNL     1      28.551  12.733  47.719  1.00  0.00     0.016 A 
HETATM   28  C22 UNL     1      28.134  14.049  47.738  1.00  0.00     0.020 A 
HETATM   29  C23 UNL     1      28.590  14.906  46.764  1.00  0.00     0.116 A 
HETATM   30  N4  UNL     1      29.438  14.544  45.763  1.00  0.00    -0.272 NA
HETATM   31  C24 UNL     1      29.872  13.265  45.707  1.00  0.00     0.129 A 
ENDBRANCH  25  26
ENDBRANCH  20  24
BRANCH   1  32
HETATM   32  O1  UNL     1      31.567   7.055  50.075  1.00  0.00    -0.380 OA
HETATM   33  H1  UNL     1      31.919   6.227  50.456  1.00  0.00     0.211 HD
ENDBRANCH   1  32
TORSDOF 3
ENDMDL
MODEL 8
REMARK VINA RESULT:      -7.6      1.875      4.071
REMARK  3 active torsions:
REMARK  status: ('A' for Active; 'I' for Inactive)
REMARK    1  A    between atoms: O1_1  and  C1_2 
REMARK    2  A    between atoms: C18_21  and  N3_22 
REMARK    3  A    between atoms: C19_23  and  C20_24 
ROOT
HETATM    1  C1  UNL     1      23.422   5.425  48.699  1.00  0.00     0.138 C 
HETATM    2  C2  UNL     1      22.331   6.225  49.312  1.00  0.00     0.063 C 
HETATM    3  C3  UNL     1      21.066   6.377  49.662  1.00  0.00    -0.018 C 
HETATM    4  C4  UNL     1      19.729   5.769  49.679  1.00  0.00    -0.007 C 
HETATM    5  C5  UNL     1      19.156   4.627  49.349  1.00  0.00    -0.026 C 
HETATM    6  C6  UNL     1      19.814   3.390  48.810  1.00  0.00     0.003 C 
HETATM    7  C7  UNL     1      20.704   2.493  48.399  1.00  0.00     0.051 C 
HETATM    8  C8  UNL     1      22.211   2.409  48.338  1.00  0.00    -0.020 C 
HETATM    9  C9  UNL     1      23.421   2.912  48.596  1.00  0.00     0.027 C 
HETATM   10  C10 UNL     1      23.849   4.135  49.278  1.00  0.00     0.175 C 
HETATM   11  N1  UNL     1      25.327   3.972  49.616  1.00  0.00    -0.360 N 
HETATM   12  C11 UNL     1      25.993   5.119  49.123  1.00  0.00     0.019 C 
HETATM   13  C12 UNL     1      26.767   6.035  48.418  1.00  0.00     0.026 C 
HETATM   14  C13 UNL     1      25.598   7.028  47.964  1.00  0.00     0.009 C 
HETATM   15  C14 UNL     1      24.651   6.315  48.565  1.00  0.00    -0.027 C 
HETATM   16  C15 UNL     1      25.311   6.250  49.964  1.00  0.00     0.091 C 
HETATM   17  C16 UNL     1      24.497   5.828  51.044  1.00  0.00     0.008 C 
HETATM   18  C17 UNL     1      23.540   5.924  51.950  1.00  0.00     0.133 C 
HETATM   19  N2  UNL     1      23.328   4.784  52.852  1.00  0.00    -0.076 NA
HETATM   20  C18 UNL     1      23.191   3.678  52.090  1.00  0.00     0.724 C 
HETATM   21  N5  UNL     1      23.272   3.948  50.650  1.00  0.00    -0.189 N 
HETATM   22  H10 UNL     1      25.775   3.215  50.092  1.00  0.00     0.162 HD
HETATM   23  H21 UNL     1      22.225   4.132  50.643  1.00  0.00     0.181 HD
ENDROOT
BRANCH  20  24
HETATM   24  N3  UNL     1      22.970   2.294  52.343  1.00  0.00    -0.074 NA
HETATM   25  C19 UNL     1      22.009   1.854  53.083  1.00  0.00     0.149 C 
BRANCH  25  26
HETATM   26  C20 UNL     1      21.567   0.522  53.495  1.00  0.00    -0.001 A 
HETATM   27  C21 UNL     1      22.388  -0.423  54.078  1.00  0.00     0.016 A 
HETATM   28  C22 UNL     1      21.787  -1.627  54.384  1.00  0.00     0.020 A 
HETATM   29  C23 UNL     1      20.453  -1.797  54.095  1.00  0.00     0.116 A 
HETATM   30  N4  UNL     1      19.667  -0.846  53.519  1.00  0.00    -0.272 NA
HETATM   31  C24 UNL     1      20.216   0.348  53.203  1.00  0.00     0.129 A 
ENDBRANCH  25  26
ENDBRANCH  20  24
BRANCH   1  32
HETATM   32  O1  UNL     1      22.965   5.135  47.363  1.00  0.00    -0.380 OA
HETATM   33  H1  UNL     1      23.105   5.958  46.856  1.00  0.00     0.211 HD
ENDBRANCH   1  32
TORSDOF 3
ENDMDL
MODEL 9
REMARK VINA RESULT:      -7.5      2.411      6.281
REMARK  3 active torsions:
REMARK  status: ('A' for Active; 'I' for Inactive)
REMARK    1  A    between atoms: O1_1  and  C1_2 
REMARK    2  A    between atoms: C18_21  and  N3_22 
REMARK    3  A    between atoms: C19_23  and  C20_24 
ROOT
HETATM    1  C1  UNL     1      23.519   3.996  51.413  1.00  0.00     0.138 C 
HETATM    2  C2  UNL     1      22.643   5.076  51.934  1.00  0.00     0.063 C 
HETATM    3  C3  UNL     1      21.984   6.210  51.767  1.00  0.00    -0.018 C 
HETATM    4  C4  UNL     1      21.635   7.287  50.832  1.00  0.00    -0.007 C 
HETATM    5  C5  UNL     1      21.820   7.593  49.561  1.00  0.00    -0.026 C 
HETATM    6  C6  UNL     1      22.520   6.780  48.512  1.00  0.00     0.003 C 
HETATM    7  C7  UNL     1      23.151   5.810  47.857  1.00  0.00     0.051 C 
HETATM    8  C8  UNL     1      23.592   4.399  48.170  1.00  0.00    -0.020 C 
HETATM    9  C9  UNL     1      23.644   3.345  48.987  1.00  0.00     0.027 C 
HETATM   10  C10 UNL     1      23.080   3.108  50.318  1.00  0.00     0.175 C 
HETATM   11  N1  UNL     1      23.128   1.605  50.569  1.00  0.00    -0.360 N 
HETATM   12  C11 UNL     1      23.762   1.416  51.820  1.00  0.00     0.019 C 
HETATM   13  C12 UNL     1      24.631   1.115  52.864  1.00  0.00     0.026 C 
HETATM   14  C13 UNL     1      24.765   2.583  53.486  1.00  0.00     0.009 C 
HETATM   15  C14 UNL     1      23.951   3.124  52.586  1.00  0.00    -0.027 C 
HETATM   16  C15 UNL     1      22.765   2.149  52.780  1.00  0.00     0.091 C 
HETATM   17  C16 UNL     1      21.518   2.527  52.223  1.00  0.00     0.008 C 
HETATM   18  C17 UNL     1      20.399   3.222  52.117  1.00  0.00     0.133 C 
HETATM   19  N2  UNL     1      19.484   2.890  51.017  1.00  0.00    -0.076 NA
HETATM   20  C18 UNL     1      20.197   2.906  49.871  1.00  0.00     0.724 C 
HETATM   21  N5  UNL     1      21.608   3.258  50.067  1.00  0.00    -0.189 N 
HETATM   22  H10 UNL     1      22.787   0.867  49.987  1.00  0.00     0.162 HD
HETATM   23  H21 UNL     1      21.348   4.284  49.969  1.00  0.00     0.181 HD
ENDROOT
BRANCH  20  24
HETATM   24  N3  UNL     1      19.909   2.677  48.495  1.00  0.00    -0.074 NA
HETATM   25  C19 UNL     1      20.146   3.543  47.568  1.00  0.00     0.149 C 
BRANCH  25  26
HETATM   26  C20 UNL     1      19.954   3.562  46.119  1.00  0.00    -0.001 A 
HETATM   27  C21 UNL     1      18.731   3.422  45.495  1.00  0.00     0.016 A 
HETATM   28  C22 UNL     1      18.758   3.454  44.115  1.00  0.00     0.020 A 
HETATM   29  C23 UNL     1      19.965   3.618  43.477  1.00  0.00     0.116 A 
HETATM   30  N4  UNL     1      21.158   3.754  44.119  1.00  0.00    -0.272 NA
HETATM   31  C24 UNL     1      21.177   3.729  45.471  1.00  0.00     0.129 A 
ENDBRANCH  25  26
ENDBRANCH  20  24
BRANCH   1  32
HETATM   32  O1  UNL     1      24.699   4.672  50.935  1.00  0.00    -0.380 OA
HETATM   33  H1  UNL     1      25.432   4.039  51.060  1.00  0.00     0.211 HD
ENDBRANCH   1  32
TORSDOF 3
ENDMDL
