MODEL 1
REMARK VINA RESULT:      -7.6      0.000      0.000
REMARK  6 active torsions:
REMARK  status: ('A' for Active; 'I' for Inactive)
REMARK    1  A    between atoms: C2_2  and  C3_3 
REMARK    2  A    between atoms: C8_9  and  N2_10 
REMARK    3  A    between atoms: N2_10  and  C9_11 
REMARK    4  A    between atoms: C12_14  and  O1_15 
REMARK    5  A    between atoms: C14_17  and  O2_18 
REMARK    6  A    between atoms: C18_22  and  O3_23 
ROOT
HETATM    1  C3  UNL     1      27.399   0.714  53.706  1.00  0.00    -0.023 A 
HETATM    2  C4  UNL     1      26.816  -0.096  54.655  1.00  0.00     0.042 A 
HETATM    3  C5  UNL     1      25.454  -0.342  54.522  1.00  0.00     0.069 A 
HETATM    4  N1  UNL     1      24.899  -1.137  55.456  1.00  0.00    -0.260 NA
HETATM    5  C6  UNL     1      23.589  -1.428  55.411  1.00  0.00     0.119 A 
HETATM    6  C7  UNL     1      22.782  -0.905  54.386  1.00  0.00     0.049 A 
HETATM    7  C8  UNL     1      23.296  -0.090  53.409  1.00  0.00     0.046 A 
HETATM    8  C16 UNL     1      24.644   0.175  53.504  1.00  0.00     0.022 A 
HETATM    9  C17 UNL     1      25.274   0.978  52.579  1.00  0.00     0.053 A 
HETATM   10  C18 UNL     1      26.640   1.256  52.666  1.00  0.00     0.075 A 
ENDROOT
BRANCH   7  11
HETATM   11  N2  UNL     1      22.473   0.428  52.417  1.00  0.00    -0.356 N 
HETATM   12  H9  UNL     1      22.808  -0.007  51.528  1.00  0.00     0.166 HD
BRANCH  11  13
HETATM   13  C9  UNL     1      21.385   1.328  52.321  1.00  0.00     0.045 A 
HETATM   14  C10 UNL     1      22.086   2.451  52.050  1.00  0.00     0.030 A 
HETATM   15  C11 UNL     1      21.073   3.537  51.913  1.00  0.00     0.037 A 
HETATM   16  C12 UNL     1      19.839   3.067  52.096  1.00  0.00     0.080 A 
HETATM   17  C14 UNL     1      19.945   1.559  52.377  1.00  0.00     0.226 A 
BRANCH  16  18
HETATM   18  O1  UNL     1      18.499   3.488  52.115  1.00  0.00    -0.357 OA
HETATM   19  C13 UNL     1      17.961   4.080  50.968  1.00  0.00     0.209 C 
ENDBRANCH  16  18
BRANCH  17  20
HETATM   20  O2  UNL     1      19.222   0.902  51.363  1.00  0.00    -0.378 OA
HETATM   21  C15 UNL     1      18.595  -0.241  51.848  1.00  0.00     0.203 C 
ENDBRANCH  17  20
ENDBRANCH  11  13
ENDBRANCH   7  11
BRANCH  10  22
HETATM   22  O3  UNL     1      27.294   2.071  51.753  1.00  0.00    -0.355 OA
HETATM   23  C19 UNL     1      26.727   2.941  50.829  1.00  0.00     0.210 C 
ENDBRANCH  10  22
BRANCH   1  24
HETATM   24  C2  UNL     1      28.854   1.021  53.732  1.00  0.00     0.037 C 
HETATM   25  C1  UNL     1      29.643  -0.255  53.618  1.00  0.00     0.010 C 
ENDBRANCH   1  24
TORSDOF 6
ENDMDL
MODEL 2
REMARK VINA RESULT:      -7.5      1.843      3.587
REMARK  6 active torsions:
REMARK  status: ('A' for Active; 'I' for Inactive)
REMARK    1  A    between atoms: C2_2  and  C3_3 
REMARK    2  A    between atoms: C8_9  and  N2_10 
REMARK    3  A    between atoms: N2_10  and  C9_11 
REMARK    4  A    between atoms: C12_14  and  O1_15 
REMARK    5  A    between atoms: C14_17  and  O2_18 
REMARK    6  A    between atoms: C18_22  and  O3_23 
ROOT
HETATM    1  C3  UNL     1      27.505   0.583  53.687  1.00  0.00    -0.023 A 
HETATM    2  C4  UNL     1      27.780   1.538  52.733  1.00  0.00     0.042 A 
HETATM    3  C5  UNL     1      26.716   1.964  51.945  1.00  0.00     0.069 A 
HETATM    4  N1  UNL     1      26.998   2.899  51.019  1.00  0.00    -0.260 NA
HETATM    5  C6  UNL     1      26.035   3.369  50.210  1.00  0.00     0.119 A 
HETATM    6  C7  UNL     1      24.719   2.888  50.322  1.00  0.00     0.049 A 
HETATM    7  C8  UNL     1      24.376   1.936  51.248  1.00  0.00     0.046 A 
HETATM    8  C16 UNL     1      25.402   1.491  52.051  1.00  0.00     0.022 A 
HETATM    9  C17 UNL     1      25.180   0.537  53.021  1.00  0.00     0.053 A 
HETATM   10  C18 UNL     1      26.213   0.076  53.839  1.00  0.00     0.075 A 
ENDROOT
BRANCH   7  11
HETATM   11  N2  UNL     1      23.072   1.466  51.327  1.00  0.00    -0.356 N 
HETATM   12  H9  UNL     1      23.142   0.435  51.169  1.00  0.00     0.166 HD
BRANCH  11  13
HETATM   13  C9  UNL     1      21.777   1.994  51.545  1.00  0.00     0.045 A 
HETATM   14  C10 UNL     1      21.176   0.864  51.975  1.00  0.00     0.030 A 
HETATM   15  C11 UNL     1      19.761   1.242  52.260  1.00  0.00     0.037 A 
HETATM   16  C12 UNL     1      19.549   2.532  52.008  1.00  0.00     0.080 A 
HETATM   17  C14 UNL     1      20.874   3.140  51.516  1.00  0.00     0.226 A 
BRANCH  16  18
HETATM   18  O1  UNL     1      18.534   3.503  52.042  1.00  0.00    -0.357 OA
HETATM   19  C13 UNL     1      18.149   4.120  50.847  1.00  0.00     0.209 C 
ENDBRANCH  16  18
BRANCH  17  20
HETATM   20  O2  UNL     1      21.217   4.161  52.423  1.00  0.00    -0.378 OA
HETATM   21  C15 UNL     1      22.056   5.101  51.834  1.00  0.00     0.203 C 
ENDBRANCH  17  20
ENDBRANCH  11  13
ENDBRANCH   7  11
BRANCH  10  22
HETATM   22  O3  UNL     1      26.016  -0.890  54.814  1.00  0.00    -0.355 OA
HETATM   23  C19 UNL     1      24.847  -1.167  55.515  1.00  0.00     0.210 C 
ENDBRANCH  10  22
BRANCH   1  24
HETATM   24  C2  UNL     1      28.559   0.076  54.605  1.00  0.00     0.037 C 
HETATM   25  C1  UNL     1      29.643  -0.601  53.809  1.00  0.00     0.010 C 
ENDBRANCH   1  24
TORSDOF 6
ENDMDL
MODEL 3
REMARK VINA RESULT:      -7.2      1.841      2.496
REMARK  6 active torsions:
REMARK  status: ('A' for Active; 'I' for Inactive)
REMARK    1  A    between atoms: C2_2  and  C3_3 
REMARK    2  A    between atoms: C8_9  and  N2_10 
REMARK    3  A    between atoms: N2_10  and  C9_11 
REMARK    4  A    between atoms: C12_14  and  O1_15 
REMARK    5  A    between atoms: C14_17  and  O2_18 
REMARK    6  A    between atoms: C18_22  and  O3_23 
ROOT
HETATM    1  C3  UNL     1      27.362   0.698  53.563  1.00  0.00    -0.023 A 
HETATM    2  C4  UNL     1      26.845  -0.044  54.602  1.00  0.00     0.042 A 
HETATM    3  C5  UNL     1      25.495  -0.368  54.533  1.00  0.00     0.069 A 
HETATM    4  N1  UNL     1      25.003  -1.095  55.554  1.00  0.00    -0.260 NA
HETATM    5  C6  UNL     1      23.710  -1.453  55.575  1.00  0.00     0.119 A 
HETATM    6  C7  UNL     1      22.853  -1.071  54.529  1.00  0.00     0.049 A 
HETATM    7  C8  UNL     1      23.299  -0.331  53.464  1.00  0.00     0.046 A 
HETATM    8  C16 UNL     1      24.634   0.008  53.494  1.00  0.00     0.022 A 
HETATM    9  C17 UNL     1      25.200   0.748  52.479  1.00  0.00     0.053 A 
HETATM   10  C18 UNL     1      26.551   1.099  52.499  1.00  0.00     0.075 A 
ENDROOT
BRANCH   7  11
HETATM   11  N2  UNL     1      22.427   0.048  52.452  1.00  0.00    -0.356 N 
HETATM   12  H9  UNL     1      21.702  -0.704  52.419  1.00  0.00     0.166 HD
BRANCH  11  13
HETATM   13  C9  UNL     1      22.291   1.112  51.528  1.00  0.00     0.045 A 
HETATM   14  C10 UNL     1      21.407   0.528  50.689  1.00  0.00     0.030 A 
HETATM   15  C11 UNL     1      21.140   1.533  49.620  1.00  0.00     0.037 A 
HETATM   16  C12 UNL     1      21.836   2.650  49.827  1.00  0.00     0.080 A 
HETATM   17  C14 UNL     1      22.655   2.463  51.116  1.00  0.00     0.226 A 
BRANCH  16  18
HETATM   18  O1  UNL     1      22.065   3.919  49.268  1.00  0.00    -0.357 OA
HETATM   19  C13 UNL     1      23.327   4.205  48.737  1.00  0.00     0.209 C 
ENDBRANCH  16  18
BRANCH  17  20
HETATM   20  O2  UNL     1      22.239   3.466  52.013  1.00  0.00    -0.378 OA
HETATM   21  C15 UNL     1      23.326   4.131  52.569  1.00  0.00     0.203 C 
ENDBRANCH  17  20
ENDBRANCH  11  13
ENDBRANCH   7  11
BRANCH  10  22
HETATM   22  O3  UNL     1      27.140   1.852  51.494  1.00  0.00    -0.355 OA
HETATM   23  C19 UNL     1      26.542   2.818  50.692  1.00  0.00     0.210 C 
ENDBRANCH  10  22
BRANCH   1  24
HETATM   24  C2  UNL     1      28.799   1.077  53.517  1.00  0.00     0.037 C 
HETATM   25  C1  UNL     1      29.652  -0.161  53.591  1.00  0.00     0.010 C 
ENDBRANCH   1  24
TORSDOF 6
ENDMDL
MODEL 4
REMARK VINA RESULT:      -7.2      2.385      3.580
REMARK  6 active torsions:
REMARK  status: ('A' for Active; 'I' for Inactive)
REMARK    1  A    between atoms: C2_2  and  C3_3 
REMARK    2  A    between atoms: C8_9  and  N2_10 
REMARK    3  A    between atoms: N2_10  and  C9_11 
REMARK    4  A    between atoms: C12_14  and  O1_15 
REMARK    5  A    between atoms: C14_17  and  O2_18 
REMARK    6  A    between atoms: C18_22  and  O3_23 
ROOT
HETATM    1  C3  UNL     1      26.857   0.699  53.932  1.00  0.00    -0.023 A 
HETATM    2  C4  UNL     1      26.485   2.023  53.861  1.00  0.00     0.042 A 
HETATM    3  C5  UNL     1      25.211   2.294  53.375  1.00  0.00     0.069 A 
HETATM    4  N1  UNL     1      24.860   3.592  53.313  1.00  0.00    -0.260 NA
HETATM    5  C6  UNL     1      23.651   3.950  52.854  1.00  0.00     0.119 A 
HETATM    6  C7  UNL     1      22.735   2.969  52.433  1.00  0.00     0.049 A 
HETATM    7  C8  UNL     1      23.040   1.633  52.475  1.00  0.00     0.046 A 
HETATM    8  C16 UNL     1      24.293   1.323  52.954  1.00  0.00     0.022 A 
HETATM    9  C17 UNL     1      24.713   0.014  53.047  1.00  0.00     0.053 A 
HETATM   10  C18 UNL     1      25.982  -0.311  53.529  1.00  0.00     0.075 A 
ENDROOT
BRANCH   7  11
HETATM   11  N2  UNL     1      22.123   0.686  52.037  1.00  0.00    -0.356 N 
HETATM   12  H9  UNL     1      22.555   0.260  51.186  1.00  0.00     0.166 HD
BRANCH  11  13
HETATM   13  C9  UNL     1      20.851   0.199  52.423  1.00  0.00     0.045 A 
HETATM   14  C10 UNL     1      20.208   0.383  51.250  1.00  0.00     0.030 A 
HETATM   15  C11 UNL     1      18.811  -0.089  51.477  1.00  0.00     0.037 A 
HETATM   16  C12 UNL     1      18.650  -0.527  52.725  1.00  0.00     0.080 A 
HETATM   17  C14 UNL     1      19.994  -0.376  53.455  1.00  0.00     0.226 A 
BRANCH  16  18
HETATM   18  O1  UNL     1      17.674  -1.072  53.577  1.00  0.00    -0.357 OA
HETATM   19  C13 UNL     1      16.965  -2.201  53.155  1.00  0.00     0.209 C 
ENDBRANCH  16  18
BRANCH  17  20
HETATM   20  O2  UNL     1      20.383  -1.666  53.867  1.00  0.00    -0.378 OA
HETATM   21  C15 UNL     1      21.561  -1.629  54.604  1.00  0.00     0.203 C 
ENDBRANCH  17  20
ENDBRANCH  11  13
ENDBRANCH   7  11
BRANCH  10  22
HETATM   22  O3  UNL     1      26.431  -1.621  53.621  1.00  0.00    -0.355 OA
HETATM   23  C19 UNL     1      27.091  -2.365  52.649  1.00  0.00     0.210 C 
ENDBRANCH  10  22
BRANCH   1  24
HETATM   24  C2  UNL     1      28.185   0.291  54.464  1.00  0.00     0.037 C 
HETATM   25  C1  UNL     1      29.260   0.653  53.474  1.00  0.00     0.010 C 
ENDBRANCH   1  24
TORSDOF 6
ENDMDL
MODEL 5
REMARK VINA RESULT:      -7.2      2.105      7.335
REMARK  6 active torsions:
REMARK  status: ('A' for Active; 'I' for Inactive)
REMARK    1  A    between atoms: C2_2  and  C3_3 
REMARK    2  A    between atoms: C8_9  and  N2_10 
REMARK    3  A    between atoms: N2_10  and  C9_11 
REMARK    4  A    between atoms: C12_14  and  O1_15 
REMARK    5  A    between atoms: C14_17  and  O2_18 
REMARK    6  A    between atoms: C18_22  and  O3_23 
ROOT
HETATM    1  C3  UNL     1      19.202   0.717  50.780  1.00  0.00    -0.023 A 
HETATM    2  C4  UNL     1      19.024  -0.049  51.912  1.00  0.00     0.042 A 
HETATM    3  C5  UNL     1      20.148  -0.280  52.697  1.00  0.00     0.069 A 
HETATM    4  N1  UNL     1      19.960  -1.028  53.801  1.00  0.00    -0.260 NA
HETATM    5  C6  UNL     1      20.987  -1.306  54.619  1.00  0.00     0.119 A 
HETATM    6  C7  UNL     1      22.273  -0.818  54.331  1.00  0.00     0.049 A 
HETATM    7  C8  UNL     1      22.522  -0.051  53.221  1.00  0.00     0.046 A 
HETATM    8  C16 UNL     1      21.433   0.203  52.418  1.00  0.00     0.022 A 
HETATM    9  C17 UNL     1      21.557   0.964  51.276  1.00  0.00     0.053 A 
HETATM   10  C18 UNL     1      20.460   1.227  50.453  1.00  0.00     0.075 A 
ENDROOT
BRANCH   7  11
HETATM   11  N2  UNL     1      23.806   0.404  52.950  1.00  0.00    -0.356 N 
HETATM   12  H9  UNL     1      23.677   1.342  52.510  1.00  0.00     0.166 HD
BRANCH  11  13
HETATM   13  C9  UNL     1      25.136  -0.054  53.108  1.00  0.00     0.045 A 
HETATM   14  C10 UNL     1      25.696   0.620  52.080  1.00  0.00     0.030 A 
HETATM   15  C11 UNL     1      27.141   0.248  52.091  1.00  0.00     0.037 A 
HETATM   16  C12 UNL     1      27.408  -0.604  53.080  1.00  0.00     0.080 A 
HETATM   17  C14 UNL     1      26.098  -0.871  53.840  1.00  0.00     0.226 A 
BRANCH  16  18
HETATM   18  O1  UNL     1      28.473  -1.325  53.648  1.00  0.00    -0.357 OA
HETATM   19  C13 UNL     1      29.745  -0.743  53.672  1.00  0.00     0.209 C 
ENDBRANCH  16  18
BRANCH  17  20
HETATM   20  O2  UNL     1      26.305  -0.455  55.170  1.00  0.00    -0.378 OA
HETATM   21  C15 UNL     1      25.287  -0.903  56.004  1.00  0.00     0.203 C 
ENDBRANCH  17  20
ENDBRANCH  11  13
ENDBRANCH   7  11
BRANCH  10  22
HETATM   22  O3  UNL     1      20.562   1.981  49.293  1.00  0.00    -0.355 OA
HETATM   23  C19 UNL     1      21.701   2.220  48.531  1.00  0.00     0.210 C 
ENDBRANCH  10  22
BRANCH   1  24
HETATM   24  C2  UNL     1      18.065   1.053  49.882  1.00  0.00     0.037 C 
HETATM   25  C1  UNL     1      17.020  -0.027  49.962  1.00  0.00     0.010 C 
ENDBRANCH   1  24
TORSDOF 6
ENDMDL
MODEL 6
REMARK VINA RESULT:      -7.1      2.739      5.421
REMARK  6 active torsions:
REMARK  status: ('A' for Active; 'I' for Inactive)
REMARK    1  A    between atoms: C2_2  and  C3_3 
REMARK    2  A    between atoms: C8_9  and  N2_10 
REMARK    3  A    between atoms: N2_10  and  C9_11 
REMARK    4  A    between atoms: C12_14  and  O1_15 
REMARK    5  A    between atoms: C14_17  and  O2_18 
REMARK    6  A    between atoms: C18_22  and  O3_23 
ROOT
HETATM    1  C3  UNL     1      23.247  -0.405  53.481  1.00  0.00    -0.023 A 
HETATM    2  C4  UNL     1      24.443  -0.454  54.163  1.00  0.00     0.042 A 
HETATM    3  C5  UNL     1      25.501   0.272  53.628  1.00  0.00     0.069 A 
HETATM    4  N1  UNL     1      26.663   0.217  54.305  1.00  0.00    -0.260 NA
HETATM    5  C6  UNL     1      27.742   0.884  53.864  1.00  0.00     0.119 A 
HETATM    6  C7  UNL     1      27.668   1.649  52.687  1.00  0.00     0.049 A 
HETATM    7  C8  UNL     1      26.510   1.740  51.958  1.00  0.00     0.046 A 
HETATM    8  C16 UNL     1      25.436   1.037  52.456  1.00  0.00     0.022 A 
HETATM    9  C17 UNL     1      24.218   1.053  51.813  1.00  0.00     0.053 A 
HETATM   10  C18 UNL     1      23.123   0.342  52.308  1.00  0.00     0.075 A 
ENDROOT
BRANCH   7  11
HETATM   11  N2  UNL     1      26.469   2.488  50.788  1.00  0.00    -0.356 N 
HETATM   12  H9  UNL     1      26.972   1.912  50.076  1.00  0.00     0.166 HD
BRANCH  11  13
HETATM   13  C9  UNL     1      25.960   3.737  50.359  1.00  0.00     0.045 A 
HETATM   14  C10 UNL     1      26.883   4.007  49.410  1.00  0.00     0.030 A 
HETATM   15  C11 UNL     1      26.496   5.328  48.834  1.00  0.00     0.037 A 
HETATM   16  C12 UNL     1      25.399   5.803  49.420  1.00  0.00     0.080 A 
HETATM   17  C14 UNL     1      24.949   4.783  50.479  1.00  0.00     0.226 A 
BRANCH  16  18
HETATM   18  O1  UNL     1      24.532   6.909  49.390  1.00  0.00    -0.357 OA
HETATM   19  C13 UNL     1      24.009   7.323  48.160  1.00  0.00     0.209 C 
ENDBRANCH  16  18
BRANCH  17  20
HETATM   20  O2  UNL     1      23.652   4.366  50.121  1.00  0.00    -0.378 OA
HETATM   21  C15 UNL     1      22.792   4.395  51.213  1.00  0.00     0.203 C 
ENDBRANCH  17  20
ENDBRANCH  11  13
ENDBRANCH   7  11
BRANCH  10  22
HETATM   22  O3  UNL     1      21.890   0.335  51.672  1.00  0.00    -0.355 OA
HETATM   23  C19 UNL     1      21.566   0.886  50.437  1.00  0.00     0.210 C 
ENDBRANCH  10  22
BRANCH   1  24
HETATM   24  C2  UNL     1      22.040  -1.119  53.976  1.00  0.00     0.037 C 
HETATM   25  C1  UNL     1      21.270  -0.226  54.911  1.00  0.00     0.010 C 
ENDBRANCH   1  24
TORSDOF 6
ENDMDL
MODEL 7
REMARK VINA RESULT:      -6.9      3.518      6.794
REMARK  6 active torsions:
REMARK  status: ('A' for Active; 'I' for Inactive)
REMARK    1  A    between atoms: C2_2  and  C3_3 
REMARK    2  A    between atoms: C8_9  and  N2_10 
REMARK    3  A    between atoms: N2_10  and  C9_11 
REMARK    4  A    between atoms: C12_14  and  O1_15 
REMARK    5  A    between atoms: C14_17  and  O2_18 
REMARK    6  A    between atoms: C18_22  and  O3_23 
ROOT
HETATM    1  C3  UNL     1      22.853   0.140  52.884  1.00  0.00    -0.023 A 
HETATM    2  C4  UNL     1      21.931   0.508  51.928  1.00  0.00     0.042 A 
HETATM    3  C5  UNL     1      22.352   1.420  50.968  1.00  0.00     0.069 A 
HETATM    4  N1  UNL     1      21.442   1.769  50.039  1.00  0.00    -0.260 NA
HETATM    5  C6  UNL     1      21.756   2.646  49.072  1.00  0.00     0.119 A 
HETATM    6  C7  UNL     1      23.043   3.210  49.020  1.00  0.00     0.049 A 
HETATM    7  C8  UNL     1      24.008   2.891  49.940  1.00  0.00     0.046 A 
HETATM    8  C16 UNL     1      23.631   1.987  50.908  1.00  0.00     0.022 A 
HETATM    9  C17 UNL     1      24.516   1.586  51.886  1.00  0.00     0.053 A 
HETATM   10  C18 UNL     1      24.144   0.671  52.873  1.00  0.00     0.075 A 
ENDROOT
BRANCH   7  11
HETATM   11  N2  UNL     1      25.266   3.477  49.876  1.00  0.00    -0.356 N 
HETATM   12  H9  UNL     1      25.914   2.783  50.312  1.00  0.00     0.166 HD
BRANCH  11  13
HETATM   13  C9  UNL     1      25.838   4.684  49.409  1.00  0.00     0.045 A 
HETATM   14  C10 UNL     1      27.058   4.206  49.081  1.00  0.00     0.030 A 
HETATM   15  C11 UNL     1      27.822   5.375  48.555  1.00  0.00     0.037 A 
HETATM   16  C12 UNL     1      27.080   6.481  48.576  1.00  0.00     0.080 A 
HETATM   17  C14 UNL     1      25.699   6.112  49.141  1.00  0.00     0.226 A 
BRANCH  16  18
HETATM   18  O1  UNL     1      27.143   7.848  48.258  1.00  0.00    -0.357 OA
HETATM   19  C13 UNL     1      27.482   8.223  46.954  1.00  0.00     0.209 C 
ENDBRANCH  16  18
BRANCH  17  20
HETATM   20  O2  UNL     1      24.754   6.416  48.142  1.00  0.00    -0.378 OA
HETATM   21  C15 UNL     1      23.570   6.893  48.693  1.00  0.00     0.203 C 
ENDBRANCH  17  20
ENDBRANCH  11  13
ENDBRANCH   7  11
BRANCH  10  22
HETATM   22  O3  UNL     1      25.013   0.261  53.874  1.00  0.00    -0.355 OA
HETATM   23  C19 UNL     1      26.272   0.771  54.169  1.00  0.00     0.210 C 
ENDBRANCH  10  22
BRANCH   1  24
HETATM   24  C2  UNL     1      22.522  -0.851  53.943  1.00  0.00     0.037 C 
HETATM   25  C1  UNL     1      21.357  -0.354  54.756  1.00  0.00     0.010 C 
ENDBRANCH   1  24
TORSDOF 6
ENDMDL
MODEL 8
REMARK VINA RESULT:      -6.9      2.798      3.932
REMARK  6 active torsions:
REMARK  status: ('A' for Active; 'I' for Inactive)
REMARK    1  A    between atoms: C2_2  and  C3_3 
REMARK    2  A    between atoms: C8_9  and  N2_10 
REMARK    3  A    between atoms: N2_10  and  C9_11 
REMARK    4  A    between atoms: C12_14  and  O1_15 
REMARK    5  A    between atoms: C14_17  and  O2_18 
REMARK    6  A    between atoms: C18_22  and  O3_23 
ROOT
HETATM    1  C3  UNL     1      26.955  -0.302  53.105  1.00  0.00    -0.023 A 
HETATM    2  C4  UNL     1      25.736  -0.934  53.221  1.00  0.00     0.042 A 
HETATM    3  C5  UNL     1      24.603  -0.136  53.116  1.00  0.00     0.069 A 
HETATM    4  N1  UNL     1      23.419  -0.766  53.229  1.00  0.00    -0.260 NA
HETATM    5  C6  UNL     1      22.269  -0.077  53.144  1.00  0.00     0.119 A 
HETATM    6  C7  UNL     1      22.291   1.313  52.936  1.00  0.00     0.049 A 
HETATM    7  C8  UNL     1      23.468   2.005  52.814  1.00  0.00     0.046 A 
HETATM    8  C16 UNL     1      24.616   1.249  52.908  1.00  0.00     0.022 A 
HETATM    9  C17 UNL     1      25.859   1.832  52.798  1.00  0.00     0.053 A 
HETATM   10  C18 UNL     1      27.029   1.076  52.894  1.00  0.00     0.075 A 
ENDROOT
BRANCH   7  11
HETATM   11  N2  UNL     1      23.462   3.382  52.626  1.00  0.00    -0.356 N 
HETATM   12  H9  UNL     1      23.660   3.788  53.568  1.00  0.00     0.166 HD
BRANCH  11  13
HETATM   13  C9  UNL     1      23.265   4.294  51.562  1.00  0.00     0.045 A 
HETATM   14  C10 UNL     1      22.245   5.000  52.098  1.00  0.00     0.030 A 
HETATM   15  C11 UNL     1      21.895   6.037  51.085  1.00  0.00     0.037 A 
HETATM   16  C12 UNL     1      22.675   5.939  50.009  1.00  0.00     0.080 A 
HETATM   17  C14 UNL     1      23.653   4.775  50.240  1.00  0.00     0.226 A 
BRANCH  16  18
HETATM   18  O1  UNL     1      22.895   6.538  48.757  1.00  0.00    -0.357 OA
HETATM   19  C13 UNL     1      23.001   7.931  48.684  1.00  0.00     0.209 C 
ENDBRANCH  16  18
BRANCH  17  20
HETATM   20  O2  UNL     1      24.952   5.316  50.188  1.00  0.00    -0.378 OA
HETATM   21  C15 UNL     1      25.904   4.327  49.967  1.00  0.00     0.203 C 
ENDBRANCH  17  20
ENDBRANCH  11  13
ENDBRANCH   7  11
BRANCH  10  22
HETATM   22  O3  UNL     1      28.292   1.642  52.798  1.00  0.00    -0.355 OA
HETATM   23  C19 UNL     1      28.913   2.497  53.702  1.00  0.00     0.210 C 
ENDBRANCH  10  22
BRANCH   1  24
HETATM   24  C2  UNL     1      28.233  -1.061  53.171  1.00  0.00     0.037 C 
HETATM   25  C1  UNL     1      27.984  -2.505  52.829  1.00  0.00     0.010 C 
ENDBRANCH   1  24
TORSDOF 6
ENDMDL
MODEL 9
REMARK VINA RESULT:      -6.6      1.988      6.938
REMARK  6 active torsions:
REMARK  status: ('A' for Active; 'I' for Inactive)
REMARK    1  A    between atoms: C2_2  and  C3_3 
REMARK    2  A    between atoms: C8_9  and  N2_10 
REMARK    3  A    between atoms: N2_10  and  C9_11 
REMARK    4  A    between atoms: C12_14  and  O1_15 
REMARK    5  A    between atoms: C14_17  and  O2_18 
REMARK    6  A    between atoms: C18_22  and  O3_23 
ROOT
HETATM    1  C3  UNL     1      20.107   1.306  50.940  1.00  0.00    -0.023 A 
HETATM    2  C4  UNL     1      19.833   0.896  52.227  1.00  0.00     0.042 A 
HETATM    3  C5  UNL     1      20.879   0.320  52.939  1.00  0.00     0.069 A 
HETATM    4  N1  UNL     1      20.599  -0.074  54.195  1.00  0.00    -0.260 NA
HETATM    5  C6  UNL     1      21.545  -0.642  54.959  1.00  0.00     0.119 A 
HETATM    6  C7  UNL     1      22.843  -0.832  54.453  1.00  0.00     0.049 A 
HETATM    7  C8  UNL     1      23.184  -0.449  53.181  1.00  0.00     0.046 A 
HETATM    8  C16 UNL     1      22.175   0.128  52.443  1.00  0.00     0.022 A 
HETATM    9  C17 UNL     1      22.398   0.556  51.152  1.00  0.00     0.053 A 
HETATM   10  C18 UNL     1      21.382   1.141  50.394  1.00  0.00     0.075 A 
ENDROOT
BRANCH   7  11
HETATM   11  N2  UNL     1      24.469  -0.665  52.700  1.00  0.00    -0.356 N 
HETATM   12  H9  UNL     1      24.399  -1.519  52.103  1.00  0.00     0.166 HD
BRANCH  11  13
HETATM   13  C9  UNL     1      25.746  -0.064  52.813  1.00  0.00     0.045 A 
HETATM   14  C10 UNL     1      26.474  -1.188  52.988  1.00  0.00     0.030 A 
HETATM   15  C11 UNL     1      27.889  -0.735  53.130  1.00  0.00     0.037 A 
HETATM   16  C12 UNL     1      27.978   0.591  53.042  1.00  0.00     0.080 A 
HETATM   17  C14 UNL     1      26.562   1.146  52.819  1.00  0.00     0.226 A 
BRANCH  16  18
HETATM   18  O1  UNL     1      28.923   1.630  53.084  1.00  0.00    -0.357 OA
HETATM   19  C13 UNL     1      29.350   2.104  54.329  1.00  0.00     0.209 C 
ENDBRANCH  16  18
BRANCH  17  20
HETATM   20  O2  UNL     1      26.579   1.829  51.588  1.00  0.00    -0.378 OA
HETATM   21  C15 UNL     1      25.436   2.604  51.423  1.00  0.00     0.203 C 
ENDBRANCH  17  20
ENDBRANCH  11  13
ENDBRANCH   7  11
BRANCH  10  22
HETATM   22  O3  UNL     1      21.579   1.570  49.089  1.00  0.00    -0.355 OA
HETATM   23  C19 UNL     1      22.543   2.454  48.620  1.00  0.00     0.210 C 
ENDBRANCH  10  22
BRANCH   1  24
HETATM   24  C2  UNL     1      19.072   1.960  50.096  1.00  0.00     0.037 C 
HETATM   25  C1  UNL     1      17.859   1.075  50.003  1.00  0.00     0.010 C 
ENDBRANCH   1  24
TORSDOF 6
ENDMDL
