MODEL 1
REMARK VINA RESULT:      -8.4      0.000      0.000
REMARK  2 active torsions:
REMARK  status: ('A' for Active; 'I' for Inactive)
REMARK    1  A    between atoms: C2_2  and  C3_4 
REMARK    2  A    between atoms: C12_15  and  C13_16 
ROOT
HETATM    1  C3  UNL     1      19.806   0.628  51.567  1.00  0.00     0.017 C 
HETATM    2  C4  UNL     1      20.100   0.592  50.284  1.00  0.00     0.016 C 
HETATM    3  C5  UNL     1      20.992   1.080  49.227  1.00  0.00     0.005 C 
HETATM    4  C6  UNL     1      22.053   1.912  49.012  1.00  0.00    -0.066 C 
HETATM    5  C7  UNL     1      22.624   2.034  47.658  1.00  0.00     0.045 C 
HETATM    6  C8  UNL     1      22.652   2.852  49.881  1.00  0.00     0.172 C 
HETATM    7  N1  UNL     1      23.917   2.835  50.478  1.00  0.00    -0.218 N 
HETATM    8  C9  UNL     1      23.894   1.845  51.530  1.00  0.00     0.723 A 
HETATM    9  N2  UNL     1      22.660   1.739  52.065  1.00  0.00    -0.062 NA
HETATM   10  C10 UNL     1      22.421   0.889  53.048  1.00  0.00     0.083 A 
HETATM   11  C11 UNL     1      23.364   0.059  53.606  1.00  0.00     0.061 A 
HETATM   12  C12 UNL     1      24.606   0.194  53.039  1.00  0.00     0.064 A 
HETATM   13  N4  UNL     1      24.860   1.052  52.041  1.00  0.00    -0.067 NA
HETATM   14  P1  UNL     1      20.701   1.485  52.968  1.00  0.00    -0.036 P 
HETATM   15  H11 UNL     1      24.853   3.237  50.474  1.00  0.00     0.178 HD
HETATM   16  H19 UNL     1      19.989   1.381  54.185  1.00  0.00     0.069 HD
ENDROOT
BRANCH  12  17
HETATM   17  C13 UNL     1      25.575  -0.700  53.654  1.00  0.00     0.067 A 
HETATM   18  C14 UNL     1      26.374  -0.017  54.726  1.00  0.00     0.004 A 
HETATM   19  C15 UNL     1      27.649   0.239  54.894  1.00  0.00     0.112 A 
HETATM   20  N3  UNL     1      28.524  -0.217  53.844  1.00  0.00    -0.277 NA
HETATM   21  C16 UNL     1      27.920  -0.820  52.872  1.00  0.00     0.090 A 
HETATM   22  C17 UNL     1      26.512  -1.170  52.562  1.00  0.00     0.061 A 
ENDBRANCH  12  17
BRANCH   1  23
HETATM   23  C2  UNL     1      18.649  -0.188  52.007  1.00  0.00     0.156 C 
HETATM   24  C1  UNL     1      17.364  -0.363  51.315  1.00  0.00     0.097 C 
HETATM   25  O1  UNL     1      18.740  -0.815  53.086  1.00  0.00    -0.293 OA
ENDBRANCH   1  23
TORSDOF 2
ENDMDL
MODEL 2
REMARK VINA RESULT:      -8.1      3.747      6.801
REMARK  2 active torsions:
REMARK  status: ('A' for Active; 'I' for Inactive)
REMARK    1  A    between atoms: C2_2  and  C3_4 
REMARK    2  A    between atoms: C12_15  and  C13_16 
ROOT
HETATM    1  C3  UNL     1      27.034  -0.237  53.347  1.00  0.00     0.017 C 
HETATM    2  C4  UNL     1      25.948  -0.952  53.135  1.00  0.00     0.016 C 
HETATM    3  C5  UNL     1      24.487  -0.938  53.013  1.00  0.00     0.005 C 
HETATM    4  C6  UNL     1      23.408  -0.104  53.086  1.00  0.00    -0.066 C 
HETATM    5  C7  UNL     1      22.055  -0.635  52.844  1.00  0.00     0.045 C 
HETATM    6  C8  UNL     1      23.335   1.238  53.524  1.00  0.00     0.172 C 
HETATM    7  N1  UNL     1      23.073   2.402  52.794  1.00  0.00    -0.218 N 
HETATM    8  C9  UNL     1      24.247   2.702  52.007  1.00  0.00     0.723 A 
HETATM    9  N2  UNL     1      25.366   2.280  52.632  1.00  0.00    -0.062 NA
HETATM   10  C10 UNL     1      26.554   2.460  52.083  1.00  0.00     0.083 A 
HETATM   11  C11 UNL     1      26.767   3.069  50.869  1.00  0.00     0.061 A 
HETATM   12  C12 UNL     1      25.609   3.485  50.263  1.00  0.00     0.064 A 
HETATM   13  N4  UNL     1      24.398   3.307  50.810  1.00  0.00    -0.067 NA
HETATM   14  P1  UNL     1      27.216   1.613  53.554  1.00  0.00    -0.036 P 
HETATM   15  H11 UNL     1      22.389   3.128  52.588  1.00  0.00     0.178 HD
HETATM   16  H19 UNL     1      28.541   1.973  53.890  1.00  0.00     0.069 HD
ENDROOT
BRANCH  12  17
HETATM   17  C13 UNL     1      25.874   4.123  48.983  1.00  0.00     0.067 A 
HETATM   18  C14 UNL     1      27.330   4.434  48.796  1.00  0.00     0.004 A 
HETATM   19  C15 UNL     1      28.014   5.539  48.621  1.00  0.00     0.112 A 
HETATM   20  N3  UNL     1      27.244   6.756  48.593  1.00  0.00    -0.277 NA
HETATM   21  C16 UNL     1      25.971   6.585  48.747  1.00  0.00     0.090 A 
HETATM   22  C17 UNL     1      25.083   5.414  48.950  1.00  0.00     0.061 A 
ENDBRANCH  12  17
BRANCH   1  23
HETATM   23  C2  UNL     1      28.323  -0.969  53.345  1.00  0.00     0.156 C 
HETATM   24  C1  UNL     1      29.670  -0.408  53.523  1.00  0.00     0.097 C 
HETATM   25  O1  UNL     1      28.301  -2.209  53.175  1.00  0.00    -0.293 OA
ENDBRANCH   1  23
TORSDOF 2
ENDMDL
MODEL 3
REMARK VINA RESULT:      -7.7      1.419      1.991
REMARK  2 active torsions:
REMARK  status: ('A' for Active; 'I' for Inactive)
REMARK    1  A    between atoms: C2_2  and  C3_4 
REMARK    2  A    between atoms: C12_15  and  C13_16 
ROOT
HETATM    1  C3  UNL     1      20.466   1.212  51.145  1.00  0.00     0.017 C 
HETATM    2  C4  UNL     1      20.533   1.149  49.831  1.00  0.00     0.016 C 
HETATM    3  C5  UNL     1      21.092   1.741  48.612  1.00  0.00     0.005 C 
HETATM    4  C6  UNL     1      21.881   2.767  48.176  1.00  0.00    -0.066 C 
HETATM    5  C7  UNL     1      22.165   2.911  46.737  1.00  0.00     0.045 C 
HETATM    6  C8  UNL     1      22.392   3.876  48.889  1.00  0.00     0.172 C 
HETATM    7  N1  UNL     1      23.711   4.180  49.241  1.00  0.00    -0.218 N 
HETATM    8  C9  UNL     1      24.098   3.288  50.309  1.00  0.00     0.723 A 
HETATM    9  N2  UNL     1      23.033   2.955  51.068  1.00  0.00    -0.062 NA
HETATM   10  C10 UNL     1      23.169   2.148  52.105  1.00  0.00     0.083 A 
HETATM   11  C11 UNL     1      24.359   1.587  52.504  1.00  0.00     0.061 A 
HETATM   12  C12 UNL     1      25.419   1.948  51.712  1.00  0.00     0.064 A 
HETATM   13  N4  UNL     1      25.293   2.765  50.657  1.00  0.00    -0.067 NA
HETATM   14  P1  UNL     1      21.372   2.345  52.327  1.00  0.00    -0.036 P 
HETATM   15  H11 UNL     1      24.515   4.775  49.049  1.00  0.00     0.178 HD
HETATM   16  H19 UNL     1      20.925   2.177  53.658  1.00  0.00     0.069 HD
ENDROOT
BRANCH  12  17
HETATM   17  C13 UNL     1      26.658   1.336  52.165  1.00  0.00     0.067 A 
HETATM   18  C14 UNL     1      26.626  -0.161  52.049  1.00  0.00     0.004 A 
HETATM   19  C15 UNL     1      26.721  -1.147  52.908  1.00  0.00     0.112 A 
HETATM   20  N3  UNL     1      26.898  -0.764  54.286  1.00  0.00    -0.277 NA
HETATM   21  C16 UNL     1      26.937   0.513  54.482  1.00  0.00     0.090 A 
HETATM   22  C17 UNL     1      26.845   1.716  53.619  1.00  0.00     0.061 A 
ENDBRANCH  12  17
BRANCH   1  23
HETATM   23  C2  UNL     1      19.621   0.198  51.818  1.00  0.00     0.156 C 
HETATM   24  C1  UNL     1      19.827  -0.401  53.144  1.00  0.00     0.097 C 
HETATM   25  O1  UNL     1      18.605  -0.221  51.218  1.00  0.00    -0.293 OA
ENDBRANCH   1  23
TORSDOF 2
ENDMDL
MODEL 4
REMARK VINA RESULT:      -7.6      3.020      7.006
REMARK  2 active torsions:
REMARK  status: ('A' for Active; 'I' for Inactive)
REMARK    1  A    between atoms: C2_2  and  C3_4 
REMARK    2  A    between atoms: C12_15  and  C13_16 
ROOT
HETATM    1  C3  UNL     1      25.549   3.154  51.132  1.00  0.00     0.017 C 
HETATM    2  C4  UNL     1      26.289   2.066  51.074  1.00  0.00     0.016 C 
HETATM    3  C5  UNL     1      26.538   0.735  51.635  1.00  0.00     0.005 C 
HETATM    4  C6  UNL     1      26.106  -0.124  52.605  1.00  0.00    -0.066 C 
HETATM    5  C7  UNL     1      26.734  -1.451  52.741  1.00  0.00     0.045 C 
HETATM    6  C8  UNL     1      25.202   0.099  53.668  1.00  0.00     0.172 C 
HETATM    7  N1  UNL     1      23.920  -0.421  53.874  1.00  0.00    -0.218 N 
HETATM    8  C9  UNL     1      23.025   0.234  52.947  1.00  0.00     0.723 A 
HETATM    9  N2  UNL     1      23.440   1.491  52.685  1.00  0.00    -0.062 NA
HETATM   10  C10 UNL     1      22.760   2.268  51.861  1.00  0.00     0.083 A 
HETATM   11  C11 UNL     1      21.606   1.895  51.213  1.00  0.00     0.061 A 
HETATM   12  C12 UNL     1      21.214   0.612  51.503  1.00  0.00     0.064 A 
HETATM   13  N4  UNL     1      21.897  -0.186  52.336  1.00  0.00    -0.067 NA
HETATM   14  P1  UNL     1      24.047   3.515  52.185  1.00  0.00    -0.036 P 
HETATM   15  H11 UNL     1      23.356  -1.078  54.411  1.00  0.00     0.178 HD
HETATM   16  H19 UNL     1      23.615   4.853  52.039  1.00  0.00     0.069 HD
ENDROOT
BRANCH  12  17
HETATM   17  C13 UNL     1      19.992   0.254  50.799  1.00  0.00     0.067 A 
HETATM   18  C14 UNL     1      19.557   1.323  49.839  1.00  0.00     0.004 A 
HETATM   19  C15 UNL     1      18.490   2.076  49.731  1.00  0.00     0.112 A 
HETATM   20  N3  UNL     1      17.474   1.872  50.733  1.00  0.00    -0.277 NA
HETATM   21  C16 UNL     1      17.764   0.965  51.608  1.00  0.00     0.090 A 
HETATM   22  C17 UNL     1      18.913   0.056  51.842  1.00  0.00     0.061 A 
ENDBRANCH  12  17
BRANCH   1  23
HETATM   23  C2  UNL     1      25.883   4.236  50.175  1.00  0.00     0.156 C 
HETATM   24  C1  UNL     1      26.953   4.240  49.167  1.00  0.00     0.097 C 
HETATM   25  O1  UNL     1      25.197   5.283  50.199  1.00  0.00    -0.293 OA
ENDBRANCH   1  23
TORSDOF 2
ENDMDL
MODEL 5
REMARK VINA RESULT:      -7.6      2.740      6.026
REMARK  2 active torsions:
REMARK  status: ('A' for Active; 'I' for Inactive)
REMARK    1  A    between atoms: C2_2  and  C3_4 
REMARK    2  A    between atoms: C12_15  and  C13_16 
ROOT
HETATM    1  C3  UNL     1      23.362  -0.644  53.747  1.00  0.00     0.017 C 
HETATM    2  C4  UNL     1      24.573  -0.603  54.265  1.00  0.00     0.016 C 
HETATM    3  C5  UNL     1      25.973  -0.223  54.055  1.00  0.00     0.005 C 
HETATM    4  C6  UNL     1      26.817   0.308  53.122  1.00  0.00    -0.066 C 
HETATM    5  C7  UNL     1      28.239   0.512  53.453  1.00  0.00     0.045 C 
HETATM    6  C8  UNL     1      26.589   0.584  51.754  1.00  0.00     0.172 C 
HETATM    7  N1  UNL     1      26.506   1.814  51.094  1.00  0.00    -0.218 N 
HETATM    8  C9  UNL     1      25.242   2.419  51.447  1.00  0.00     0.723 A 
HETATM    9  N2  UNL     1      24.307   1.475  51.686  1.00  0.00    -0.062 NA
HETATM   10  C10 UNL     1      23.076   1.815  52.023  1.00  0.00     0.083 A 
HETATM   11  C11 UNL     1      22.635   3.110  52.159  1.00  0.00     0.061 A 
HETATM   12  C12 UNL     1      23.611   4.041  51.908  1.00  0.00     0.064 A 
HETATM   13  N4  UNL     1      24.863   3.708  51.567  1.00  0.00    -0.067 NA
HETATM   14  P1  UNL     1      22.747   0.025  52.112  1.00  0.00    -0.036 P 
HETATM   15  H11 UNL     1      26.974   2.462  50.463  1.00  0.00     0.178 HD
HETATM   16  H19 UNL     1      21.401  -0.335  51.873  1.00  0.00     0.069 HD
ENDROOT
BRANCH  12  17
HETATM   17  C13 UNL     1      23.108   5.398  52.063  1.00  0.00     0.067 A 
HETATM   18  C14 UNL     1      21.736   5.564  51.477  1.00  0.00     0.004 A 
HETATM   19  C15 UNL     1      21.235   6.306  50.519  1.00  0.00     0.112 A 
HETATM   20  N3  UNL     1      22.165   7.177  49.847  1.00  0.00    -0.277 NA
HETATM   21  C16 UNL     1      23.378   7.101  50.288  1.00  0.00     0.090 A 
HETATM   22  C17 UNL     1      24.069   6.320  51.344  1.00  0.00     0.061 A 
ENDBRANCH  12  17
BRANCH   1  23
HETATM   23  C2  UNL     1      22.295  -1.226  54.595  1.00  0.00     0.156 C 
HETATM   24  C1  UNL     1      20.853  -1.270  54.313  1.00  0.00     0.097 C 
HETATM   25  O1  UNL     1      22.622  -1.751  55.683  1.00  0.00    -0.293 OA
ENDBRANCH   1  23
TORSDOF 2
ENDMDL
MODEL 6
REMARK VINA RESULT:      -7.5      3.063      6.884
REMARK  2 active torsions:
REMARK  status: ('A' for Active; 'I' for Inactive)
REMARK    1  A    between atoms: C2_2  and  C3_4 
REMARK    2  A    between atoms: C12_15  and  C13_16 
ROOT
HETATM    1  C3  UNL     1      25.445   0.542  53.825  1.00  0.00     0.017 C 
HETATM    2  C4  UNL     1      24.699  -0.526  54.021  1.00  0.00     0.016 C 
HETATM    3  C5  UNL     1      23.335  -1.052  54.133  1.00  0.00     0.005 C 
HETATM    4  C6  UNL     1      22.025  -0.666  54.112  1.00  0.00    -0.066 C 
HETATM    5  C7  UNL     1      20.962  -1.674  54.265  1.00  0.00     0.045 C 
HETATM    6  C8  UNL     1      21.470   0.634  54.117  1.00  0.00     0.172 C 
HETATM    7  N1  UNL     1      20.769   1.309  53.112  1.00  0.00    -0.218 N 
HETATM    8  C9  UNL     1      21.719   1.696  52.095  1.00  0.00     0.723 A 
HETATM    9  N2  UNL     1      22.935   1.926  52.635  1.00  0.00    -0.062 NA
HETATM   10  C10 UNL     1      23.951   2.296  51.877  1.00  0.00     0.083 A 
HETATM   11  C11 UNL     1      23.881   2.479  50.516  1.00  0.00     0.061 A 
HETATM   12  C12 UNL     1      22.632   2.237  50.002  1.00  0.00     0.064 A 
HETATM   13  N4  UNL     1      21.594   1.860  50.761  1.00  0.00    -0.067 NA
HETATM   14  P1  UNL     1      24.928   2.292  53.414  1.00  0.00    -0.036 P 
HETATM   15  H11 UNL     1      19.857   1.639  52.801  1.00  0.00     0.178 HD
HETATM   16  H19 UNL     1      26.033   3.175  53.407  1.00  0.00     0.069 HD
ENDROOT
BRANCH  12  17
HETATM   17  C13 UNL     1      22.598   2.440  48.562  1.00  0.00     0.067 A 
HETATM   18  C14 UNL     1      22.821   3.876  48.186  1.00  0.00     0.004 A 
HETATM   19  C15 UNL     1      22.107   4.779  47.559  1.00  0.00     0.112 A 
HETATM   20  N3  UNL     1      20.808   4.348  47.107  1.00  0.00    -0.277 NA
HETATM   21  C16 UNL     1      20.528   3.118  47.388  1.00  0.00     0.090 A 
HETATM   22  C17 UNL     1      21.230   2.008  48.078  1.00  0.00     0.061 A 
ENDBRANCH  12  17
BRANCH   1  23
HETATM   23  C2  UNL     1      26.913   0.341  53.846  1.00  0.00     0.156 C 
HETATM   24  C1  UNL     1      27.693  -0.632  53.068  1.00  0.00     0.097 C 
HETATM   25  O1  UNL     1      27.600   1.064  54.602  1.00  0.00    -0.293 OA
ENDBRANCH   1  23
TORSDOF 2
ENDMDL
MODEL 7
REMARK VINA RESULT:      -7.3      5.187      7.047
REMARK  2 active torsions:
REMARK  status: ('A' for Active; 'I' for Inactive)
REMARK    1  A    between atoms: C2_2  and  C3_4 
REMARK    2  A    between atoms: C12_15  and  C13_16 
ROOT
HETATM    1  C3  UNL     1      26.137   7.825  49.580  1.00  0.00     0.017 C 
HETATM    2  C4  UNL     1      25.052   8.141  50.257  1.00  0.00     0.016 C 
HETATM    3  C5  UNL     1      23.655   7.800  50.542  1.00  0.00     0.005 C 
HETATM    4  C6  UNL     1      22.671   6.915  50.204  1.00  0.00    -0.066 C 
HETATM    5  C7  UNL     1      21.349   7.008  50.850  1.00  0.00     0.045 C 
HETATM    6  C8  UNL     1      22.643   5.951  49.171  1.00  0.00     0.172 C 
HETATM    7  N1  UNL     1      22.650   4.555  49.253  1.00  0.00    -0.218 N 
HETATM    8  C9  UNL     1      23.983   4.143  49.628  1.00  0.00     0.723 A 
HETATM    9  N2  UNL     1      24.905   5.009  49.157  1.00  0.00    -0.062 NA
HETATM   10  C10 UNL     1      26.192   4.815  49.386  1.00  0.00     0.083 A 
HETATM   11  C11 UNL     1      26.706   3.757  50.097  1.00  0.00     0.061 A 
HETATM   12  C12 UNL     1      25.741   2.898  50.560  1.00  0.00     0.064 A 
HETATM   13  N4  UNL     1      24.433   3.085  50.335  1.00  0.00    -0.067 NA
HETATM   14  P1  UNL     1      26.454   6.362  48.459  1.00  0.00    -0.036 P 
HETATM   15  H11 UNL     1      22.098   3.705  49.157  1.00  0.00     0.178 HD
HETATM   16  H19 UNL     1      27.712   6.455  47.821  1.00  0.00     0.069 HD
ENDROOT
BRANCH  12  17
HETATM   17  C13 UNL     1      26.322   1.794  51.307  1.00  0.00     0.067 A 
HETATM   18  C14 UNL     1      25.321   1.128  52.205  1.00  0.00     0.004 A 
HETATM   19  C15 UNL     1      25.229   0.951  53.501  1.00  0.00     0.112 A 
HETATM   20  N3  UNL     1      26.306   1.498  54.287  1.00  0.00    -0.277 NA
HETATM   21  C16 UNL     1      27.220   2.094  53.594  1.00  0.00     0.090 A 
HETATM   22  C17 UNL     1      27.444   2.361  52.152  1.00  0.00     0.061 A 
ENDBRANCH  12  17
BRANCH   1  23
HETATM   23  C2  UNL     1      27.321   8.694  49.779  1.00  0.00     0.156 C 
HETATM   24  C1  UNL     1      28.614   8.617  49.084  1.00  0.00     0.097 C 
HETATM   25  O1  UNL     1      27.249   9.609  50.630  1.00  0.00    -0.293 OA
ENDBRANCH   1  23
TORSDOF 2
ENDMDL
MODEL 8
REMARK VINA RESULT:      -7.3      2.688      3.997
REMARK  2 active torsions:
REMARK  status: ('A' for Active; 'I' for Inactive)
REMARK    1  A    between atoms: C2_2  and  C3_4 
REMARK    2  A    between atoms: C12_15  and  C13_16 
ROOT
HETATM    1  C3  UNL     1      21.682   3.809  51.188  1.00  0.00     0.017 C 
HETATM    2  C4  UNL     1      20.748   3.307  51.969  1.00  0.00     0.016 C 
HETATM    3  C5  UNL     1      20.230   2.103  52.626  1.00  0.00     0.005 C 
HETATM    4  C6  UNL     1      20.460   0.763  52.757  1.00  0.00    -0.066 C 
HETATM    5  C7  UNL     1      19.584  -0.049  53.619  1.00  0.00     0.045 C 
HETATM    6  C8  UNL     1      21.361  -0.069  52.053  1.00  0.00     0.172 C 
HETATM    7  N1  UNL     1      22.512  -0.723  52.505  1.00  0.00    -0.218 N 
HETATM    8  C9  UNL     1      23.542   0.274  52.686  1.00  0.00     0.723 A 
HETATM    9  N2  UNL     1      23.385   1.292  51.813  1.00  0.00    -0.062 NA
HETATM   10  C10 UNL     1      24.226   2.311  51.807  1.00  0.00     0.083 A 
HETATM   11  C11 UNL     1      25.303   2.437  52.652  1.00  0.00     0.061 A 
HETATM   12  C12 UNL     1      25.431   1.385  53.524  1.00  0.00     0.064 A 
HETATM   13  N4  UNL     1      24.584   0.347  53.540  1.00  0.00    -0.067 NA
HETATM   14  P1  UNL     1      23.195   2.983  50.464  1.00  0.00    -0.036 P 
HETATM   15  H11 UNL     1      22.922  -1.618  52.762  1.00  0.00     0.178 HD
HETATM   16  H19 UNL     1      23.882   3.838  49.572  1.00  0.00     0.069 HD
ENDROOT
BRANCH  12  17
HETATM   17  C13 UNL     1      26.580   1.554  54.400  1.00  0.00     0.067 A 
HETATM   18  C14 UNL     1      27.743   2.189  53.694  1.00  0.00     0.004 A 
HETATM   19  C15 UNL     1      28.969   1.809  53.428  1.00  0.00     0.112 A 
HETATM   20  N3  UNL     1      29.335   0.496  53.896  1.00  0.00    -0.277 NA
HETATM   21  C16 UNL     1      28.390  -0.129  54.519  1.00  0.00     0.090 A 
HETATM   22  C17 UNL     1      26.985   0.177  54.884  1.00  0.00     0.061 A 
ENDBRANCH  12  17
BRANCH   1  23
HETATM   23  C2  UNL     1      21.590   5.258  50.889  1.00  0.00     0.156 C 
HETATM   24  C1  UNL     1      20.571   5.941  50.079  1.00  0.00     0.097 C 
HETATM   25  O1  UNL     1      22.464   6.018  51.363  1.00  0.00    -0.293 OA
ENDBRANCH   1  23
TORSDOF 2
ENDMDL
MODEL 9
REMARK VINA RESULT:      -7.3      2.002      2.359
REMARK  2 active torsions:
REMARK  status: ('A' for Active; 'I' for Inactive)
REMARK    1  A    between atoms: C2_2  and  C3_4 
REMARK    2  A    between atoms: C12_15  and  C13_16 
ROOT
HETATM    1  C3  UNL     1      20.235   2.760  50.350  1.00  0.00     0.017 C 
HETATM    2  C4  UNL     1      20.834   3.338  49.329  1.00  0.00     0.016 C 
HETATM    3  C5  UNL     1      21.934   4.205  48.897  1.00  0.00     0.005 C 
HETATM    4  C6  UNL     1      22.979   4.942  49.377  1.00  0.00    -0.066 C 
HETATM    5  C7  UNL     1      23.856   5.666  48.441  1.00  0.00     0.045 C 
HETATM    6  C8  UNL     1      23.308   5.274  50.711  1.00  0.00     0.172 C 
HETATM    7  N1  UNL     1      24.389   4.857  51.495  1.00  0.00    -0.218 N 
HETATM    8  C9  UNL     1      24.154   3.483  51.873  1.00  0.00     0.723 A 
HETATM    9  N2  UNL     1      22.832   3.232  51.982  1.00  0.00    -0.062 NA
HETATM   10  C10 UNL     1      22.398   2.032  52.323  1.00  0.00     0.083 A 
HETATM   11  C11 UNL     1      23.212   0.958  52.593  1.00  0.00     0.061 A 
HETATM   12  C12 UNL     1      24.548   1.249  52.474  1.00  0.00     0.064 A 
HETATM   13  N4  UNL     1      24.999   2.462  52.127  1.00  0.00    -0.067 NA
HETATM   14  P1  UNL     1      20.726   2.734  52.155  1.00  0.00    -0.036 P 
HETATM   15  H11 UNL     1      25.280   5.127  51.908  1.00  0.00     0.178 HD
HETATM   16  H19 UNL     1      19.744   2.104  52.954  1.00  0.00     0.069 HD
ENDROOT
BRANCH  12  17
HETATM   17  C13 UNL     1      25.376   0.089  52.766  1.00  0.00     0.067 A 
HETATM   18  C14 UNL     1      25.289  -0.320  54.208  1.00  0.00     0.004 A 
HETATM   19  C15 UNL     1      26.157  -0.411  55.187  1.00  0.00     0.112 A 
HETATM   20  N3  UNL     1      27.513  -0.051  54.858  1.00  0.00    -0.277 NA
HETATM   21  C16 UNL     1      27.684   0.317  53.631  1.00  0.00     0.090 A 
HETATM   22  C17 UNL     1      26.807   0.463  52.442  1.00  0.00     0.061 A 
ENDBRANCH  12  17
BRANCH   1  23
HETATM   23  C2  UNL     1      19.042   1.936  50.042  1.00  0.00     0.156 C 
HETATM   24  C1  UNL     1      18.696   0.621  50.600  1.00  0.00     0.097 C 
HETATM   25  O1  UNL     1      18.212   2.379  49.216  1.00  0.00    -0.293 OA
ENDBRANCH   1  23
TORSDOF 2
ENDMDL
