MODEL 1
REMARK VINA RESULT:      -8.3      0.000      0.000
REMARK  2 active torsions:
REMARK  status: ('A' for Active; 'I' for Inactive)
REMARK    1  A    between atoms: C4_5  and  N1_6 
REMARK    2  A    between atoms: C11_14  and  P1_15 
ROOT
HETATM    1  N1  UNL     1      26.363   0.740  52.566  1.00  0.00    -0.294 N 
HETATM    2  C5  UNL     1      27.060   1.782  51.816  1.00  0.00     0.202 C 
HETATM    3  C6  UNL     1      26.022   2.736  51.342  1.00  0.00     0.040 C 
HETATM    4  C7  UNL     1      26.417   3.399  50.294  1.00  0.00     0.007 C 
HETATM    5  C8  UNL     1      25.714   4.431  49.512  1.00  0.00     0.084 C 
HETATM    6  C9  UNL     1      24.757   5.237  50.341  1.00  0.00     0.019 C 
HETATM    7  N2  UNL     1      24.808   6.477  50.019  1.00  0.00    -0.293 NA
HETATM    8  C10 UNL     1      23.963   7.450  50.695  1.00  0.00     0.187 C 
HETATM    9  C11 UNL     1      22.578   6.903  50.639  1.00  0.00    -0.042 C 
HETATM   10  C12 UNL     1      22.506   5.631  51.018  1.00  0.00    -0.005 C 
HETATM   11  C13 UNL     1      23.774   4.965  51.427  1.00  0.00     0.076 C 
HETATM   12  C14 UNL     1      23.551   3.494  51.674  1.00  0.00     0.159 C 
HETATM   13  N3  UNL     1      24.774   2.841  52.018  1.00  0.00    -0.300 N 
HETATM   14  N4  UNL     1      24.695   2.185  53.275  1.00  0.00    -0.150 NA
HETATM   15  N5  UNL     1      25.098   0.850  53.158  1.00  0.00    -0.150 NA
HETATM   16  H16 UNL     1      23.681   2.143  53.553  1.00  0.00     0.168 HD
HETATM   17  H17 UNL     1      24.395   0.342  52.591  1.00  0.00     0.168 HD
ENDROOT
BRANCH   1  18
HETATM   18  C4  UNL     1      27.045  -0.504  52.700  1.00  0.00     0.050 A 
HETATM   19  C3  UNL     1      26.798  -1.789  52.415  1.00  0.00     0.031 A 
HETATM   20  C2  UNL     1      27.953  -2.606  52.819  1.00  0.00     0.042 A 
HETATM   21  C1  UNL     1      28.862  -1.784  53.336  1.00  0.00     0.118 A 
HETATM   22  F1  UNL     1      29.976  -2.427  53.746  1.00  0.00    -0.209 F 
HETATM   23  C15 UNL     1      28.386  -0.390  53.315  1.00  0.00     0.195 A 
HETATM   24 CL1  UNL     1      28.336   0.353  54.931  1.00  0.00    -0.111 Cl
ENDBRANCH   1  18
BRANCH   9  25
HETATM   25  P1  UNL     1      21.124   7.888  50.103  1.00  0.00    -0.109 P 
HETATM   26  H10 UNL     1      21.169   9.220  50.695  1.00  0.00     0.059 HD
HETATM   27  H11 UNL     1      19.970   7.239  50.750  1.00  0.00     0.059 HD
ENDBRANCH   9  25
TORSDOF 2
ENDMDL
MODEL 2
REMARK VINA RESULT:      -8.1      4.070      5.390
REMARK  2 active torsions:
REMARK  status: ('A' for Active; 'I' for Inactive)
REMARK    1  A    between atoms: C4_5  and  N1_6 
REMARK    2  A    between atoms: C11_14  and  P1_15 
ROOT
HETATM    1  N1  UNL     1      25.177   0.923  52.848  1.00  0.00    -0.294 N 
HETATM    2  C5  UNL     1      24.366  -0.126  53.461  1.00  0.00     0.202 C 
HETATM    3  C6  UNL     1      22.944   0.271  53.281  1.00  0.00     0.040 C 
HETATM    4  C7  UNL     1      22.170  -0.281  54.170  1.00  0.00     0.007 C 
HETATM    5  C8  UNL     1      20.714  -0.163  54.357  1.00  0.00     0.084 C 
HETATM    6  C9  UNL     1      19.981   0.078  53.069  1.00  0.00     0.019 C 
HETATM    7  N2  UNL     1      18.895  -0.602  53.029  1.00  0.00    -0.293 NA
HETATM    8  C10 UNL     1      18.019  -0.525  51.870  1.00  0.00     0.187 C 
HETATM    9  C11 UNL     1      17.794   0.926  51.618  1.00  0.00    -0.042 C 
HETATM   10  C12 UNL     1      18.919   1.633  51.608  1.00  0.00    -0.005 C 
HETATM   11  C13 UNL     1      20.192   0.896  51.842  1.00  0.00     0.076 C 
HETATM   12  C14 UNL     1      21.352   1.854  51.958  1.00  0.00     0.159 C 
HETATM   13  N3  UNL     1      22.568   1.156  52.232  1.00  0.00    -0.300 N 
HETATM   14  N4  UNL     1      23.566   1.416  51.255  1.00  0.00    -0.150 NA
HETATM   15  N5  UNL     1      24.754   1.830  51.867  1.00  0.00    -0.150 NA
HETATM   16  H16 UNL     1      23.249   2.241  50.683  1.00  0.00     0.168 HD
HETATM   17  H17 UNL     1      24.600   2.764  52.289  1.00  0.00     0.168 HD
ENDROOT
BRANCH   1  18
HETATM   18  C4  UNL     1      26.525   1.024  53.298  1.00  0.00     0.050 A 
HETATM   19  C3  UNL     1      27.431   1.997  53.460  1.00  0.00     0.031 A 
HETATM   20  C2  UNL     1      28.678   1.416  53.982  1.00  0.00     0.042 A 
HETATM   21  C1  UNL     1      28.483   0.107  54.118  1.00  0.00     0.118 A 
HETATM   22  F1  UNL     1      29.570  -0.536  54.593  1.00  0.00    -0.209 F 
HETATM   23  C15 UNL     1      27.120  -0.269  53.704  1.00  0.00     0.195 A 
HETATM   24 CL1  UNL     1      27.098  -1.473  52.394  1.00  0.00    -0.111 Cl
ENDBRANCH   1  18
BRANCH   9  25
HETATM   25  P1  UNL     1      16.131   1.658  51.349  1.00  0.00    -0.109 P 
HETATM   26  H10 UNL     1      15.605   1.253  50.050  1.00  0.00     0.059 HD
HETATM   27  H11 UNL     1      16.374   3.105  51.210  1.00  0.00     0.059 HD
ENDBRANCH   9  25
TORSDOF 2
ENDMDL
MODEL 3
REMARK VINA RESULT:      -8.0      1.777      2.116
REMARK  2 active torsions:
REMARK  status: ('A' for Active; 'I' for Inactive)
REMARK    1  A    between atoms: C4_5  and  N1_6 
REMARK    2  A    between atoms: C11_14  and  P1_15 
ROOT
HETATM    1  N1  UNL     1      26.106  -0.083  52.763  1.00  0.00    -0.294 N 
HETATM    2  C5  UNL     1      26.368   1.236  52.194  1.00  0.00     0.202 C 
HETATM    3  C6  UNL     1      25.076   1.730  51.645  1.00  0.00     0.040 C 
HETATM    4  C7  UNL     1      25.255   2.619  50.711  1.00  0.00     0.007 C 
HETATM    5  C8  UNL     1      24.263   3.358  49.910  1.00  0.00     0.084 C 
HETATM    6  C9  UNL     1      22.977   3.592  50.650  1.00  0.00     0.019 C 
HETATM    7  N2  UNL     1      22.532   4.773  50.425  1.00  0.00    -0.293 NA
HETATM    8  C10 UNL     1      21.292   5.222  51.041  1.00  0.00     0.187 C 
HETATM    9  C11 UNL     1      20.281   4.166  50.752  1.00  0.00    -0.042 C 
HETATM   10  C12 UNL     1      20.716   2.940  51.028  1.00  0.00    -0.005 C 
HETATM   11  C13 UNL     1      22.100   2.810  51.565  1.00  0.00     0.076 C 
HETATM   12  C14 UNL     1      22.497   1.359  51.676  1.00  0.00     0.159 C 
HETATM   13  N3  UNL     1      23.840   1.229  52.143  1.00  0.00    -0.300 N 
HETATM   14  N4  UNL     1      23.922   0.451  53.328  1.00  0.00    -0.150 NA
HETATM   15  N5  UNL     1      24.861  -0.576  53.176  1.00  0.00    -0.150 NA
HETATM   16  H16 UNL     1      22.999  -0.038  53.456  1.00  0.00     0.168 HD
HETATM   17  H17 UNL     1      24.499  -1.255  52.482  1.00  0.00     0.168 HD
ENDROOT
BRANCH   1  18
HETATM   18  C4  UNL     1      27.233  -0.943  52.906  1.00  0.00     0.050 A 
HETATM   19  C3  UNL     1      27.528  -2.221  52.631  1.00  0.00     0.031 A 
HETATM   20  C2  UNL     1      28.914  -2.496  53.040  1.00  0.00     0.042 A 
HETATM   21  C1  UNL     1      29.412  -1.373  53.549  1.00  0.00     0.118 A 
HETATM   22  F1  UNL     1      30.690  -1.507  53.961  1.00  0.00    -0.209 F 
HETATM   23  C15 UNL     1      28.412  -0.291  53.517  1.00  0.00     0.195 A 
HETATM   24 CL1  UNL     1      28.063   0.381  55.127  1.00  0.00    -0.111 Cl
ENDBRANCH   1  18
BRANCH   9  25
HETATM   25  P1  UNL     1      18.608   4.523  50.085  1.00  0.00    -0.109 P 
HETATM   26  H10 UNL     1      17.890   3.280  49.829  1.00  0.00     0.059 HD
HETATM   27  H11 UNL     1      18.849   5.089  48.747  1.00  0.00     0.059 HD
ENDBRANCH   9  25
TORSDOF 2
ENDMDL
MODEL 4
REMARK VINA RESULT:      -7.9      1.553      2.096
REMARK  2 active torsions:
REMARK  status: ('A' for Active; 'I' for Inactive)
REMARK    1  A    between atoms: C4_5  and  N1_6 
REMARK    2  A    between atoms: C11_14  and  P1_15 
ROOT
HETATM    1  N1  UNL     1      25.394   2.438  52.335  1.00  0.00    -0.294 N 
HETATM    2  C5  UNL     1      25.718   3.007  51.030  1.00  0.00     0.202 C 
HETATM    3  C6  UNL     1      24.615   3.943  50.684  1.00  0.00     0.040 C 
HETATM    4  C7  UNL     1      24.520   4.126  49.399  1.00  0.00     0.007 C 
HETATM    5  C8  UNL     1      23.580   4.963  48.633  1.00  0.00     0.084 C 
HETATM    6  C9  UNL     1      23.130   6.177  49.393  1.00  0.00     0.019 C 
HETATM    7  N2  UNL     1      23.079   7.202  48.626  1.00  0.00    -0.293 NA
HETATM    8  C10 UNL     1      22.666   8.496  49.149  1.00  0.00     0.187 C 
HETATM    9  C11 UNL     1      21.385   8.259  49.872  1.00  0.00    -0.042 C 
HETATM   10  C12 UNL     1      21.443   7.228  50.709  1.00  0.00    -0.005 C 
HETATM   11  C13 UNL     1      22.733   6.488  50.795  1.00  0.00     0.076 C 
HETATM   12  C14 UNL     1      22.589   5.261  51.660  1.00  0.00     0.159 C 
HETATM   13  N3  UNL     1      23.810   4.520  51.707  1.00  0.00    -0.300 N 
HETATM   14  N4  UNL     1      24.281   4.347  53.035  1.00  0.00    -0.150 NA
HETATM   15  N5  UNL     1      24.536   2.996  53.293  1.00  0.00    -0.150 NA
HETATM   16  H16 UNL     1      23.500   4.609  53.690  1.00  0.00     0.168 HD
HETATM   17  H17 UNL     1      23.635   2.485  53.303  1.00  0.00     0.168 HD
ENDROOT
BRANCH   1  18
HETATM   18  C4  UNL     1      26.015   1.196  52.655  1.00  0.00     0.050 A 
HETATM   19  C3  UNL     1      25.618  -0.031  53.016  1.00  0.00     0.031 A 
HETATM   20  C2  UNL     1      26.799  -0.888  53.202  1.00  0.00     0.042 A 
HETATM   21  C1  UNL     1      27.874  -0.147  52.947  1.00  0.00     0.118 A 
HETATM   22  F1  UNL     1      29.028  -0.834  53.088  1.00  0.00    -0.209 F 
HETATM   23  C15 UNL     1      27.493   1.228  52.581  1.00  0.00     0.195 A 
HETATM   24 CL1  UNL     1      28.204   2.457  53.653  1.00  0.00    -0.111 Cl
ENDBRANCH   1  18
BRANCH   9  25
HETATM   25  P1  UNL     1      19.884   9.288  49.631  1.00  0.00    -0.109 P 
HETATM   26  H10 UNL     1      19.267   8.989  48.343  1.00  0.00     0.059 HD
HETATM   27  H11 UNL     1      20.390  10.664  49.482  1.00  0.00     0.059 HD
ENDBRANCH   9  25
TORSDOF 2
ENDMDL
MODEL 5
REMARK VINA RESULT:      -7.7      4.350      5.663
REMARK  2 active torsions:
REMARK  status: ('A' for Active; 'I' for Inactive)
REMARK    1  A    between atoms: C4_5  and  N1_6 
REMARK    2  A    between atoms: C11_14  and  P1_15 
ROOT
HETATM    1  N1  UNL     1      23.779   4.623  51.233  1.00  0.00    -0.294 N 
HETATM    2  C5  UNL     1      25.040   4.342  50.553  1.00  0.00     0.202 C 
HETATM    3  C6  UNL     1      25.540   5.639  50.022  1.00  0.00     0.040 C 
HETATM    4  C7  UNL     1      26.348   5.471  49.016  1.00  0.00     0.007 C 
HETATM    5  C8  UNL     1      27.061   6.472  48.203  1.00  0.00     0.084 C 
HETATM    6  C9  UNL     1      27.401   7.713  48.976  1.00  0.00     0.019 C 
HETATM    7  N2  UNL     1      28.578   8.127  48.680  1.00  0.00    -0.293 NA
HETATM    8  C10 UNL     1      29.120   9.321  49.310  1.00  0.00     0.187 C 
HETATM    9  C11 UNL     1      28.084  10.380  49.149  1.00  0.00    -0.042 C 
HETATM   10  C12 UNL     1      26.868   9.977  49.500  1.00  0.00    -0.005 C 
HETATM   11  C13 UNL     1      26.725   8.575  49.986  1.00  0.00     0.076 C 
HETATM   12  C14 UNL     1      25.273   8.225  50.192  1.00  0.00     0.159 C 
HETATM   13  N3  UNL     1      25.127   6.867  50.611  1.00  0.00    -0.300 N 
HETATM   14  N4  UNL     1      24.439   6.759  51.848  1.00  0.00    -0.150 NA
HETATM   15  N5  UNL     1      23.368   5.865  51.736  1.00  0.00    -0.150 NA
HETATM   16  H16 UNL     1      23.997   7.693  52.053  1.00  0.00     0.168 HD
HETATM   17  H17 UNL     1      22.653   6.282  51.113  1.00  0.00     0.168 HD
ENDROOT
BRANCH   1  18
HETATM   18  C4  UNL     1      22.889   3.523  51.395  1.00  0.00     0.050 A 
HETATM   19  C3  UNL     1      21.569   3.311  51.303  1.00  0.00     0.031 A 
HETATM   20  C2  UNL     1      21.283   1.899  51.601  1.00  0.00     0.042 A 
HETATM   21  C1  UNL     1      22.443   1.303  51.864  1.00  0.00     0.118 A 
HETATM   22  F1  UNL     1      22.303  -0.008  52.155  1.00  0.00    -0.209 F 
HETATM   23  C15 UNL     1      23.561   2.257  51.762  1.00  0.00     0.195 A 
HETATM   24 CL1  UNL     1      24.499   2.393  53.268  1.00  0.00    -0.111 Cl
ENDBRANCH   1  18
BRANCH   9  25
HETATM   25  P1  UNL     1      28.455  12.068  48.527  1.00  0.00    -0.109 P 
HETATM   26  H10 UNL     1      29.877  12.197  48.230  1.00  0.00     0.059 HD
HETATM   27  H11 UNL     1      28.243  12.952  49.687  1.00  0.00     0.059 HD
ENDBRANCH   9  25
TORSDOF 2
ENDMDL
MODEL 6
REMARK VINA RESULT:      -7.7      3.616      4.436
REMARK  2 active torsions:
REMARK  status: ('A' for Active; 'I' for Inactive)
REMARK    1  A    between atoms: C4_5  and  N1_6 
REMARK    2  A    between atoms: C11_14  and  P1_15 
ROOT
HETATM    1  N1  UNL     1      25.346   0.885  53.022  1.00  0.00    -0.294 N 
HETATM    2  C5  UNL     1      24.920   1.922  52.086  1.00  0.00     0.202 C 
HETATM    3  C6  UNL     1      23.578   1.521  51.584  1.00  0.00     0.040 C 
HETATM    4  C7  UNL     1      23.313   2.059  50.428  1.00  0.00     0.007 C 
HETATM    5  C8  UNL     1      22.114   1.932  49.583  1.00  0.00     0.084 C 
HETATM    6  C9  UNL     1      20.862   1.705  50.380  1.00  0.00     0.019 C 
HETATM    7  N2  UNL     1      19.885   2.381  49.897  1.00  0.00    -0.293 NA
HETATM    8  C10 UNL     1      18.568   2.315  50.512  1.00  0.00     0.187 C 
HETATM    9  C11 UNL     1      18.248   0.867  50.648  1.00  0.00    -0.042 C 
HETATM   10  C12 UNL     1      19.235   0.164  51.194  1.00  0.00    -0.005 C 
HETATM   11  C13 UNL     1      20.472   0.903  51.573  1.00  0.00     0.076 C 
HETATM   12  C14 UNL     1      21.548  -0.051  52.028  1.00  0.00     0.159 C 
HETATM   13  N3  UNL     1      22.753   0.648  52.346  1.00  0.00    -0.300 N 
HETATM   14  N4  UNL     1      23.176   0.405  53.680  1.00  0.00    -0.150 NA
HETATM   15  N5  UNL     1      24.511  -0.012  53.702  1.00  0.00    -0.150 NA
HETATM   16  H16 UNL     1      22.626  -0.414  54.048  1.00  0.00     0.168 HD
HETATM   17  H17 UNL     1      24.571  -0.951  53.269  1.00  0.00     0.168 HD
ENDROOT
BRANCH   1  18
HETATM   18  C4  UNL     1      26.748   0.784  53.257  1.00  0.00     0.050 A 
HETATM   19  C3  UNL     1      27.793   1.620  53.304  1.00  0.00     0.031 A 
HETATM   20  C2  UNL     1      29.013   0.854  53.605  1.00  0.00     0.042 A 
HETATM   21  C1  UNL     1      28.662  -0.423  53.731  1.00  0.00     0.118 A 
HETATM   22  F1  UNL     1      29.709  -1.228  54.010  1.00  0.00    -0.209 F 
HETATM   23  C15 UNL     1      27.213  -0.595  53.526  1.00  0.00     0.195 A 
HETATM   24 CL1  UNL     1      26.826  -1.716  52.199  1.00  0.00    -0.111 Cl
ENDBRANCH   1  18
BRANCH   9  25
HETATM   25  P1  UNL     1      16.651   0.131  50.116  1.00  0.00    -0.109 P 
HETATM   26  H10 UNL     1      16.791  -1.312  49.949  1.00  0.00     0.059 HD
HETATM   27  H11 UNL     1      16.439   0.638  48.750  1.00  0.00     0.059 HD
ENDBRANCH   9  25
TORSDOF 2
ENDMDL
MODEL 7
REMARK VINA RESULT:      -7.6      4.987      7.242
REMARK  2 active torsions:
REMARK  status: ('A' for Active; 'I' for Inactive)
REMARK    1  A    between atoms: C4_5  and  N1_6 
REMARK    2  A    between atoms: C11_14  and  P1_15 
ROOT
HETATM    1  N1  UNL     1      24.890   5.630  49.443  1.00  0.00    -0.294 N 
HETATM    2  C5  UNL     1      23.687   5.012  48.892  1.00  0.00     0.202 C 
HETATM    3  C6  UNL     1      23.426   3.790  49.699  1.00  0.00     0.040 C 
HETATM    4  C7  UNL     1      22.720   2.916  49.040  1.00  0.00     0.007 C 
HETATM    5  C8  UNL     1      22.240   1.586  49.454  1.00  0.00     0.084 C 
HETATM    6  C9  UNL     1      21.984   1.495  50.931  1.00  0.00     0.019 C 
HETATM    7  N2  UNL     1      20.913   0.831  51.167  1.00  0.00    -0.293 NA
HETATM    8  C10 UNL     1      20.466   0.614  52.535  1.00  0.00     0.187 C 
HETATM    9  C11 UNL     1      21.644   0.080  53.274  1.00  0.00    -0.042 C 
HETATM   10  C12 UNL     1      22.750   0.790  53.075  1.00  0.00    -0.005 C 
HETATM   11  C13 UNL     1      22.651   1.972  52.174  1.00  0.00     0.076 C 
HETATM   12  C14 UNL     1      24.011   2.573  51.928  1.00  0.00     0.159 C 
HETATM   13  N3  UNL     1      23.929   3.678  51.026  1.00  0.00    -0.300 N 
HETATM   14  N4  UNL     1      24.455   4.870  51.589  1.00  0.00    -0.150 NA
HETATM   15  N5  UNL     1      25.403   5.441  50.733  1.00  0.00    -0.150 NA
HETATM   16  H16 UNL     1      24.990   4.607  52.457  1.00  0.00     0.168 HD
HETATM   17  H17 UNL     1      26.233   4.820  50.699  1.00  0.00     0.168 HD
ENDROOT
BRANCH   1  18
HETATM   18  C4  UNL     1      25.603   6.507  48.575  1.00  0.00     0.050 A 
HETATM   19  C3  UNL     1      25.300   7.391  47.616  1.00  0.00     0.031 A 
HETATM   20  C2  UNL     1      26.542   7.984  47.094  1.00  0.00     0.042 A 
HETATM   21  C1  UNL     1      27.556   7.437  47.759  1.00  0.00     0.118 A 
HETATM   22  F1  UNL     1      28.757   7.909  47.361  1.00  0.00    -0.209 F 
HETATM   23  C15 UNL     1      27.072   6.460  48.750  1.00  0.00     0.195 A 
HETATM   24 CL1  UNL     1      27.737   4.828  48.500  1.00  0.00    -0.111 Cl
ENDBRANCH   1  18
BRANCH   9  25
HETATM   25  P1  UNL     1      21.572  -1.408  54.349  1.00  0.00    -0.109 P 
HETATM   26  H10 UNL     1      21.093  -1.048  55.679  1.00  0.00     0.059 HD
HETATM   27  H11 UNL     1      22.979  -1.791  54.558  1.00  0.00     0.059 HD
ENDBRANCH   9  25
TORSDOF 2
ENDMDL
MODEL 8
REMARK VINA RESULT:      -7.6      2.487      3.369
REMARK  2 active torsions:
REMARK  status: ('A' for Active; 'I' for Inactive)
REMARK    1  A    between atoms: C4_5  and  N1_6 
REMARK    2  A    between atoms: C11_14  and  P1_15 
ROOT
HETATM    1  N1  UNL     1      26.634   2.534  51.895  1.00  0.00    -0.294 N 
HETATM    2  C5  UNL     1      25.230   2.196  52.108  1.00  0.00     0.202 C 
HETATM    3  C6  UNL     1      24.431   3.160  51.304  1.00  0.00     0.040 C 
HETATM    4  C7  UNL     1      23.222   3.294  51.769  1.00  0.00     0.007 C 
HETATM    5  C8  UNL     1      22.114   4.134  51.284  1.00  0.00     0.084 C 
HETATM    6  C9  UNL     1      22.155   4.351  49.799  1.00  0.00     0.019 C 
HETATM    7  N2  UNL     1      20.978   4.285  49.296  1.00  0.00    -0.293 NA
HETATM    8  C10 UNL     1      20.776   4.466  47.867  1.00  0.00     0.187 C 
HETATM    9  C11 UNL     1      21.482   5.728  47.506  1.00  0.00    -0.042 C 
HETATM   10  C12 UNL     1      22.721   5.785  47.981  1.00  0.00    -0.005 C 
HETATM   11  C13 UNL     1      23.204   4.621  48.776  1.00  0.00     0.076 C 
HETATM   12  C14 UNL     1      24.559   4.904  49.373  1.00  0.00     0.159 C 
HETATM   13  N3  UNL     1      25.006   3.811  50.176  1.00  0.00    -0.300 N 
HETATM   14  N4  UNL     1      26.257   3.302  49.741  1.00  0.00    -0.150 NA
HETATM   15  N5  UNL     1      27.161   3.244  50.808  1.00  0.00    -0.150 NA
HETATM   16  H16 UNL     1      26.671   3.998  49.068  1.00  0.00     0.168 HD
HETATM   17  H17 UNL     1      27.396   4.211  51.095  1.00  0.00     0.168 HD
ENDROOT
BRANCH   1  18
HETATM   18  C4  UNL     1      27.548   2.094  52.896  1.00  0.00     0.050 A 
HETATM   19  C3  UNL     1      28.673   2.552  53.462  1.00  0.00     0.031 A 
HETATM   20  C2  UNL     1      29.138   1.585  54.468  1.00  0.00     0.042 A 
HETATM   21  C1  UNL     1      28.276   0.572  54.477  1.00  0.00     0.118 A 
HETATM   22  F1  UNL     1      28.604  -0.386  55.370  1.00  0.00    -0.209 F 
HETATM   23  C15 UNL     1      27.198   0.788  53.497  1.00  0.00     0.195 A 
HETATM   24 CL1  UNL     1      27.087  -0.512  52.287  1.00  0.00    -0.111 Cl
ENDBRANCH   1  18
BRANCH   9  25
HETATM   25  P1  UNL     1      20.714   7.064  46.507  1.00  0.00    -0.109 P 
HETATM   26  H10 UNL     1      21.602   8.221  46.443  1.00  0.00     0.059 HD
HETATM   27  H11 UNL     1      19.570   7.526  47.311  1.00  0.00     0.059 HD
ENDBRANCH   9  25
TORSDOF 2
ENDMDL
MODEL 9
REMARK VINA RESULT:      -7.6      2.982      3.844
REMARK  2 active torsions:
REMARK  status: ('A' for Active; 'I' for Inactive)
REMARK    1  A    between atoms: C4_5  and  N1_6 
REMARK    2  A    between atoms: C11_14  and  P1_15 
ROOT
HETATM    1  N1  UNL     1      26.229   2.663  50.965  1.00  0.00    -0.294 N 
HETATM    2  C5  UNL     1      24.969   2.758  50.233  1.00  0.00     0.202 C 
HETATM    3  C6  UNL     1      24.859   4.161  49.750  1.00  0.00     0.040 C 
HETATM    4  C7  UNL     1      23.622   4.503  49.531  1.00  0.00     0.007 C 
HETATM    5  C8  UNL     1      23.068   5.781  49.054  1.00  0.00     0.084 C 
HETATM    6  C9  UNL     1      24.007   6.519  48.144  1.00  0.00     0.019 C 
HETATM    7  N2  UNL     1      23.372   7.045  47.163  1.00  0.00    -0.293 NA
HETATM    8  C10 UNL     1      24.083   7.811  46.151  1.00  0.00     0.187 C 
HETATM    9  C11 UNL     1      24.914   8.802  46.891  1.00  0.00    -0.042 C 
HETATM   10  C12 UNL     1      25.615   8.258  47.880  1.00  0.00    -0.005 C 
HETATM   11  C13 UNL     1      25.471   6.791  48.095  1.00  0.00     0.076 C 
HETATM   12  C14 UNL     1      26.200   6.358  49.342  1.00  0.00     0.159 C 
HETATM   13  N3  UNL     1      26.025   4.960  49.580  1.00  0.00    -0.300 N 
HETATM   14  N4  UNL     1      27.263   4.270  49.652  1.00  0.00    -0.150 NA
HETATM   15  N5  UNL     1      27.335   3.513  50.827  1.00  0.00    -0.150 NA
HETATM   16  H16 UNL     1      28.028   4.988  49.741  1.00  0.00     0.168 HD
HETATM   17  H17 UNL     1      27.388   4.161  51.634  1.00  0.00     0.168 HD
ENDROOT
BRANCH   1  18
HETATM   18  C4  UNL     1      26.333   1.599  51.907  1.00  0.00     0.050 A 
HETATM   19  C3  UNL     1      26.501   0.270  51.866  1.00  0.00     0.031 A 
HETATM   20  C2  UNL     1      26.525  -0.257  53.240  1.00  0.00     0.042 A 
HETATM   21  C1  UNL     1      26.372   0.773  54.066  1.00  0.00     0.118 A 
HETATM   22  F1  UNL     1      26.378   0.407  55.365  1.00  0.00    -0.209 F 
HETATM   23  C15 UNL     1      26.236   2.035  53.317  1.00  0.00     0.195 A 
HETATM   24 CL1  UNL     1      24.715   2.890  53.664  1.00  0.00    -0.111 Cl
ENDBRANCH   1  18
BRANCH   9  25
HETATM   25  P1  UNL     1      24.962  10.591  46.476  1.00  0.00    -0.109 P 
HETATM   26  H10 UNL     1      23.946  11.313  47.235  1.00  0.00     0.059 HD
HETATM   27  H11 UNL     1      24.498  10.666  45.080  1.00  0.00     0.059 HD
ENDBRANCH   9  25
TORSDOF 2
ENDMDL
