MODEL 1
REMARK VINA RESULT:      -7.4      0.000      0.000
REMARK  8 active torsions:
REMARK  status: ('A' for Active; 'I' for Inactive)
REMARK    1  A    between atoms: C1_2  and  C2_3 
REMARK       I    between atoms: C1_2  and  N2_13 
REMARK    2  A    between atoms: C2_3  and  C3_4 
REMARK    3  A    between atoms: C3_4  and  C4_5 
REMARK    4  A    between atoms: C4_5  and  C5_6 
REMARK    5  A    between atoms: N2_13  and  C11_14 
REMARK    6  A    between atoms: C11_14  and  C12_15 
REMARK    7  A    between atoms: C15_18  and  C16_19 
REMARK    8  A    between atoms: C16_19  and  O3_21 
ROOT
HETATM    1  O1  UNL     1      23.627   5.169  51.406  1.00  0.00    -0.274 OA
HETATM    2  C1  UNL     1      23.903   4.430  50.423  1.00  0.00     0.217 C 
HETATM    3  N2  UNL     1      22.925   3.369  50.483  1.00  0.00    -0.357 N 
HETATM    4  H11 UNL     1      22.835   2.550  49.816  1.00  0.00     0.162 HD
ENDROOT
BRANCH   3   5
HETATM    5  C11 UNL     1      21.975   3.483  51.603  1.00  0.00     0.161 C 
BRANCH   5   6
HETATM    6  C12 UNL     1      22.040   2.261  52.410  1.00  0.00    -0.040 A 
HETATM    7  C13 UNL     1      23.198   1.561  52.678  1.00  0.00     0.010 A 
HETATM    8  C14 UNL     1      23.231   0.412  53.440  1.00  0.00     0.019 A 
HETATM    9  C15 UNL     1      22.029  -0.037  53.947  1.00  0.00     0.037 A 
HETATM   10  C17 UNL     1      20.839   0.640  53.699  1.00  0.00     0.019 A 
HETATM   11  C18 UNL     1      20.835   1.796  52.927  1.00  0.00     0.010 A 
BRANCH   9  12
HETATM   12  C16 UNL     1      21.865  -1.229  54.772  1.00  0.00     0.176 C 
HETATM   13  O2  UNL     1      22.679  -1.818  55.529  1.00  0.00    -0.646 OA
BRANCH  12  14
HETATM   14  O3  UNL     1      20.607  -1.817  54.719  1.00  0.00    -0.773 OA
HETATM   15  H16 UNL     1      20.140  -2.211  55.524  1.00  0.00     0.167 HD
ENDBRANCH  12  14
ENDBRANCH   9  12
ENDBRANCH   5   6
ENDBRANCH   3   5
BRANCH   2  16
HETATM   16  C2  UNL     1      24.817   4.213  49.245  1.00  0.00     0.103 C 
BRANCH  16  17
HETATM   17  C3  UNL     1      26.199   4.020  49.770  1.00  0.00     0.013 C 
BRANCH  17  18
HETATM   18  C4  UNL     1      26.380   2.567  50.151  1.00  0.00     0.030 C 
BRANCH  18  19
HETATM   19  C5  UNL     1      26.791   2.556  51.578  1.00  0.00     0.005 C 
HETATM   20  C6  UNL     1      26.942   1.538  52.389  1.00  0.00     0.053 C 
HETATM   21  C7  UNL     1      26.710   0.165  51.978  1.00  0.00     0.031 C 
HETATM   22  N1  UNL     1      27.351   1.820  53.720  1.00  0.00    -0.247 NA
HETATM   23  C8  UNL     1      26.905  -0.751  52.914  1.00  0.00     0.005 C 
HETATM   24  C9  UNL     1      27.326  -0.345  54.254  1.00  0.00     0.034 C 
HETATM   25  C10 UNL     1      27.720   0.872  54.475  1.00  0.00     0.086 C 
ENDBRANCH  18  19
ENDBRANCH  17  18
ENDBRANCH  16  17
ENDBRANCH   2  16
TORSDOF 8
ENDMDL
MODEL 2
REMARK VINA RESULT:      -7.4      2.683      6.559
REMARK  8 active torsions:
REMARK  status: ('A' for Active; 'I' for Inactive)
REMARK    1  A    between atoms: C1_2  and  C2_3 
REMARK       I    between atoms: C1_2  and  N2_13 
REMARK    2  A    between atoms: C2_3  and  C3_4 
REMARK    3  A    between atoms: C3_4  and  C4_5 
REMARK    4  A    between atoms: C4_5  and  C5_6 
REMARK    5  A    between atoms: N2_13  and  C11_14 
REMARK    6  A    between atoms: C11_14  and  C12_15 
REMARK    7  A    between atoms: C15_18  and  C16_19 
REMARK    8  A    between atoms: C16_19  and  O3_21 
ROOT
HETATM    1  O1  UNL     1      23.111   1.997  50.280  1.00  0.00    -0.274 OA
HETATM    2  C1  UNL     1      23.462   2.424  51.412  1.00  0.00     0.217 C 
HETATM    3  N2  UNL     1      23.875   3.786  51.173  1.00  0.00    -0.357 N 
HETATM    4  H11 UNL     1      24.238   4.475  51.892  1.00  0.00     0.162 HD
ENDROOT
BRANCH   3   5
HETATM    5  C11 UNL     1      23.761   4.215  49.768  1.00  0.00     0.161 C 
BRANCH   5   6
HETATM    6  C12 UNL     1      25.040   4.788  49.339  1.00  0.00    -0.040 A 
HETATM    7  C13 UNL     1      25.212   6.089  48.913  1.00  0.00     0.010 A 
HETATM    8  C14 UNL     1      26.427   6.603  48.514  1.00  0.00     0.019 A 
HETATM    9  C15 UNL     1      27.510   5.748  48.552  1.00  0.00     0.037 A 
HETATM   10  C17 UNL     1      27.379   4.429  48.974  1.00  0.00     0.019 A 
HETATM   11  C18 UNL     1      26.141   3.937  49.371  1.00  0.00     0.010 A 
BRANCH   9  12
HETATM   12  C16 UNL     1      28.871   6.109  48.169  1.00  0.00     0.176 C 
HETATM   13  O2  UNL     1      29.302   6.712  47.153  1.00  0.00    -0.646 OA
BRANCH  12  14
HETATM   14  O3  UNL     1      29.860   5.728  49.068  1.00  0.00    -0.773 OA
HETATM   15  H16 UNL     1      30.010   6.180  49.959  1.00  0.00     0.167 HD
ENDBRANCH  12  14
ENDBRANCH   9  12
ENDBRANCH   5   6
ENDBRANCH   3   5
BRANCH   2  16
HETATM   16  C2  UNL     1      23.620   2.094  52.875  1.00  0.00     0.103 C 
BRANCH  16  17
HETATM   17  C3  UNL     1      23.045   0.738  53.100  1.00  0.00     0.013 C 
BRANCH  17  18
HETATM   18  C4  UNL     1      24.162  -0.281  53.064  1.00  0.00     0.030 C 
BRANCH  18  19
HETATM   19  C5  UNL     1      25.262   0.273  53.893  1.00  0.00     0.005 C 
HETATM   20  C6  UNL     1      26.535  -0.042  53.899  1.00  0.00     0.053 C 
HETATM   21  C7  UNL     1      27.097  -1.058  53.029  1.00  0.00     0.031 C 
HETATM   22  N1  UNL     1      27.374   0.658  54.807  1.00  0.00    -0.247 NA
HETATM   23  C8  UNL     1      28.400  -1.260  53.155  1.00  0.00     0.005 C 
HETATM   24  C9  UNL     1      29.166  -0.480  54.125  1.00  0.00     0.034 C 
HETATM   25  C10 UNL     1      28.633   0.552  54.704  1.00  0.00     0.086 C 
ENDBRANCH  18  19
ENDBRANCH  17  18
ENDBRANCH  16  17
ENDBRANCH   2  16
TORSDOF 8
ENDMDL
MODEL 3
REMARK VINA RESULT:      -7.2      2.987      6.757
REMARK  8 active torsions:
REMARK  status: ('A' for Active; 'I' for Inactive)
REMARK    1  A    between atoms: C1_2  and  C2_3 
REMARK       I    between atoms: C1_2  and  N2_13 
REMARK    2  A    between atoms: C2_3  and  C3_4 
REMARK    3  A    between atoms: C3_4  and  C4_5 
REMARK    4  A    between atoms: C4_5  and  C5_6 
REMARK    5  A    between atoms: N2_13  and  C11_14 
REMARK    6  A    between atoms: C11_14  and  C12_15 
REMARK    7  A    between atoms: C15_18  and  C16_19 
REMARK    8  A    between atoms: C16_19  and  O3_21 
ROOT
HETATM    1  O1  UNL     1      23.453   4.324  51.944  1.00  0.00    -0.274 OA
HETATM    2  C1  UNL     1      24.098   3.264  52.157  1.00  0.00     0.217 C 
HETATM    3  N2  UNL     1      24.561   2.854  50.853  1.00  0.00    -0.357 N 
HETATM    4  H11 UNL     1      25.144   1.998  50.625  1.00  0.00     0.162 HD
ENDROOT
BRANCH   3   5
HETATM    5  C11 UNL     1      24.156   3.752  49.757  1.00  0.00     0.161 C 
BRANCH   5   6
HETATM    6  C12 UNL     1      25.326   4.510  49.304  1.00  0.00    -0.040 A 
HETATM    7  C13 UNL     1      26.602   3.994  49.203  1.00  0.00     0.010 A 
HETATM    8  C14 UNL     1      27.686   4.729  48.774  1.00  0.00     0.019 A 
HETATM    9  C15 UNL     1      27.454   6.047  48.435  1.00  0.00     0.037 A 
HETATM   10  C17 UNL     1      26.183   6.605  48.524  1.00  0.00     0.019 A 
HETATM   11  C18 UNL     1      25.107   5.840  48.960  1.00  0.00     0.010 A 
BRANCH   9  12
HETATM   12  C16 UNL     1      28.472   6.979  47.962  1.00  0.00     0.176 C 
HETATM   13  O2  UNL     1      28.731   7.387  46.801  1.00  0.00    -0.646 OA
BRANCH  12  14
HETATM   14  O3  UNL     1      29.297   7.505  48.949  1.00  0.00    -0.773 OA
HETATM   15  H16 UNL     1      30.125   7.039  49.293  1.00  0.00     0.167 HD
ENDBRANCH  12  14
ENDBRANCH   9  12
ENDBRANCH   5   6
ENDBRANCH   3   5
BRANCH   2  16
HETATM   16  C2  UNL     1      24.568   2.278  53.196  1.00  0.00     0.103 C 
BRANCH  16  17
HETATM   17  C3  UNL     1      24.488   0.914  52.599  1.00  0.00     0.013 C 
BRANCH  17  18
HETATM   18  C4  UNL     1      24.694  -0.112  53.691  1.00  0.00     0.030 C 
BRANCH  18  19
HETATM   19  C5  UNL     1      25.855  -0.939  53.277  1.00  0.00     0.005 C 
HETATM   20  C6  UNL     1      27.131  -0.755  53.517  1.00  0.00     0.053 C 
HETATM   21  C7  UNL     1      27.632   0.373  54.282  1.00  0.00     0.031 C 
HETATM   22  N1  UNL     1      28.038  -1.715  52.994  1.00  0.00    -0.247 NA
HETATM   23  C8  UNL     1      28.947   0.417  54.437  1.00  0.00     0.005 C 
HETATM   24  C9  UNL     1      29.785  -0.627  53.853  1.00  0.00     0.034 C 
HETATM   25  C10 UNL     1      29.246  -1.708  53.375  1.00  0.00     0.086 C 
ENDBRANCH  18  19
ENDBRANCH  17  18
ENDBRANCH  16  17
ENDBRANCH   2  16
TORSDOF 8
ENDMDL
MODEL 4
REMARK VINA RESULT:      -7.2      2.853      5.532
REMARK  8 active torsions:
REMARK  status: ('A' for Active; 'I' for Inactive)
REMARK    1  A    between atoms: C1_2  and  C2_3 
REMARK       I    between atoms: C1_2  and  N2_13 
REMARK    2  A    between atoms: C2_3  and  C3_4 
REMARK    3  A    between atoms: C3_4  and  C4_5 
REMARK    4  A    between atoms: C4_5  and  C5_6 
REMARK    5  A    between atoms: N2_13  and  C11_14 
REMARK    6  A    between atoms: C11_14  and  C12_15 
REMARK    7  A    between atoms: C15_18  and  C16_19 
REMARK    8  A    between atoms: C16_19  and  O3_21 
ROOT
HETATM    1  O1  UNL     1      23.153   3.424  51.832  1.00  0.00    -0.274 OA
HETATM    2  C1  UNL     1      23.411   2.933  50.702  1.00  0.00     0.217 C 
HETATM    3  N2  UNL     1      24.757   2.425  50.826  1.00  0.00    -0.357 N 
HETATM    4  H11 UNL     1      25.323   1.937  50.075  1.00  0.00     0.162 HD
ENDROOT
BRANCH   3   5
HETATM    5  C11 UNL     1      25.361   2.632  52.154  1.00  0.00     0.161 C 
BRANCH   5   6
HETATM    6  C12 UNL     1      26.264   1.515  52.446  1.00  0.00    -0.040 A 
HETATM    7  C13 UNL     1      25.989   0.193  52.165  1.00  0.00     0.010 A 
HETATM    8  C14 UNL     1      26.857  -0.840  52.450  1.00  0.00     0.019 A 
HETATM    9  C15 UNL     1      28.054  -0.504  53.049  1.00  0.00     0.037 A 
HETATM   10  C17 UNL     1      28.369   0.817  53.349  1.00  0.00     0.019 A 
HETATM   11  C18 UNL     1      27.475   1.839  53.050  1.00  0.00     0.010 A 
BRANCH   9  12
HETATM   12  C16 UNL     1      29.094  -1.455  53.425  1.00  0.00     0.176 C 
HETATM   13  O2  UNL     1      29.093  -2.713  53.419  1.00  0.00    -0.646 OA
BRANCH  12  14
HETATM   14  O3  UNL     1      30.285  -0.888  53.863  1.00  0.00    -0.773 OA
HETATM   15  H16 UNL     1      30.742  -0.117  53.396  1.00  0.00     0.167 HD
ENDBRANCH  12  14
ENDBRANCH   9  12
ENDBRANCH   5   6
ENDBRANCH   3   5
BRANCH   2  16
HETATM   16  C2  UNL     1      22.894   2.668  49.310  1.00  0.00     0.103 C 
BRANCH  16  17
HETATM   17  C3  UNL     1      21.497   2.163  49.432  1.00  0.00     0.013 C 
BRANCH  17  18
HETATM   18  C4  UNL     1      21.534   0.733  49.924  1.00  0.00     0.030 C 
BRANCH  18  19
HETATM   19  C5  UNL     1      20.811   0.717  51.221  1.00  0.00     0.005 C 
HETATM   20  C6  UNL     1      21.199   0.244  52.380  1.00  0.00     0.053 C 
HETATM   21  C7  UNL     1      22.493  -0.384  52.579  1.00  0.00     0.031 C 
HETATM   22  N1  UNL     1      20.294   0.363  53.468  1.00  0.00    -0.247 NA
HETATM   23  C8  UNL     1      22.736  -0.811  53.809  1.00  0.00     0.005 C 
HETATM   24  C9  UNL     1      21.729  -0.635  54.853  1.00  0.00     0.034 C 
HETATM   25  C10 UNL     1      20.697   0.125  54.646  1.00  0.00     0.086 C 
ENDBRANCH  18  19
ENDBRANCH  17  18
ENDBRANCH  16  17
ENDBRANCH   2  16
TORSDOF 8
ENDMDL
MODEL 5
REMARK VINA RESULT:      -7.0      2.844      5.526
REMARK  8 active torsions:
REMARK  status: ('A' for Active; 'I' for Inactive)
REMARK    1  A    between atoms: C1_2  and  C2_3 
REMARK       I    between atoms: C1_2  and  N2_13 
REMARK    2  A    between atoms: C2_3  and  C3_4 
REMARK    3  A    between atoms: C3_4  and  C4_5 
REMARK    4  A    between atoms: C4_5  and  C5_6 
REMARK    5  A    between atoms: N2_13  and  C11_14 
REMARK    6  A    between atoms: C11_14  and  C12_15 
REMARK    7  A    between atoms: C15_18  and  C16_19 
REMARK    8  A    between atoms: C16_19  and  O3_21 
ROOT
HETATM    1  O1  UNL     1      22.390   1.288  50.878  1.00  0.00    -0.274 OA
HETATM    2  C1  UNL     1      22.154   2.106  51.806  1.00  0.00     0.217 C 
HETATM    3  N2  UNL     1      22.862   1.573  52.946  1.00  0.00    -0.357 N 
HETATM    4  H11 UNL     1      22.901   1.989  53.920  1.00  0.00     0.162 HD
ENDROOT
BRANCH   3   5
HETATM    5  C11 UNL     1      23.589   0.321  52.676  1.00  0.00     0.161 C 
BRANCH   5   6
HETATM    6  C12 UNL     1      25.006   0.514  52.993  1.00  0.00    -0.040 A 
HETATM    7  C13 UNL     1      25.963  -0.478  52.938  1.00  0.00     0.010 A 
HETATM    8  C14 UNL     1      27.292  -0.268  53.241  1.00  0.00     0.019 A 
HETATM    9  C15 UNL     1      27.654   1.009  53.618  1.00  0.00     0.037 A 
HETATM   10  C17 UNL     1      26.720   2.037  53.687  1.00  0.00     0.019 A 
HETATM   11  C18 UNL     1      25.386   1.798  53.375  1.00  0.00     0.010 A 
BRANCH   9  12
HETATM   12  C16 UNL     1      29.007   1.421  53.975  1.00  0.00     0.176 C 
HETATM   13  O2  UNL     1      29.410   2.368  54.698  1.00  0.00    -0.646 OA
BRANCH  12  14
HETATM   14  O3  UNL     1      30.025   0.645  53.433  1.00  0.00    -0.773 OA
HETATM   15  H16 UNL     1      30.019   0.301  52.483  1.00  0.00     0.167 HD
ENDBRANCH  12  14
ENDBRANCH   9  12
ENDBRANCH   5   6
ENDBRANCH   3   5
BRANCH   2  16
HETATM   16  C2  UNL     1      21.450   3.381  52.195  1.00  0.00     0.103 C 
BRANCH  16  17
HETATM   17  C3  UNL     1      22.283   4.524  51.723  1.00  0.00     0.013 C 
BRANCH  17  18
HETATM   18  C4  UNL     1      22.235   4.573  50.211  1.00  0.00     0.030 C 
BRANCH  18  19
HETATM   19  C5  UNL     1      23.420   5.355  49.779  1.00  0.00     0.005 C 
HETATM   20  C6  UNL     1      24.650   4.950  49.575  1.00  0.00     0.053 C 
HETATM   21  C7  UNL     1      25.064   3.571  49.756  1.00  0.00     0.031 C 
HETATM   22  N1  UNL     1      25.596   5.926  49.159  1.00  0.00    -0.247 NA
HETATM   23  C8  UNL     1      26.341   3.322  49.509  1.00  0.00     0.005 C 
HETATM   24  C9  UNL     1      27.226   4.406  49.087  1.00  0.00     0.034 C 
HETATM   25  C10 UNL     1      26.733   5.556  48.740  1.00  0.00     0.086 C 
ENDBRANCH  18  19
ENDBRANCH  17  18
ENDBRANCH  16  17
ENDBRANCH   2  16
TORSDOF 8
ENDMDL
MODEL 6
REMARK VINA RESULT:      -6.9      3.330      5.816
REMARK  8 active torsions:
REMARK  status: ('A' for Active; 'I' for Inactive)
REMARK    1  A    between atoms: C1_2  and  C2_3 
REMARK       I    between atoms: C1_2  and  N2_13 
REMARK    2  A    between atoms: C2_3  and  C3_4 
REMARK    3  A    between atoms: C3_4  and  C4_5 
REMARK    4  A    between atoms: C4_5  and  C5_6 
REMARK    5  A    between atoms: N2_13  and  C11_14 
REMARK    6  A    between atoms: C11_14  and  C12_15 
REMARK    7  A    between atoms: C15_18  and  C16_19 
REMARK    8  A    between atoms: C16_19  and  O3_21 
ROOT
HETATM    1  O1  UNL     1      23.836   4.164  52.424  1.00  0.00    -0.274 OA
HETATM    2  C1  UNL     1      23.717   3.485  51.370  1.00  0.00     0.217 C 
HETATM    3  N2  UNL     1      24.042   2.137  51.768  1.00  0.00    -0.357 N 
HETATM    4  H11 UNL     1      24.053   1.276  51.149  1.00  0.00     0.162 HD
ENDROOT
BRANCH   3   5
HETATM    5  C11 UNL     1      24.388   1.993  53.193  1.00  0.00     0.161 C 
BRANCH   5   6
HETATM    6  C12 UNL     1      25.633   1.228  53.308  1.00  0.00    -0.040 A 
HETATM    7  C13 UNL     1      26.779   1.687  53.922  1.00  0.00     0.010 A 
HETATM    8  C14 UNL     1      27.938   0.946  54.017  1.00  0.00     0.019 A 
HETATM    9  C15 UNL     1      27.922  -0.316  53.457  1.00  0.00     0.037 A 
HETATM   10  C17 UNL     1      26.786  -0.815  52.828  1.00  0.00     0.019 A 
HETATM   11  C18 UNL     1      25.630  -0.046  52.748  1.00  0.00     0.010 A 
BRANCH   9  12
HETATM   12  C16 UNL     1      29.048  -1.243  53.458  1.00  0.00     0.176 C 
HETATM   13  O2  UNL     1      30.283  -1.030  53.563  1.00  0.00    -0.646 OA
BRANCH  12  14
HETATM   14  O3  UNL     1      28.711  -2.584  53.318  1.00  0.00    -0.773 OA
HETATM   15  H16 UNL     1      29.348  -3.287  52.971  1.00  0.00     0.167 HD
ENDBRANCH  12  14
ENDBRANCH   9  12
ENDBRANCH   5   6
ENDBRANCH   3   5
BRANCH   2  16
HETATM   16  C2  UNL     1      23.382   3.514  49.900  1.00  0.00     0.103 C 
BRANCH  16  17
HETATM   17  C3  UNL     1      24.665   3.508  49.140  1.00  0.00     0.013 C 
BRANCH  17  18
HETATM   18  C4  UNL     1      25.382   4.818  49.380  1.00  0.00     0.030 C 
BRANCH  18  19
HETATM   19  C5  UNL     1      26.810   4.580  49.051  1.00  0.00     0.005 C 
HETATM   20  C6  UNL     1      27.691   5.404  48.537  1.00  0.00     0.053 C 
HETATM   21  C7  UNL     1      27.372   6.775  48.184  1.00  0.00     0.031 C 
HETATM   22  N1  UNL     1      29.004   4.905  48.325  1.00  0.00    -0.247 NA
HETATM   23  C8  UNL     1      28.370   7.480  47.674  1.00  0.00     0.005 C 
HETATM   24  C9  UNL     1      29.683   6.862  47.500  1.00  0.00     0.034 C 
HETATM   25  C10 UNL     1      29.940   5.709  48.039  1.00  0.00     0.086 C 
ENDBRANCH  18  19
ENDBRANCH  17  18
ENDBRANCH  16  17
ENDBRANCH   2  16
TORSDOF 8
ENDMDL
MODEL 7
REMARK VINA RESULT:      -6.9      2.610      5.021
REMARK  8 active torsions:
REMARK  status: ('A' for Active; 'I' for Inactive)
REMARK    1  A    between atoms: C1_2  and  C2_3 
REMARK       I    between atoms: C1_2  and  N2_13 
REMARK    2  A    between atoms: C2_3  and  C3_4 
REMARK    3  A    between atoms: C3_4  and  C4_5 
REMARK    4  A    between atoms: C4_5  and  C5_6 
REMARK    5  A    between atoms: N2_13  and  C11_14 
REMARK    6  A    between atoms: C11_14  and  C12_15 
REMARK    7  A    between atoms: C15_18  and  C16_19 
REMARK    8  A    between atoms: C16_19  and  O3_21 
ROOT
HETATM    1  O1  UNL     1      21.899   4.473  51.843  1.00  0.00    -0.274 OA
HETATM    2  C1  UNL     1      21.875   3.653  50.888  1.00  0.00     0.217 C 
HETATM    3  N2  UNL     1      23.206   3.096  50.854  1.00  0.00    -0.357 N 
HETATM    4  H11 UNL     1      23.572   2.365  50.179  1.00  0.00     0.162 HD
ENDROOT
BRANCH   3   5
HETATM    5  C11 UNL     1      24.113   3.632  51.885  1.00  0.00     0.161 C 
BRANCH   5   6
HETATM    6  C12 UNL     1      25.030   2.571  52.312  1.00  0.00    -0.040 A 
HETATM    7  C13 UNL     1      25.635   1.671  51.460  1.00  0.00     0.010 A 
HETATM    8  C14 UNL     1      26.495   0.681  51.888  1.00  0.00     0.019 A 
HETATM    9  C15 UNL     1      26.743   0.612  53.244  1.00  0.00     0.037 A 
HETATM   10  C17 UNL     1      26.152   1.501  54.136  1.00  0.00     0.019 A 
HETATM   11  C18 UNL     1      25.289   2.489  53.676  1.00  0.00     0.010 A 
BRANCH   9  12
HETATM   12  C16 UNL     1      27.621  -0.364  53.882  1.00  0.00     0.176 C 
HETATM   13  O2  UNL     1      28.338  -0.268  54.910  1.00  0.00    -0.646 OA
BRANCH  12  14
HETATM   14  O3  UNL     1      27.680  -1.604  53.258  1.00  0.00    -0.773 OA
HETATM   15  H16 UNL     1      28.186  -2.394  53.632  1.00  0.00     0.167 HD
ENDBRANCH  12  14
ENDBRANCH   9  12
ENDBRANCH   5   6
ENDBRANCH   3   5
BRANCH   2  16
HETATM   16  C2  UNL     1      21.038   3.036  49.795  1.00  0.00     0.103 C 
BRANCH  16  17
HETATM   17  C3  UNL     1      19.861   2.385  50.436  1.00  0.00     0.013 C 
BRANCH  17  18
HETATM   18  C4  UNL     1      20.070   0.886  50.438  1.00  0.00     0.030 C 
BRANCH  18  19
HETATM   19  C5  UNL     1      19.965   0.449  51.852  1.00  0.00     0.005 C 
HETATM   20  C6  UNL     1      20.906   0.027  52.662  1.00  0.00     0.053 C 
HETATM   21  C7  UNL     1      22.296  -0.083  52.261  1.00  0.00     0.031 C 
HETATM   22  N1  UNL     1      20.518  -0.331  53.981  1.00  0.00    -0.247 NA
HETATM   23  C8  UNL     1      23.126  -0.526  53.193  1.00  0.00     0.005 C 
HETATM   24  C9  UNL     1      22.615  -0.865  54.520  1.00  0.00     0.034 C 
HETATM   25  C10 UNL     1      21.407  -0.533  54.861  1.00  0.00     0.086 C 
ENDBRANCH  18  19
ENDBRANCH  17  18
ENDBRANCH  16  17
ENDBRANCH   2  16
TORSDOF 8
ENDMDL
MODEL 8
REMARK VINA RESULT:      -6.8      1.968      4.441
REMARK  8 active torsions:
REMARK  status: ('A' for Active; 'I' for Inactive)
REMARK    1  A    between atoms: C1_2  and  C2_3 
REMARK       I    between atoms: C1_2  and  N2_13 
REMARK    2  A    between atoms: C2_3  and  C3_4 
REMARK    3  A    between atoms: C3_4  and  C4_5 
REMARK    4  A    between atoms: C4_5  and  C5_6 
REMARK    5  A    between atoms: N2_13  and  C11_14 
REMARK    6  A    between atoms: C11_14  and  C12_15 
REMARK    7  A    between atoms: C15_18  and  C16_19 
REMARK    8  A    between atoms: C16_19  and  O3_21 
ROOT
HETATM    1  O1  UNL     1      26.911   2.857  49.366  1.00  0.00    -0.274 OA
HETATM    2  C1  UNL     1      26.311   3.879  49.793  1.00  0.00     0.217 C 
HETATM    3  N2  UNL     1      26.085   3.608  51.193  1.00  0.00    -0.357 N 
HETATM    4  H11 UNL     1      25.602   4.241  51.893  1.00  0.00     0.162 HD
ENDROOT
BRANCH   3   5
HETATM    5  C11 UNL     1      26.597   2.303  51.647  1.00  0.00     0.161 C 
BRANCH   5   6
HETATM    6  C12 UNL     1      25.504   1.551  52.269  1.00  0.00    -0.040 A 
HETATM    7  C13 UNL     1      25.575   0.223  52.633  1.00  0.00     0.010 A 
HETATM    8  C14 UNL     1      24.531  -0.462  53.217  1.00  0.00     0.019 A 
HETATM    9  C15 UNL     1      23.365   0.244  53.436  1.00  0.00     0.037 A 
HETATM   10  C17 UNL     1      23.252   1.585  53.083  1.00  0.00     0.019 A 
HETATM   11  C18 UNL     1      24.322   2.250  52.495  1.00  0.00     0.010 A 
BRANCH   9  12
HETATM   12  C16 UNL     1      22.157  -0.308  54.040  1.00  0.00     0.176 C 
HETATM   13  O2  UNL     1      21.290   0.232  54.774  1.00  0.00    -0.646 OA
BRANCH  12  14
HETATM   14  O3  UNL     1      21.917  -1.649  53.766  1.00  0.00    -0.773 OA
HETATM   15  H16 UNL     1      22.244  -2.406  54.350  1.00  0.00     0.167 HD
ENDBRANCH  12  14
ENDBRANCH   9  12
ENDBRANCH   5   6
ENDBRANCH   3   5
BRANCH   2  16
HETATM   16  C2  UNL     1      25.749   5.233  49.441  1.00  0.00     0.103 C 
BRANCH  16  17
HETATM   17  C3  UNL     1      24.348   5.291  49.948  1.00  0.00     0.013 C 
BRANCH  17  18
HETATM   18  C4  UNL     1      23.468   4.449  49.051  1.00  0.00     0.030 C 
BRANCH  18  19
HETATM   19  C5  UNL     1      22.241   4.147  49.831  1.00  0.00     0.005 C 
HETATM   20  C6  UNL     1      21.682   2.988  50.081  1.00  0.00     0.053 C 
HETATM   21  C7  UNL     1      22.223   1.733  49.592  1.00  0.00     0.031 C 
HETATM   22  N1  UNL     1      20.497   2.992  50.865  1.00  0.00    -0.247 NA
HETATM   23  C8  UNL     1      21.542   0.648  49.930  1.00  0.00     0.005 C 
HETATM   24  C9  UNL     1      20.334   0.771  50.742  1.00  0.00     0.034 C 
HETATM   25  C10 UNL     1      20.043   1.899  51.316  1.00  0.00     0.086 C 
ENDBRANCH  18  19
ENDBRANCH  17  18
ENDBRANCH  16  17
ENDBRANCH   2  16
TORSDOF 8
ENDMDL
MODEL 9
REMARK VINA RESULT:      -6.8      1.920      4.415
REMARK  8 active torsions:
REMARK  status: ('A' for Active; 'I' for Inactive)
REMARK    1  A    between atoms: C1_2  and  C2_3 
REMARK       I    between atoms: C1_2  and  N2_13 
REMARK    2  A    between atoms: C2_3  and  C3_4 
REMARK    3  A    between atoms: C3_4  and  C4_5 
REMARK    4  A    between atoms: C4_5  and  C5_6 
REMARK    5  A    between atoms: N2_13  and  C11_14 
REMARK    6  A    between atoms: C11_14  and  C12_15 
REMARK    7  A    between atoms: C15_18  and  C16_19 
REMARK    8  A    between atoms: C16_19  and  O3_21 
ROOT
HETATM    1  O1  UNL     1      25.320   4.072  48.960  1.00  0.00    -0.274 OA
HETATM    2  C1  UNL     1      25.199   4.832  49.957  1.00  0.00     0.217 C 
HETATM    3  N2  UNL     1      25.842   4.119  51.035  1.00  0.00    -0.357 N 
HETATM    4  H11 UNL     1      25.943   4.443  52.039  1.00  0.00     0.162 HD
ENDROOT
BRANCH   3   5
HETATM    5  C11 UNL     1      26.400   2.811  50.648  1.00  0.00     0.161 C 
BRANCH   5   6
HETATM    6  C12 UNL     1      26.001   1.810  51.641  1.00  0.00    -0.040 A 
HETATM    7  C13 UNL     1      26.566   0.557  51.759  1.00  0.00     0.010 A 
HETATM    8  C14 UNL     1      26.171  -0.367  52.703  1.00  0.00     0.019 A 
HETATM    9  C15 UNL     1      25.156   0.007  53.560  1.00  0.00     0.037 A 
HETATM   10  C17 UNL     1      24.559   1.261  53.473  1.00  0.00     0.019 A 
HETATM   11  C18 UNL     1      24.977   2.174  52.511  1.00  0.00     0.010 A 
BRANCH   9  12
HETATM   12  C16 UNL     1      24.605  -0.833  54.618  1.00  0.00     0.176 C 
HETATM   13  O2  UNL     1      25.180  -1.474  55.535  1.00  0.00    -0.646 OA
BRANCH  12  14
HETATM   14  O3  UNL     1      23.221  -0.948  54.622  1.00  0.00    -0.773 OA
HETATM   15  H16 UNL     1      22.688  -1.314  53.845  1.00  0.00     0.167 HD
ENDBRANCH  12  14
ENDBRANCH   9  12
ENDBRANCH   5   6
ENDBRANCH   3   5
BRANCH   2  16
HETATM   16  C2  UNL     1      24.668   6.149  50.464  1.00  0.00     0.103 C 
BRANCH  16  17
HETATM   17  C3  UNL     1      23.700   5.858  51.560  1.00  0.00     0.013 C 
BRANCH  17  18
HETATM   18  C4  UNL     1      22.339   5.592  50.954  1.00  0.00     0.030 C 
BRANCH  18  19
HETATM   19  C5  UNL     1      21.737   4.488  51.743  1.00  0.00     0.005 C 
HETATM   20  C6  UNL     1      21.688   3.207  51.471  1.00  0.00     0.053 C 
HETATM   21  C7  UNL     1      22.259   2.636  50.264  1.00  0.00     0.031 C 
HETATM   22  N1  UNL     1      21.042   2.365  52.415  1.00  0.00    -0.247 NA
HETATM   23  C8  UNL     1      22.126   1.325  50.135  1.00  0.00     0.005 C 
HETATM   24  C9  UNL     1      21.440   0.557  51.172  1.00  0.00     0.034 C 
HETATM   25  C10 UNL     1      21.156   1.107  52.313  1.00  0.00     0.086 C 
ENDBRANCH  18  19
ENDBRANCH  17  18
ENDBRANCH  16  17
ENDBRANCH   2  16
TORSDOF 8
ENDMDL
