MODEL 1
REMARK VINA RESULT:      -9.4      0.000      0.000
REMARK  8 active torsions:
REMARK  status: ('A' for Active; 'I' for Inactive)
REMARK    1  A    between atoms: C6_6  and  C7_7 
REMARK    2  A    between atoms: C7_7  and  O1_8 
REMARK    3  A    between atoms: O1_8  and  C8_9 
REMARK    4  A    between atoms: C12_13  and  C13_14 
REMARK    5  A    between atoms: N1_16  and  C15_17 
REMARK    6  A    between atoms: C17_19  and  C18_20 
REMARK    7  A    between atoms: C18_20  and  N2_21 
REMARK    8  A    between atoms: C25_28  and  N3_29 
ROOT
HETATM    1  C13 UNL     1      25.157   1.686  52.364  1.00  0.00     0.006 A 
HETATM    2  C14 UNL     1      24.030   0.881  52.494  1.00  0.00     0.106 A 
HETATM    3  N1  UNL     1      24.244  -0.041  53.467  1.00  0.00    -0.336 N 
HETATM    4  C23 UNL     1      25.474   0.128  53.982  1.00  0.00     0.138 A 
HETATM    5  C24 UNL     1      26.035   1.190  53.305  1.00  0.00     0.046 A 
HETATM    6  C25 UNL     1      27.260   1.446  53.732  1.00  0.00     0.038 A 
HETATM    7  C26 UNL     1      27.537   0.458  54.806  1.00  0.00     0.208 A 
HETATM    8  N4  UNL     1      26.323  -0.306  54.848  1.00  0.00    -0.266 NA
ENDROOT
BRANCH   1   9
HETATM    9  C12 UNL     1      25.342   2.796  51.434  1.00  0.00    -0.021 A 
HETATM   10  C11 UNL     1      24.315   3.719  51.418  1.00  0.00     0.012 A 
HETATM   11  C10 UNL     1      24.340   4.824  50.594  1.00  0.00     0.004 A 
HETATM   12  C9  UNL     1      25.429   5.035  49.738  1.00  0.00     0.037 A 
HETATM   13  C8  UNL     1      26.444   4.078  49.788  1.00  0.00     0.069 A 
HETATM   14  C27 UNL     1      26.431   2.973  50.606  1.00  0.00     0.049 A 
BRANCH  13  15
HETATM   15  O1  UNL     1      27.531   4.307  48.923  1.00  0.00    -0.349 OA
BRANCH  15  16
HETATM   16  C7  UNL     1      27.784   5.584  48.429  1.00  0.00     0.207 C 
BRANCH  16  17
HETATM   17  C6  UNL     1      29.225   5.941  48.293  1.00  0.00     0.146 C 
HETATM   18  C5  UNL     1      29.488   6.894  47.133  1.00  0.00     0.037 C 
HETATM   19  C4  UNL     1      31.022   6.907  47.197  1.00  0.00     0.040 C 
HETATM   20  C2  UNL     1      31.292   5.544  47.831  1.00  0.00     0.054 C 
HETATM   21  C1  UNL     1      32.257   4.769  46.959  1.00  0.00     0.045 C 
HETATM   22  C3  UNL     1      31.847   5.677  49.234  1.00  0.00     0.045 C 
HETATM   23  O2  UNL     1      30.059   4.897  47.931  1.00  0.00    -0.373 OA
ENDBRANCH  16  17
ENDBRANCH  15  16
ENDBRANCH  13  15
ENDBRANCH   1   9
BRANCH   3  24
HETATM   24  C15 UNL     1      23.216  -1.011  53.794  1.00  0.00     0.092 C 
HETATM   25  C16 UNL     1      22.188  -0.461  54.797  1.00  0.00     0.032 C 
HETATM   26  C17 UNL     1      21.147  -1.188  53.918  1.00  0.00     0.018 C 
HETATM   27  C22 UNL     1      22.130  -1.091  52.733  1.00  0.00     0.032 C 
BRANCH  26  28
HETATM   28  C18 UNL     1      19.907  -0.380  53.738  1.00  0.00     0.277 C 
BRANCH  28  29
HETATM   29  N2  UNL     1      19.011  -0.997  52.829  1.00  0.00     0.088 N 
HETATM   30  C19 UNL     1      18.417  -0.253  51.786  1.00  0.00     0.274 C 
HETATM   31  C20 UNL     1      17.038  -0.471  52.421  1.00  0.00     0.060 C 
HETATM   32  C21 UNL     1      17.738  -1.400  53.355  1.00  0.00     0.274 C 
ENDBRANCH  28  29
ENDBRANCH  26  28
ENDBRANCH   3  24
BRANCH   6  33
HETATM   33  N3  UNL     1      28.253   2.400  53.385  1.00  0.00    -0.400 N 
HETATM   34  H32 UNL     1      28.213   2.763  52.388  1.00  0.00     0.156 HD
HETATM   35  H33 UNL     1      29.030   2.798  53.988  1.00  0.00     0.156 HD
ENDBRANCH   6  33
TORSDOF 8
ENDMDL
MODEL 2
REMARK VINA RESULT:      -9.2      4.046      9.847
REMARK  8 active torsions:
REMARK  status: ('A' for Active; 'I' for Inactive)
REMARK    1  A    between atoms: C6_6  and  C7_7 
REMARK    2  A    between atoms: C7_7  and  O1_8 
REMARK    3  A    between atoms: O1_8  and  C8_9 
REMARK    4  A    between atoms: C12_13  and  C13_14 
REMARK    5  A    between atoms: N1_16  and  C15_17 
REMARK    6  A    between atoms: C17_19  and  C18_20 
REMARK    7  A    between atoms: C18_20  and  N2_21 
REMARK    8  A    between atoms: C25_28  and  N3_29 
ROOT
HETATM    1  C13 UNL     1      25.442   4.945  49.763  1.00  0.00     0.006 A 
HETATM    2  C14 UNL     1      26.579   4.844  48.968  1.00  0.00     0.106 A 
HETATM    3  N1  UNL     1      27.093   6.083  48.757  1.00  0.00    -0.336 N 
HETATM    4  C23 UNL     1      26.333   6.997  49.385  1.00  0.00     0.138 A 
HETATM    5  C24 UNL     1      25.318   6.298  50.003  1.00  0.00     0.046 A 
HETATM    6  C25 UNL     1      24.499   7.105  50.656  1.00  0.00     0.038 A 
HETATM    7  C26 UNL     1      25.028   8.479  50.454  1.00  0.00     0.208 A 
HETATM    8  N4  UNL     1      26.182   8.252  49.632  1.00  0.00    -0.266 NA
ENDROOT
BRANCH   1   9
HETATM    9  C12 UNL     1      24.590   3.852  50.222  1.00  0.00    -0.021 A 
HETATM   10  C11 UNL     1      23.800   3.281  49.244  1.00  0.00     0.012 A 
HETATM   11  C10 UNL     1      22.940   2.238  49.518  1.00  0.00     0.004 A 
HETATM   12  C9  UNL     1      22.848   1.730  50.819  1.00  0.00     0.037 A 
HETATM   13  C8  UNL     1      23.664   2.337  51.775  1.00  0.00     0.069 A 
HETATM   14  C27 UNL     1      24.526   3.376  51.515  1.00  0.00     0.049 A 
BRANCH  13  15
HETATM   15  O1  UNL     1      23.559   1.813  53.078  1.00  0.00    -0.349 OA
BRANCH  15  16
HETATM   16  C7  UNL     1      24.164   0.602  53.403  1.00  0.00     0.207 C 
BRANCH  16  17
HETATM   17  C6  UNL     1      25.640   0.551  53.201  1.00  0.00     0.146 C 
HETATM   18  C5  UNL     1      26.132  -0.835  52.801  1.00  0.00     0.037 C 
HETATM   19  C4  UNL     1      27.642  -0.557  52.841  1.00  0.00     0.040 C 
HETATM   20  C2  UNL     1      27.694   0.586  53.853  1.00  0.00     0.054 C 
HETATM   21  C1  UNL     1      28.667   0.231  54.957  1.00  0.00     0.045 C 
HETATM   22  C3  UNL     1      28.095   1.894  53.203  1.00  0.00     0.045 C 
HETATM   23  O2  UNL     1      26.397   0.746  54.344  1.00  0.00    -0.373 OA
ENDBRANCH  16  17
ENDBRANCH  15  16
ENDBRANCH  13  15
ENDBRANCH   1   9
BRANCH   3  24
HETATM   24  C15 UNL     1      28.286   6.252  47.948  1.00  0.00     0.092 C 
HETATM   25  C16 UNL     1      29.244   7.305  48.528  1.00  0.00     0.032 C 
HETATM   26  C17 UNL     1      30.358   6.314  48.123  1.00  0.00     0.018 C 
HETATM   27  C22 UNL     1      29.324   5.171  48.207  1.00  0.00     0.032 C 
BRANCH  26  28
HETATM   28  C18 UNL     1      31.431   6.229  49.154  1.00  0.00     0.277 C 
BRANCH  28  29
HETATM   29  N2  UNL     1      32.667   6.717  48.659  1.00  0.00     0.088 N 
HETATM   30  C19 UNL     1      32.870   6.890  47.272  1.00  0.00     0.274 C 
HETATM   31  C20 UNL     1      33.950   5.803  47.297  1.00  0.00     0.060 C 
HETATM   32  C21 UNL     1      33.798   5.842  48.781  1.00  0.00     0.274 C 
ENDBRANCH  28  29
ENDBRANCH  26  28
ENDBRANCH   3  24
BRANCH   6  33
HETATM   33  N3  UNL     1      23.328   6.913  51.434  1.00  0.00    -0.400 N 
HETATM   34  H32 UNL     1      23.254   7.508  52.310  1.00  0.00     0.156 HD
HETATM   35  H33 UNL     1      22.516   6.252  51.259  1.00  0.00     0.156 HD
ENDBRANCH   6  33
TORSDOF 8
ENDMDL
MODEL 3
REMARK VINA RESULT:      -9.0      4.774     10.513
REMARK  8 active torsions:
REMARK  status: ('A' for Active; 'I' for Inactive)
REMARK    1  A    between atoms: C6_6  and  C7_7 
REMARK    2  A    between atoms: C7_7  and  O1_8 
REMARK    3  A    between atoms: O1_8  and  C8_9 
REMARK    4  A    between atoms: C12_13  and  C13_14 
REMARK    5  A    between atoms: N1_16  and  C15_17 
REMARK    6  A    between atoms: C17_19  and  C18_20 
REMARK    7  A    between atoms: C18_20  and  N2_21 
REMARK    8  A    between atoms: C25_28  and  N3_29 
ROOT
HETATM    1  C13 UNL     1      27.279   6.408  48.665  1.00  0.00     0.006 A 
HETATM    2  C14 UNL     1      28.400   6.023  47.937  1.00  0.00     0.106 A 
HETATM    3  N1  UNL     1      29.309   7.032  47.943  1.00  0.00    -0.336 N 
HETATM    4  C23 UNL     1      28.825   8.068  48.650  1.00  0.00     0.138 A 
HETATM    5  C24 UNL     1      27.577   7.684  49.094  1.00  0.00     0.046 A 
HETATM    6  C25 UNL     1      27.001   8.637  49.806  1.00  0.00     0.038 A 
HETATM    7  C26 UNL     1      27.966   9.766  49.842  1.00  0.00     0.208 A 
HETATM    8  N4  UNL     1      29.065   9.261  49.069  1.00  0.00    -0.266 NA
ENDROOT
BRANCH   1   9
HETATM    9  C12 UNL     1      26.073   5.620  48.904  1.00  0.00    -0.021 A 
HETATM   10  C11 UNL     1      24.927   6.120  48.319  1.00  0.00     0.012 A 
HETATM   11  C10 UNL     1      23.707   5.491  48.453  1.00  0.00     0.004 A 
HETATM   12  C9  UNL     1      23.604   4.311  49.200  1.00  0.00     0.037 A 
HETATM   13  C8  UNL     1      24.787   3.842  49.772  1.00  0.00     0.069 A 
HETATM   14  C27 UNL     1      26.011   4.458  49.646  1.00  0.00     0.049 A 
BRANCH  13  15
HETATM   15  O1  UNL     1      24.666   2.654  50.518  1.00  0.00    -0.349 OA
BRANCH  15  16
HETATM   16  C7  UNL     1      24.621   2.694  51.909  1.00  0.00     0.207 C 
BRANCH  16  17
HETATM   17  C6  UNL     1      25.567   1.777  52.605  1.00  0.00     0.146 C 
HETATM   18  C5  UNL     1      27.000   1.919  52.107  1.00  0.00     0.037 C 
HETATM   19  C4  UNL     1      27.627   0.760  52.895  1.00  0.00     0.040 C 
HETATM   20  C2  UNL     1      26.414  -0.147  53.083  1.00  0.00     0.054 C 
HETATM   21  C1  UNL     1      26.743  -1.535  52.574  1.00  0.00     0.045 C 
HETATM   22  C3  UNL     1      25.978  -0.210  54.532  1.00  0.00     0.045 C 
HETATM   23  O2  UNL     1      25.367   0.429  52.359  1.00  0.00    -0.373 OA
ENDBRANCH  16  17
ENDBRANCH  15  16
ENDBRANCH  13  15
ENDBRANCH   1   9
BRANCH   3  24
HETATM   24  C15 UNL     1      30.572   6.883  47.243  1.00  0.00     0.092 C 
HETATM   25  C16 UNL     1      31.776   7.275  48.116  1.00  0.00     0.032 C 
HETATM   26  C17 UNL     1      32.459   6.042  47.484  1.00  0.00     0.018 C 
HETATM   27  C22 UNL     1      31.061   5.443  47.223  1.00  0.00     0.032 C 
BRANCH  26  28
HETATM   28  C18 UNL     1      33.263   5.278  48.480  1.00  0.00     0.277 C 
BRANCH  28  29
HETATM   29  N2  UNL     1      34.467   4.790  47.912  1.00  0.00     0.088 N 
HETATM   30  C19 UNL     1      34.664   4.809  46.514  1.00  0.00     0.274 C 
HETATM   31  C20 UNL     1      34.694   3.276  46.500  1.00  0.00     0.060 C 
HETATM   32  C21 UNL     1      34.685   3.373  47.989  1.00  0.00     0.274 C 
ENDBRANCH  28  29
ENDBRANCH  26  28
ENDBRANCH   3  24
BRANCH   6  33
HETATM   33  N3  UNL     1      25.753   8.761  50.473  1.00  0.00    -0.400 N 
HETATM   34  H32 UNL     1      25.576   9.693  50.948  1.00  0.00     0.156 HD
HETATM   35  H33 UNL     1      24.974   8.045  50.561  1.00  0.00     0.156 HD
ENDBRANCH   6  33
TORSDOF 8
ENDMDL
MODEL 4
REMARK VINA RESULT:      -9.0      3.411      6.191
REMARK  8 active torsions:
REMARK  status: ('A' for Active; 'I' for Inactive)
REMARK    1  A    between atoms: C6_6  and  C7_7 
REMARK    2  A    between atoms: C7_7  and  O1_8 
REMARK    3  A    between atoms: O1_8  and  C8_9 
REMARK    4  A    between atoms: C12_13  and  C13_14 
REMARK    5  A    between atoms: N1_16  and  C15_17 
REMARK    6  A    between atoms: C17_19  and  C18_20 
REMARK    7  A    between atoms: C18_20  and  N2_21 
REMARK    8  A    between atoms: C25_28  and  N3_29 
ROOT
HETATM    1  C13 UNL     1      26.754   6.121  48.949  1.00  0.00     0.006 A 
HETATM    2  C14 UNL     1      26.616   4.756  49.179  1.00  0.00     0.106 A 
HETATM    3  N1  UNL     1      25.572   4.544  50.020  1.00  0.00    -0.336 N 
HETATM    4  C23 UNL     1      25.017   5.723  50.352  1.00  0.00     0.138 A 
HETATM    5  C24 UNL     1      25.743   6.692  49.693  1.00  0.00     0.046 A 
HETATM    6  C25 UNL     1      25.283   7.904  49.953  1.00  0.00     0.038 A 
HETATM    7  C26 UNL     1      24.130   7.719  50.871  1.00  0.00     0.208 A 
HETATM    8  N4  UNL     1      24.086   6.294  51.035  1.00  0.00    -0.266 NA
ENDROOT
BRANCH   1   9
HETATM    9  C12 UNL     1      27.752   6.774  48.107  1.00  0.00    -0.021 A 
HETATM   10  C11 UNL     1      27.236   7.569  47.104  1.00  0.00     0.012 A 
HETATM   11  C10 UNL     1      28.048   8.253  46.224  1.00  0.00     0.004 A 
HETATM   12  C9  UNL     1      29.440   8.151  46.332  1.00  0.00     0.037 A 
HETATM   13  C8  UNL     1      29.919   7.338  47.360  1.00  0.00     0.069 A 
HETATM   14  C27 UNL     1      29.119   6.651  48.245  1.00  0.00     0.049 A 
BRANCH  13  15
HETATM   15  O1  UNL     1      31.320   7.248  47.455  1.00  0.00    -0.349 OA
BRANCH  15  16
HETATM   16  C7  UNL     1      31.913   6.340  48.329  1.00  0.00     0.207 C 
BRANCH  16  17
HETATM   17  C6  UNL     1      32.701   5.253  47.681  1.00  0.00     0.146 C 
HETATM   18  C5  UNL     1      32.430   5.140  46.185  1.00  0.00     0.037 C 
HETATM   19  C4  UNL     1      33.250   3.872  45.904  1.00  0.00     0.040 C 
HETATM   20  C2  UNL     1      33.212   3.199  47.274  1.00  0.00     0.054 C 
HETATM   21  C1  UNL     1      32.696   1.783  47.121  1.00  0.00     0.045 C 
HETATM   22  C3  UNL     1      34.575   3.190  47.934  1.00  0.00     0.045 C 
HETATM   23  O2  UNL     1      32.366   3.968  48.076  1.00  0.00    -0.373 OA
ENDBRANCH  16  17
ENDBRANCH  15  16
ENDBRANCH  13  15
ENDBRANCH   1   9
BRANCH   3  24
HETATM   24  C15 UNL     1      25.221   3.195  50.424  1.00  0.00     0.092 C 
HETATM   25  C16 UNL     1      26.428   2.412  50.966  1.00  0.00     0.032 C 
HETATM   26  C17 UNL     1      25.435   1.884  52.025  1.00  0.00     0.018 C 
HETATM   27  C22 UNL     1      24.578   3.148  51.802  1.00  0.00     0.032 C 
BRANCH  26  28
HETATM   28  C18 UNL     1      26.053   1.809  53.380  1.00  0.00     0.277 C 
BRANCH  28  29
HETATM   29  N2  UNL     1      26.156   0.469  53.831  1.00  0.00     0.088 N 
HETATM   30  C19 UNL     1      27.391  -0.214  53.784  1.00  0.00     0.274 C 
HETATM   31  C20 UNL     1      26.806  -1.195  52.761  1.00  0.00     0.060 C 
HETATM   32  C21 UNL     1      25.499  -0.529  53.035  1.00  0.00     0.274 C 
ENDBRANCH  28  29
ENDBRANCH  26  28
ENDBRANCH   3  24
BRANCH   6  33
HETATM   33  N3  UNL     1      25.655   9.214  49.549  1.00  0.00    -0.400 N 
HETATM   34  H32 UNL     1      25.136   9.600  48.707  1.00  0.00     0.156 HD
HETATM   35  H33 UNL     1      26.382   9.858  49.977  1.00  0.00     0.156 HD
ENDBRANCH   6  33
TORSDOF 8
ENDMDL
MODEL 5
REMARK VINA RESULT:      -8.9      3.322      5.982
REMARK  8 active torsions:
REMARK  status: ('A' for Active; 'I' for Inactive)
REMARK    1  A    between atoms: C6_6  and  C7_7 
REMARK    2  A    between atoms: C7_7  and  O1_8 
REMARK    3  A    between atoms: O1_8  and  C8_9 
REMARK    4  A    between atoms: C12_13  and  C13_14 
REMARK    5  A    between atoms: N1_16  and  C15_17 
REMARK    6  A    between atoms: C17_19  and  C18_20 
REMARK    7  A    between atoms: C18_20  and  N2_21 
REMARK    8  A    between atoms: C25_28  and  N3_29 
ROOT
HETATM    1  C13 UNL     1      25.764   4.633  49.482  1.00  0.00     0.006 A 
HETATM    2  C14 UNL     1      25.910   3.604  50.406  1.00  0.00     0.106 A 
HETATM    3  N1  UNL     1      24.694   3.059  50.668  1.00  0.00    -0.336 N 
HETATM    4  C23 UNL     1      23.753   3.694  49.949  1.00  0.00     0.138 A 
HETATM    5  C24 UNL     1      24.411   4.662  49.219  1.00  0.00     0.046 A 
HETATM    6  C25 UNL     1      23.573   5.358  48.470  1.00  0.00     0.038 A 
HETATM    7  C26 UNL     1      22.223   4.791  48.724  1.00  0.00     0.208 A 
HETATM    8  N4  UNL     1      22.495   3.754  49.678  1.00  0.00    -0.266 NA
ENDROOT
BRANCH   1   9
HETATM    9  C12 UNL     1      26.821   5.477  48.932  1.00  0.00    -0.021 A 
HETATM   10  C11 UNL     1      26.507   6.819  48.843  1.00  0.00     0.012 A 
HETATM   11  C10 UNL     1      27.398   7.745  48.344  1.00  0.00     0.004 A 
HETATM   12  C9  UNL     1      28.664   7.335  47.908  1.00  0.00     0.037 A 
HETATM   13  C8  UNL     1      28.939   5.971  48.016  1.00  0.00     0.069 A 
HETATM   14  C27 UNL     1      28.060   5.037  48.513  1.00  0.00     0.049 A 
BRANCH  13  15
HETATM   15  O1  UNL     1      30.216   5.577  47.575  1.00  0.00    -0.349 OA
BRANCH  15  16
HETATM   16  C7  UNL     1      31.355   5.945  48.286  1.00  0.00     0.207 C 
BRANCH  16  17
HETATM   17  C6  UNL     1      32.487   4.978  48.224  1.00  0.00     0.146 C 
HETATM   18  C5  UNL     1      33.833   5.627  48.524  1.00  0.00     0.037 C 
HETATM   19  C4  UNL     1      34.735   4.421  48.220  1.00  0.00     0.040 C 
HETATM   20  C2  UNL     1      33.867   3.660  47.222  1.00  0.00     0.054 C 
HETATM   21  C1  UNL     1      34.666   3.401  45.961  1.00  0.00     0.045 C 
HETATM   22  C3  UNL     1      33.361   2.354  47.798  1.00  0.00     0.045 C 
HETATM   23  O2  UNL     1      32.752   4.461  46.967  1.00  0.00    -0.373 OA
ENDBRANCH  16  17
ENDBRANCH  15  16
ENDBRANCH  13  15
ENDBRANCH   1   9
BRANCH   3  24
HETATM   24  C15 UNL     1      24.573   1.963  51.612  1.00  0.00     0.092 C 
HETATM   25  C16 UNL     1      25.872   1.150  51.738  1.00  0.00     0.032 C 
HETATM   26  C17 UNL     1      25.549   1.128  53.248  1.00  0.00     0.018 C 
HETATM   27  C22 UNL     1      24.722   2.417  53.055  1.00  0.00     0.032 C 
BRANCH  26  28
HETATM   28  C18 UNL     1      26.770   1.316  54.083  1.00  0.00     0.277 C 
BRANCH  28  29
HETATM   29  N2  UNL     1      27.368   0.075  54.416  1.00  0.00     0.088 N 
HETATM   30  C19 UNL     1      28.666   0.027  54.971  1.00  0.00     0.274 C 
HETATM   31  C20 UNL     1      29.170  -0.704  53.721  1.00  0.00     0.060 C 
HETATM   32  C21 UNL     1      27.735  -0.776  53.320  1.00  0.00     0.274 C 
ENDBRANCH  28  29
ENDBRANCH  26  28
ENDBRANCH   3  24
BRANCH   6  33
HETATM   33  N3  UNL     1      23.719   6.438  47.560  1.00  0.00    -0.400 N 
HETATM   34  H32 UNL     1      23.865   7.393  47.998  1.00  0.00     0.156 HD
HETATM   35  H33 UNL     1      23.701   6.418  46.499  1.00  0.00     0.156 HD
ENDBRANCH   6  33
TORSDOF 8
ENDMDL
MODEL 6
REMARK VINA RESULT:      -8.9      5.154     10.629
REMARK  8 active torsions:
REMARK  status: ('A' for Active; 'I' for Inactive)
REMARK    1  A    between atoms: C6_6  and  C7_7 
REMARK    2  A    between atoms: C7_7  and  O1_8 
REMARK    3  A    between atoms: O1_8  and  C8_9 
REMARK    4  A    between atoms: C12_13  and  C13_14 
REMARK    5  A    between atoms: N1_16  and  C15_17 
REMARK    6  A    between atoms: C17_19  and  C18_20 
REMARK    7  A    between atoms: C18_20  and  N2_21 
REMARK    8  A    between atoms: C25_28  and  N3_29 
ROOT
HETATM    1  C13 UNL     1      21.376   1.023  52.112  1.00  0.00     0.006 A 
HETATM    2  C14 UNL     1      22.677   1.412  51.806  1.00  0.00     0.106 A 
HETATM    3  N1  UNL     1      23.550   0.695  52.559  1.00  0.00    -0.336 N 
HETATM    4  C23 UNL     1      22.870  -0.153  53.350  1.00  0.00     0.138 A 
HETATM    5  C24 UNL     1      21.534   0.049  53.075  1.00  0.00     0.046 A 
HETATM    6  C25 UNL     1      20.763  -0.738  53.806  1.00  0.00     0.038 A 
HETATM    7  C26 UNL     1      21.682  -1.549  54.647  1.00  0.00     0.208 A 
HETATM    8  N4  UNL     1      22.974  -1.066  54.252  1.00  0.00    -0.266 NA
ENDROOT
BRANCH   1   9
HETATM    9  C12 UNL     1      20.143   1.546  51.531  1.00  0.00    -0.021 A 
HETATM   10  C11 UNL     1      19.821   1.032  50.290  1.00  0.00     0.012 A 
HETATM   11  C10 UNL     1      18.689   1.425  49.609  1.00  0.00     0.004 A 
HETATM   12  C9  UNL     1      17.826   2.373  50.173  1.00  0.00     0.037 A 
HETATM   13  C8  UNL     1      18.189   2.865  51.428  1.00  0.00     0.069 A 
HETATM   14  C27 UNL     1      19.316   2.480  52.118  1.00  0.00     0.049 A 
BRANCH  13  15
HETATM   15  O1  UNL     1      17.310   3.815  51.980  1.00  0.00    -0.349 OA
BRANCH  15  16
HETATM   16  C7  UNL     1      16.181   4.226  51.277  1.00  0.00     0.207 C 
BRANCH  16  17
HETATM   17  C6  UNL     1      14.877   3.939  51.940  1.00  0.00     0.146 C 
HETATM   18  C5  UNL     1      14.828   4.431  53.381  1.00  0.00     0.037 C 
HETATM   19  C4  UNL     1      13.465   3.842  53.773  1.00  0.00     0.040 C 
HETATM   20  C2  UNL     1      13.380   2.658  52.813  1.00  0.00     0.054 C 
HETATM   21  C1  UNL     1      13.115   1.393  53.603  1.00  0.00     0.045 C 
HETATM   22  C3  UNL     1      12.302   2.858  51.768  1.00  0.00     0.045 C 
HETATM   23  O2  UNL     1      14.603   2.597  52.142  1.00  0.00    -0.373 OA
ENDBRANCH  16  17
ENDBRANCH  15  16
ENDBRANCH  13  15
ENDBRANCH   1   9
BRANCH   3  24
HETATM   24  C15 UNL     1      24.978   0.917  52.432  1.00  0.00     0.092 C 
HETATM   25  C16 UNL     1      25.569   1.646  53.651  1.00  0.00     0.032 C 
HETATM   26  C17 UNL     1      26.750   0.664  53.492  1.00  0.00     0.018 C 
HETATM   27  C22 UNL     1      25.794  -0.317  52.782  1.00  0.00     0.032 C 
BRANCH  26  28
HETATM   28  C18 UNL     1      27.246   0.171  54.809  1.00  0.00     0.277 C 
BRANCH  28  29
HETATM   29  N2  UNL     1      28.662   0.196  54.873  1.00  0.00     0.088 N 
HETATM   30  C19 UNL     1      29.395   1.226  54.244  1.00  0.00     0.274 C 
HETATM   31  C20 UNL     1      30.015   0.199  53.291  1.00  0.00     0.060 C 
HETATM   32  C21 UNL     1      29.356  -0.830  54.147  1.00  0.00     0.274 C 
ENDBRANCH  28  29
ENDBRANCH  26  28
ENDBRANCH   3  24
BRANCH   6  33
HETATM   33  N3  UNL     1      19.360  -0.928  53.918  1.00  0.00    -0.400 N 
HETATM   34  H32 UNL     1      19.044  -1.573  54.699  1.00  0.00     0.156 HD
HETATM   35  H33 UNL     1      18.586  -0.513  53.324  1.00  0.00     0.156 HD
ENDBRANCH   6  33
TORSDOF 8
ENDMDL
MODEL 7
REMARK VINA RESULT:      -8.9      4.438      7.196
REMARK  8 active torsions:
REMARK  status: ('A' for Active; 'I' for Inactive)
REMARK    1  A    between atoms: C6_6  and  C7_7 
REMARK    2  A    between atoms: C7_7  and  O1_8 
REMARK    3  A    between atoms: O1_8  and  C8_9 
REMARK    4  A    between atoms: C12_13  and  C13_14 
REMARK    5  A    between atoms: N1_16  and  C15_17 
REMARK    6  A    between atoms: C17_19  and  C18_20 
REMARK    7  A    between atoms: C18_20  and  N2_21 
REMARK    8  A    between atoms: C25_28  and  N3_29 
ROOT
HETATM    1  C13 UNL     1      20.229   1.963  52.212  1.00  0.00     0.006 A 
HETATM    2  C14 UNL     1      18.885   1.727  51.945  1.00  0.00     0.106 A 
HETATM    3  N1  UNL     1      18.362   2.792  51.285  1.00  0.00    -0.336 N 
HETATM    4  C23 UNL     1      19.316   3.723  51.109  1.00  0.00     0.138 A 
HETATM    5  C24 UNL     1      20.464   3.213  51.678  1.00  0.00     0.046 A 
HETATM    6  C25 UNL     1      21.477   4.055  51.565  1.00  0.00     0.038 A 
HETATM    7  C26 UNL     1      20.949   5.241  50.842  1.00  0.00     0.208 A 
HETATM    8  N4  UNL     1      19.576   4.887  50.624  1.00  0.00    -0.266 NA
ENDROOT
BRANCH   1   9
HETATM    9  C12 UNL     1      21.158   1.074  52.903  1.00  0.00    -0.021 A 
HETATM   10  C11 UNL     1      20.661   0.495  54.054  1.00  0.00     0.012 A 
HETATM   11  C10 UNL     1      21.415  -0.368  54.821  1.00  0.00     0.004 A 
HETATM   12  C9  UNL     1      22.727  -0.679  54.441  1.00  0.00     0.037 A 
HETATM   13  C8  UNL     1      23.188  -0.072  53.272  1.00  0.00     0.069 A 
HETATM   14  C27 UNL     1      22.446   0.790  52.498  1.00  0.00     0.049 A 
BRANCH  13  15
HETATM   15  O1  UNL     1      24.507  -0.396  52.904  1.00  0.00    -0.349 OA
BRANCH  15  16
HETATM   16  C7  UNL     1      25.344   0.568  52.349  1.00  0.00     0.207 C 
BRANCH  16  17
HETATM   17  C6  UNL     1      26.591   0.850  53.115  1.00  0.00     0.146 C 
HETATM   18  C5  UNL     1      27.356   2.052  52.573  1.00  0.00     0.037 C 
HETATM   19  C4  UNL     1      28.603   1.943  53.462  1.00  0.00     0.040 C 
HETATM   20  C2  UNL     1      28.604   0.447  53.770  1.00  0.00     0.054 C 
HETATM   21  C1  UNL     1      29.951  -0.138  53.401  1.00  0.00     0.045 C 
HETATM   22  C3  UNL     1      28.296   0.173  55.227  1.00  0.00     0.045 C 
HETATM   23  O2  UNL     1      27.575  -0.118  53.014  1.00  0.00    -0.373 OA
ENDBRANCH  16  17
ENDBRANCH  15  16
ENDBRANCH  13  15
ENDBRANCH   1   9
BRANCH   3  24
HETATM   24  C15 UNL     1      16.965   2.796  50.894  1.00  0.00     0.092 C 
HETATM   25  C16 UNL     1      16.175   1.637  51.525  1.00  0.00     0.032 C 
HETATM   26  C17 UNL     1      15.059   2.686  51.721  1.00  0.00     0.018 C 
HETATM   27  C22 UNL     1      16.138   3.789  51.696  1.00  0.00     0.032 C 
BRANCH  26  28
HETATM   28  C18 UNL     1      14.380   2.539  53.040  1.00  0.00     0.277 C 
BRANCH  28  29
HETATM   29  N2  UNL     1      13.051   3.030  52.998  1.00  0.00     0.088 N 
HETATM   30  C19 UNL     1      12.794   4.418  53.023  1.00  0.00     0.274 C 
HETATM   31  C20 UNL     1      12.097   4.262  54.380  1.00  0.00     0.060 C 
HETATM   32  C21 UNL     1      12.242   2.793  54.160  1.00  0.00     0.274 C 
ENDBRANCH  28  29
ENDBRANCH  26  28
ENDBRANCH   3  24
BRANCH   6  33
HETATM   33  N3  UNL     1      22.839   4.029  51.968  1.00  0.00    -0.400 N 
HETATM   34  H32 UNL     1      23.552   4.110  51.186  1.00  0.00     0.156 HD
HETATM   35  H33 UNL     1      23.239   3.939  52.947  1.00  0.00     0.156 HD
ENDBRANCH   6  33
TORSDOF 8
ENDMDL
MODEL 8
REMARK VINA RESULT:      -8.8      1.515      2.080
REMARK  8 active torsions:
REMARK  status: ('A' for Active; 'I' for Inactive)
REMARK    1  A    between atoms: C6_6  and  C7_7 
REMARK    2  A    between atoms: C7_7  and  O1_8 
REMARK    3  A    between atoms: O1_8  and  C8_9 
REMARK    4  A    between atoms: C12_13  and  C13_14 
REMARK    5  A    between atoms: N1_16  and  C15_17 
REMARK    6  A    between atoms: C17_19  and  C18_20 
REMARK    7  A    between atoms: C18_20  and  N2_21 
REMARK    8  A    between atoms: C25_28  and  N3_29 
ROOT
HETATM    1  C13 UNL     1      24.915   2.584  51.131  1.00  0.00     0.006 A 
HETATM    2  C14 UNL     1      23.662   1.998  50.983  1.00  0.00     0.106 A 
HETATM    3  N1  UNL     1      23.494   1.049  51.940  1.00  0.00    -0.336 N 
HETATM    4  C23 UNL     1      24.593   0.989  52.712  1.00  0.00     0.138 A 
HETATM    5  C24 UNL     1      25.466   1.934  52.215  1.00  0.00     0.046 A 
HETATM    6  C25 UNL     1      26.594   1.961  52.904  1.00  0.00     0.038 A 
HETATM    7  C26 UNL     1      26.453   0.935  53.969  1.00  0.00     0.208 A 
HETATM    8  N4  UNL     1      25.143   0.405  53.719  1.00  0.00    -0.266 NA
ENDROOT
BRANCH   1   9
HETATM    9  C12 UNL     1      25.492   3.645  50.310  1.00  0.00    -0.021 A 
HETATM   10  C11 UNL     1      24.659   4.723  50.085  1.00  0.00     0.012 A 
HETATM   11  C10 UNL     1      25.056   5.805  49.328  1.00  0.00     0.004 A 
HETATM   12  C9  UNL     1      26.336   5.832  48.760  1.00  0.00     0.037 A 
HETATM   13  C8  UNL     1      27.144   4.722  49.014  1.00  0.00     0.069 A 
HETATM   14  C27 UNL     1      26.760   3.637  49.767  1.00  0.00     0.049 A 
BRANCH  13  15
HETATM   15  O1  UNL     1      28.427   4.766  48.437  1.00  0.00    -0.349 OA
BRANCH  15  16
HETATM   16  C7  UNL     1      29.028   5.986  48.142  1.00  0.00     0.207 C 
BRANCH  16  17
HETATM   17  C6  UNL     1      30.436   5.904  47.660  1.00  0.00     0.146 C 
HETATM   18  C5  UNL     1      30.884   4.472  47.393  1.00  0.00     0.037 C 
HETATM   19  C4  UNL     1      32.363   4.754  47.086  1.00  0.00     0.040 C 
HETATM   20  C2  UNL     1      32.576   6.045  47.873  1.00  0.00     0.054 C 
HETATM   21  C1  UNL     1      33.759   5.873  48.803  1.00  0.00     0.045 C 
HETATM   22  C3  UNL     1      32.798   7.231  46.958  1.00  0.00     0.045 C 
HETATM   23  O2  UNL     1      31.397   6.281  48.583  1.00  0.00    -0.373 OA
ENDBRANCH  16  17
ENDBRANCH  15  16
ENDBRANCH  13  15
ENDBRANCH   1   9
BRANCH   3  24
HETATM   24  C15 UNL     1      22.264   0.281  51.999  1.00  0.00     0.092 C 
HETATM   25  C16 UNL     1      21.234   0.897  52.961  1.00  0.00     0.032 C 
HETATM   26  C17 UNL     1      20.202   0.528  51.874  1.00  0.00     0.018 C 
HETATM   27  C22 UNL     1      21.337   0.573  50.830  1.00  0.00     0.032 C 
BRANCH  26  28
HETATM   28  C18 UNL     1      19.176   1.594  51.693  1.00  0.00     0.277 C 
BRANCH  28  29
HETATM   29  N2  UNL     1      17.875   1.048  51.563  1.00  0.00     0.088 N 
HETATM   30  C19 UNL     1      17.690  -0.343  51.401  1.00  0.00     0.274 C 
HETATM   31  C20 UNL     1      17.119  -0.101  49.999  1.00  0.00     0.060 C 
HETATM   32  C21 UNL     1      17.170   1.348  50.349  1.00  0.00     0.274 C 
ENDBRANCH  28  29
ENDBRANCH  26  28
ENDBRANCH   3  24
BRANCH   6  33
HETATM   33  N3  UNL     1      27.792   2.719  52.816  1.00  0.00    -0.400 N 
HETATM   34  H32 UNL     1      28.595   2.253  52.302  1.00  0.00     0.156 HD
HETATM   35  H33 UNL     1      27.992   3.689  53.197  1.00  0.00     0.156 HD
ENDBRANCH   6  33
TORSDOF 8
ENDMDL
MODEL 9
REMARK VINA RESULT:      -8.6      3.607      6.420
REMARK  8 active torsions:
REMARK  status: ('A' for Active; 'I' for Inactive)
REMARK    1  A    between atoms: C6_6  and  C7_7 
REMARK    2  A    between atoms: C7_7  and  O1_8 
REMARK    3  A    between atoms: O1_8  and  C8_9 
REMARK    4  A    between atoms: C12_13  and  C13_14 
REMARK    5  A    between atoms: N1_16  and  C15_17 
REMARK    6  A    between atoms: C17_19  and  C18_20 
REMARK    7  A    between atoms: C18_20  and  N2_21 
REMARK    8  A    between atoms: C25_28  and  N3_29 
ROOT
HETATM    1  C13 UNL     1      25.623   4.694  49.527  1.00  0.00     0.006 A 
HETATM    2  C14 UNL     1      25.811   3.653  50.430  1.00  0.00     0.106 A 
HETATM    3  N1  UNL     1      24.635   2.998  50.612  1.00  0.00    -0.336 N 
HETATM    4  C23 UNL     1      23.680   3.572  49.861  1.00  0.00     0.138 A 
HETATM    5  C24 UNL     1      24.288   4.615  49.193  1.00  0.00     0.046 A 
HETATM    6  C25 UNL     1      23.432   5.259  48.419  1.00  0.00     0.038 A 
HETATM    7  C26 UNL     1      22.126   4.571  48.584  1.00  0.00     0.208 A 
HETATM    8  N4  UNL     1      22.438   3.532  49.524  1.00  0.00    -0.266 NA
ENDROOT
BRANCH   1   9
HETATM    9  C12 UNL     1      26.629   5.643  49.058  1.00  0.00    -0.021 A 
HETATM   10  C11 UNL     1      27.767   5.068  48.526  1.00  0.00     0.012 A 
HETATM   11  C10 UNL     1      28.809   5.829  48.041  1.00  0.00     0.004 A 
HETATM   12  C9  UNL     1      28.734   7.227  48.079  1.00  0.00     0.037 A 
HETATM   13  C8  UNL     1      27.567   7.764  48.624  1.00  0.00     0.069 A 
HETATM   14  C27 UNL     1      26.520   7.017  49.111  1.00  0.00     0.049 A 
BRANCH  13  15
HETATM   15  O1  UNL     1      27.508   9.170  48.654  1.00  0.00    -0.349 OA
BRANCH  15  16
HETATM   16  C7  UNL     1      27.673   9.910  47.486  1.00  0.00     0.207 C 
BRANCH  16  17
HETATM   17  C6  UNL     1      28.725  10.964  47.542  1.00  0.00     0.146 C 
HETATM   18  C5  UNL     1      28.973  11.620  46.188  1.00  0.00     0.037 C 
HETATM   19  C4  UNL     1      30.174  12.493  46.579  1.00  0.00     0.040 C 
HETATM   20  C2  UNL     1      30.745  11.687  47.744  1.00  0.00     0.054 C 
HETATM   21  C1  UNL     1      32.211  11.407  47.486  1.00  0.00     0.045 C 
HETATM   22  C3  UNL     1      30.575  12.410  49.064  1.00  0.00     0.045 C 
HETATM   23  O2  UNL     1      30.003  10.507  47.817  1.00  0.00    -0.373 OA
ENDBRANCH  16  17
ENDBRANCH  15  16
ENDBRANCH  13  15
ENDBRANCH   1   9
BRANCH   3  24
HETATM   24  C15 UNL     1      24.562   1.867  51.518  1.00  0.00     0.092 C 
HETATM   25  C16 UNL     1      25.909   1.140  51.661  1.00  0.00     0.032 C 
HETATM   26  C17 UNL     1      25.545   1.048  53.159  1.00  0.00     0.018 C 
HETATM   27  C22 UNL     1      24.638   2.283  52.979  1.00  0.00     0.032 C 
BRANCH  26  28
HETATM   28  C18 UNL     1      26.725   1.292  54.036  1.00  0.00     0.277 C 
BRANCH  28  29
HETATM   29  N2  UNL     1      27.358   0.078  54.406  1.00  0.00     0.088 N 
HETATM   30  C19 UNL     1      28.678   0.077  54.907  1.00  0.00     0.274 C 
HETATM   31  C20 UNL     1      29.142  -0.710  53.675  1.00  0.00     0.060 C 
HETATM   32  C21 UNL     1      27.692  -0.823  53.339  1.00  0.00     0.274 C 
ENDBRANCH  28  29
ENDBRANCH  26  28
ENDBRANCH   3  24
BRANCH   6  33
HETATM   33  N3  UNL     1      23.530   6.376  47.546  1.00  0.00    -0.400 N 
HETATM   34  H32 UNL     1      24.473   6.863  47.525  1.00  0.00     0.156 HD
HETATM   35  H33 UNL     1      22.785   6.789  46.912  1.00  0.00     0.156 HD
ENDBRANCH   6  33
TORSDOF 8
ENDMDL
