MODEL 1
REMARK VINA RESULT:      -8.9      0.000      0.000
REMARK  4 active torsions:
REMARK  status: ('A' for Active; 'I' for Inactive)
REMARK    1  A    between atoms: C3_4  and  N2_5 
REMARK    2  A    between atoms: N2_5  and  C4_6 
REMARK    3  A    between atoms: C11_16  and  C12_17 
REMARK    4  A    between atoms: C12_17  and  O2_18 
ROOT
HETATM    1  C4  UNL     1      25.559   2.186  51.675  1.00  0.00     0.733 C 
HETATM    2  N3  UNL     1      24.881   1.103  51.779  1.00  0.00    -0.042 NA
HETATM    3  C5  UNL     1      23.571   0.852  52.187  1.00  0.00     0.173 C 
HETATM    4  C6  UNL     1      22.910   0.010  52.949  1.00  0.00     0.083 A 
HETATM    5  C7  UNL     1      21.557  -0.261  53.333  1.00  0.00     0.038 A 
HETATM    6  C8  UNL     1      21.538  -0.982  54.411  1.00  0.00     0.061 A 
HETATM    7  C9  UNL     1      22.923  -1.202  54.766  1.00  0.00     0.181 A 
HETATM    8  O1  UNL     1      22.911  -1.927  55.851  1.00  0.00    -0.172 OA
HETATM    9  N4  UNL     1      23.902  -0.572  53.842  1.00  0.00    -0.322 N 
HETATM   10  C10 UNL     1      25.190  -0.789  54.321  1.00  0.00     0.138 C 
HETATM   11  C11 UNL     1      26.460  -0.639  53.668  1.00  0.00     0.030 C 
HETATM   12  C13 UNL     1      27.086   0.560  53.139  1.00  0.00     0.037 C 
HETATM   13  C14 UNL     1      27.121   1.876  53.767  1.00  0.00     0.203 C 
HETATM   14  O3  UNL     1      26.002   2.594  54.060  1.00  0.00    -0.260 OA
HETATM   15  N5  UNL     1      25.281   2.851  52.943  1.00  0.00    -0.058 N 
HETATM   16  C15 UNL     1      24.135   3.763  52.948  1.00  0.00     0.159 C 
HETATM   17  C16 UNL     1      22.935   3.370  52.378  1.00  0.00     0.110 C 
HETATM   18  N6  UNL     1      22.567   1.944  52.025  1.00  0.00    -0.347 N 
HETATM   19  H20 UNL     1      21.636   1.727  51.731  1.00  0.00     0.167 HD
ENDROOT
BRANCH   1  20
HETATM   20  N2  UNL     1      26.302   2.515  50.539  1.00  0.00    -0.185 N 
HETATM   21  H5  UNL     1      26.975   1.750  50.410  1.00  0.00     0.184 HD
BRANCH  20  22
HETATM   22  C3  UNL     1      26.033   3.701  49.851  1.00  0.00     0.085 A 
HETATM   23  C2  UNL     1      27.116   4.421  49.401  1.00  0.00     0.143 A 
HETATM   24  N1  UNL     1      26.640   5.524  48.768  1.00  0.00    -0.283 N 
HETATM   25  C1  UNL     1      27.422   6.587  48.125  1.00  0.00     0.179 C 
HETATM   26  N7  UNL     1      25.317   5.500  48.817  1.00  0.00    -0.183 NA
HETATM   27  C17 UNL     1      24.923   4.400  49.470  1.00  0.00     0.170 A 
ENDBRANCH  20  22
ENDBRANCH   1  20
BRANCH  11  28
HETATM   28  C12 UNL     1      26.495  -1.737  52.518  1.00  0.00     0.170 C 
BRANCH  28  29
HETATM   29  O2  UNL     1      27.419  -2.668  52.979  1.00  0.00    -0.400 OA
HETATM   30  H13 UNL     1      27.617  -3.320  52.262  1.00  0.00     0.209 HD
ENDBRANCH  28  29
ENDBRANCH  11  28
TORSDOF 4
ENDMDL
MODEL 2
REMARK VINA RESULT:      -8.1      1.147      1.649
REMARK  4 active torsions:
REMARK  status: ('A' for Active; 'I' for Inactive)
REMARK    1  A    between atoms: C3_4  and  N2_5 
REMARK    2  A    between atoms: N2_5  and  C4_6 
REMARK    3  A    between atoms: C11_16  and  C12_17 
REMARK    4  A    between atoms: C12_17  and  O2_18 
ROOT
HETATM    1  C4  UNL     1      24.604   2.480  51.480  1.00  0.00     0.733 C 
HETATM    2  N3  UNL     1      24.121   1.300  51.609  1.00  0.00    -0.042 NA
HETATM    3  C5  UNL     1      22.869   0.837  52.014  1.00  0.00     0.173 C 
HETATM    4  C6  UNL     1      22.354  -0.086  52.795  1.00  0.00     0.083 A 
HETATM    5  C7  UNL     1      21.064  -0.576  53.176  1.00  0.00     0.038 A 
HETATM    6  C8  UNL     1      21.156  -1.260  54.274  1.00  0.00     0.061 A 
HETATM    7  C9  UNL     1      22.553  -1.229  54.645  1.00  0.00     0.181 A 
HETATM    8  O1  UNL     1      22.653  -1.917  55.749  1.00  0.00    -0.172 OA
HETATM    9  N4  UNL     1      23.421  -0.465  53.711  1.00  0.00    -0.322 N 
HETATM   10  C10 UNL     1      24.721  -0.444  54.205  1.00  0.00     0.138 C 
HETATM   11  C11 UNL     1      25.954  -0.094  53.556  1.00  0.00     0.030 C 
HETATM   12  C13 UNL     1      26.371   1.180  52.999  1.00  0.00     0.037 C 
HETATM   13  C14 UNL     1      26.172   2.498  53.591  1.00  0.00     0.203 C 
HETATM   14  O3  UNL     1      24.942   3.020  53.856  1.00  0.00    -0.260 OA
HETATM   15  N5  UNL     1      24.201   3.120  52.727  1.00  0.00    -0.058 N 
HETATM   16  C15 UNL     1      22.915   3.821  52.698  1.00  0.00     0.159 C 
HETATM   17  C16 UNL     1      21.808   3.212  52.131  1.00  0.00     0.110 C 
HETATM   18  N6  UNL     1      21.694   1.736  51.815  1.00  0.00    -0.347 N 
HETATM   19  H20 UNL     1      20.818   1.354  51.521  1.00  0.00     0.167 HD
ENDROOT
BRANCH   1  20
HETATM   20  N2  UNL     1      25.293   2.903  50.341  1.00  0.00    -0.185 N 
HETATM   21  H5  UNL     1      26.104   2.279  50.253  1.00  0.00     0.184 HD
BRANCH  20  22
HETATM   22  C3  UNL     1      24.813   3.985  49.599  1.00  0.00     0.085 A 
HETATM   23  C2  UNL     1      23.603   3.820  48.965  1.00  0.00     0.143 A 
HETATM   24  N1  UNL     1      23.324   4.976  48.308  1.00  0.00    -0.283 N 
HETATM   25  C1  UNL     1      22.140   5.271  47.493  1.00  0.00     0.179 C 
HETATM   26  N7  UNL     1      24.314   5.830  48.519  1.00  0.00    -0.183 NA
HETATM   27  C17 UNL     1      25.232   5.251  49.302  1.00  0.00     0.170 A 
ENDBRANCH  20  22
ENDBRANCH   1  20
BRANCH  11  28
HETATM   28  C12 UNL     1      26.191  -1.199  52.438  1.00  0.00     0.170 C 
BRANCH  28  29
HETATM   29  O2  UNL     1      26.922  -2.183  53.095  1.00  0.00    -0.400 OA
HETATM   30  H13 UNL     1      27.540  -2.617  52.457  1.00  0.00     0.209 HD
ENDBRANCH  28  29
ENDBRANCH  11  28
TORSDOF 4
ENDMDL
MODEL 3
REMARK VINA RESULT:      -8.0      2.886      5.426
REMARK  4 active torsions:
REMARK  status: ('A' for Active; 'I' for Inactive)
REMARK    1  A    between atoms: C3_4  and  N2_5 
REMARK    2  A    between atoms: N2_5  and  C4_6 
REMARK    3  A    between atoms: C11_16  and  C12_17 
REMARK    4  A    between atoms: C12_17  and  O2_18 
ROOT
HETATM    1  C4  UNL     1      21.848   2.689  52.119  1.00  0.00     0.733 C 
HETATM    2  N3  UNL     1      22.687   2.285  52.999  1.00  0.00    -0.042 NA
HETATM    3  C5  UNL     1      24.078   2.361  53.073  1.00  0.00     0.173 C 
HETATM    4  C6  UNL     1      25.101   1.595  53.381  1.00  0.00     0.083 A 
HETATM    5  C7  UNL     1      26.526   1.694  53.487  1.00  0.00     0.038 A 
HETATM    6  C8  UNL     1      27.055   0.510  53.469  1.00  0.00     0.061 A 
HETATM    7  C9  UNL     1      25.951  -0.416  53.344  1.00  0.00     0.181 A 
HETATM    8  O1  UNL     1      26.477  -1.610  53.325  1.00  0.00    -0.172 OA
HETATM    9  N4  UNL     1      24.613   0.227  53.278  1.00  0.00    -0.322 N 
HETATM   10  C10 UNL     1      23.642  -0.751  53.088  1.00  0.00     0.138 C 
HETATM   11  C11 UNL     1      22.216  -0.683  53.239  1.00  0.00     0.030 C 
HETATM   12  C13 UNL     1      21.250   0.118  52.509  1.00  0.00     0.037 C 
HETATM   13  C14 UNL     1      21.226   0.359  51.070  1.00  0.00     0.203 C 
HETATM   14  O3  UNL     1      22.239   0.973  50.399  1.00  0.00    -0.260 OA
HETATM   15  N5  UNL     1      22.451   2.223  50.875  1.00  0.00    -0.058 N 
HETATM   16  C15 UNL     1      23.352   3.168  50.211  1.00  0.00     0.159 C 
HETATM   17  C16 UNL     1      24.311   3.845  50.946  1.00  0.00     0.110 C 
HETATM   18  N6  UNL     1      24.758   3.471  52.343  1.00  0.00    -0.347 N 
HETATM   19  H20 UNL     1      25.541   3.935  52.758  1.00  0.00     0.167 HD
ENDROOT
BRANCH   1  20
HETATM   20  N2  UNL     1      20.699   3.417  52.436  1.00  0.00    -0.185 N 
HETATM   21  H5  UNL     1      20.631   3.406  53.461  1.00  0.00     0.184 HD
BRANCH  20  22
HETATM   22  C3  UNL     1      19.924   3.974  51.416  1.00  0.00     0.085 A 
HETATM   23  C2  UNL     1      18.631   3.518  51.294  1.00  0.00     0.143 A 
HETATM   24  N1  UNL     1      18.060   4.179  50.255  1.00  0.00    -0.283 N 
HETATM   25  C1  UNL     1      16.691   4.026  49.749  1.00  0.00     0.179 C 
HETATM   26  N7  UNL     1      18.952   5.015  49.745  1.00  0.00    -0.183 NA
HETATM   27  C17 UNL     1      20.094   4.909  50.435  1.00  0.00     0.170 A 
ENDBRANCH  20  22
ENDBRANCH   1  20
BRANCH  11  28
HETATM   28  C12 UNL     1      21.949  -0.447  54.789  1.00  0.00     0.170 C 
BRANCH  28  29
HETATM   29  O2  UNL     1      20.769   0.288  54.812  1.00  0.00    -0.400 OA
HETATM   30  H13 UNL     1      20.124  -0.143  55.426  1.00  0.00     0.209 HD
ENDBRANCH  28  29
ENDBRANCH  11  28
TORSDOF 4
ENDMDL
MODEL 4
REMARK VINA RESULT:      -7.7      3.126      6.226
REMARK  4 active torsions:
REMARK  status: ('A' for Active; 'I' for Inactive)
REMARK    1  A    between atoms: C3_4  and  N2_5 
REMARK    2  A    between atoms: N2_5  and  C4_6 
REMARK    3  A    between atoms: C11_16  and  C12_17 
REMARK    4  A    between atoms: C12_17  and  O2_18 
ROOT
HETATM    1  C4  UNL     1      24.195   3.125  52.351  1.00  0.00     0.733 C 
HETATM    2  N3  UNL     1      23.202   3.934  52.304  1.00  0.00    -0.042 NA
HETATM    3  C5  UNL     1      21.834   3.731  52.121  1.00  0.00     0.173 C 
HETATM    4  C6  UNL     1      20.835   4.245  51.439  1.00  0.00     0.083 A 
HETATM    5  C7  UNL     1      19.424   4.051  51.285  1.00  0.00     0.038 A 
HETATM    6  C8  UNL     1      19.017   4.607  50.186  1.00  0.00     0.061 A 
HETATM    7  C9  UNL     1      20.192   5.193  49.579  1.00  0.00     0.181 A 
HETATM    8  O1  UNL     1      19.789   5.755  48.473  1.00  0.00    -0.172 OA
HETATM    9  N4  UNL     1      21.447   4.996  50.351  1.00  0.00    -0.322 N 
HETATM   10  C10 UNL     1      22.513   5.536  49.640  1.00  0.00     0.138 C 
HETATM   11  C11 UNL     1      23.848   5.849  50.066  1.00  0.00     0.030 C 
HETATM   12  C13 UNL     1      24.892   4.962  50.546  1.00  0.00     0.037 C 
HETATM   13  C14 UNL     1      25.247   3.656  50.000  1.00  0.00     0.203 C 
HETATM   14  O3  UNL     1      24.381   2.606  49.953  1.00  0.00    -0.260 OA
HETATM   15  N5  UNL     1      23.955   2.270  51.193  1.00  0.00    -0.058 N 
HETATM   16  C15 UNL     1      23.168   1.060  51.446  1.00  0.00     0.159 C 
HETATM   17  C16 UNL     1      22.005   1.134  52.195  1.00  0.00     0.110 C 
HETATM   18  N6  UNL     1      21.263   2.412  52.522  1.00  0.00    -0.347 N 
HETATM   19  H20 UNL     1      20.366   2.370  52.962  1.00  0.00     0.167 HD
ENDROOT
BRANCH   1  20
HETATM   20  N2  UNL     1      25.165   3.164  53.354  1.00  0.00    -0.185 N 
HETATM   21  H5  UNL     1      25.118   4.107  53.757  1.00  0.00     0.184 HD
BRANCH  20  22
HETATM   22  C3  UNL     1      25.948   2.035  53.609  1.00  0.00     0.085 A 
HETATM   23  C2  UNL     1      27.306   2.162  53.420  1.00  0.00     0.143 A 
HETATM   24  N1  UNL     1      27.874   0.965  53.718  1.00  0.00    -0.283 N 
HETATM   25  C1  UNL     1      29.300   0.620  53.664  1.00  0.00     0.179 C 
HETATM   26  N7  UNL     1      26.918   0.122  54.079  1.00  0.00    -0.183 NA
HETATM   27  C17 UNL     1      25.738   0.750  54.022  1.00  0.00     0.170 A 
ENDBRANCH  20  22
ENDBRANCH   1  20
BRANCH  11  28
HETATM   28  C12 UNL     1      23.706   7.027  51.125  1.00  0.00     0.170 C 
BRANCH  28  29
HETATM   29  O2  UNL     1      24.516   6.622  52.180  1.00  0.00    -0.400 OA
HETATM   30  H13 UNL     1      25.374   6.279  51.825  1.00  0.00     0.209 HD
ENDBRANCH  28  29
ENDBRANCH  11  28
TORSDOF 4
ENDMDL
MODEL 5
REMARK VINA RESULT:      -7.2      3.436      6.669
REMARK  4 active torsions:
REMARK  status: ('A' for Active; 'I' for Inactive)
REMARK    1  A    between atoms: C3_4  and  N2_5 
REMARK    2  A    between atoms: N2_5  and  C4_6 
REMARK    3  A    between atoms: C11_16  and  C12_17 
REMARK    4  A    between atoms: C12_17  and  O2_18 
ROOT
HETATM    1  C4  UNL     1      20.635   0.779  51.698  1.00  0.00     0.733 C 
HETATM    2  N3  UNL     1      21.899   0.593  51.608  1.00  0.00    -0.042 NA
HETATM    3  C5  UNL     1      22.815  -0.052  52.440  1.00  0.00     0.173 C 
HETATM    4  C6  UNL     1      24.017   0.142  52.935  1.00  0.00     0.083 A 
HETATM    5  C7  UNL     1      24.963  -0.545  53.763  1.00  0.00     0.038 A 
HETATM    6  C8  UNL     1      25.836   0.294  54.228  1.00  0.00     0.061 A 
HETATM    7  C9  UNL     1      25.464   1.588  53.700  1.00  0.00     0.181 A 
HETATM    8  O1  UNL     1      26.338   2.437  54.164  1.00  0.00    -0.172 OA
HETATM    9  N4  UNL     1      24.259   1.573  52.828  1.00  0.00    -0.322 N 
HETATM   10  C10 UNL     1      23.958   2.874  52.439  1.00  0.00     0.138 C 
HETATM   11  C11 UNL     1      23.091   3.354  51.400  1.00  0.00     0.030 C 
HETATM   12  C13 UNL     1      21.654   3.205  51.258  1.00  0.00     0.037 C 
HETATM   13  C14 UNL     1      20.655   3.335  52.313  1.00  0.00     0.203 C 
HETATM   14  O3  UNL     1      20.626   2.538  53.417  1.00  0.00    -0.260 OA
HETATM   15  N5  UNL     1      20.484   1.236  53.075  1.00  0.00    -0.058 N 
HETATM   16  C15 UNL     1      20.236   0.190  54.071  1.00  0.00     0.159 C 
HETATM   17  C16 UNL     1      20.997  -0.966  54.065  1.00  0.00     0.110 C 
HETATM   18  N6  UNL     1      22.308  -1.140  53.327  1.00  0.00    -0.347 N 
HETATM   19  H20 UNL     1      22.858  -1.962  53.472  1.00  0.00     0.167 HD
ENDROOT
BRANCH   1  20
HETATM   20  N2  UNL     1      19.748   0.523  50.649  1.00  0.00    -0.185 N 
HETATM   21  H5  UNL     1      20.328   0.416  49.809  1.00  0.00     0.184 HD
BRANCH  20  22
HETATM   22  C3  UNL     1      18.375   0.465  50.897  1.00  0.00     0.085 A 
HETATM   23  C2  UNL     1      17.608   1.499  50.410  1.00  0.00     0.143 A 
HETATM   24  N1  UNL     1      16.318   1.251  50.757  1.00  0.00    -0.283 N 
HETATM   25  C1  UNL     1      15.143   2.077  50.456  1.00  0.00     0.179 C 
HETATM   26  N7  UNL     1      16.274   0.113  51.433  1.00  0.00    -0.183 NA
HETATM   27  C17 UNL     1      17.513  -0.385  51.531  1.00  0.00     0.170 A 
ENDBRANCH  20  22
ENDBRANCH   1  20
BRANCH  11  28
HETATM   28  C12 UNL     1      23.752   2.893  50.029  1.00  0.00     0.170 C 
BRANCH  28  29
HETATM   29  O2  UNL     1      22.692   2.330  49.326  1.00  0.00    -0.400 OA
HETATM   30  H13 UNL     1      22.873   2.386  48.355  1.00  0.00     0.209 HD
ENDBRANCH  28  29
ENDBRANCH  11  28
TORSDOF 4
ENDMDL
MODEL 6
REMARK VINA RESULT:      -7.1      8.241     10.897
REMARK  4 active torsions:
REMARK  status: ('A' for Active; 'I' for Inactive)
REMARK    1  A    between atoms: C3_4  and  N2_5 
REMARK    2  A    between atoms: N2_5  and  C4_6 
REMARK    3  A    between atoms: C11_16  and  C12_17 
REMARK    4  A    between atoms: C12_17  and  O2_18 
ROOT
HETATM    1  C4  UNL     1      30.248   8.216  48.917  1.00  0.00     0.733 C 
HETATM    2  N3  UNL     1      29.288   8.984  49.280  1.00  0.00    -0.042 NA
HETATM    3  C5  UNL     1      27.902   8.823  49.269  1.00  0.00     0.173 C 
HETATM    4  C6  UNL     1      26.824   9.502  48.947  1.00  0.00     0.083 A 
HETATM    5  C7  UNL     1      25.402   9.340  48.972  1.00  0.00     0.038 A 
HETATM    6  C8  UNL     1      24.843  10.197  48.176  1.00  0.00     0.061 A 
HETATM    7  C9  UNL     1      25.924  10.960  47.593  1.00  0.00     0.181 A 
HETATM    8  O1  UNL     1      25.368  11.825  46.790  1.00  0.00    -0.172 OA
HETATM    9  N4  UNL     1      27.279  10.559  48.054  1.00  0.00    -0.322 N 
HETATM   10  C10 UNL     1      28.235  11.309  47.377  1.00  0.00     0.138 C 
HETATM   11  C11 UNL     1      29.630  11.500  47.655  1.00  0.00     0.030 C 
HETATM   12  C13 UNL     1      30.708  10.528  47.667  1.00  0.00     0.037 C 
HETATM   13  C14 UNL     1      30.928   9.457  46.701  1.00  0.00     0.203 C 
HETATM   14  O3  UNL     1      30.031   8.456  46.479  1.00  0.00    -0.260 OA
HETATM   15  N5  UNL     1      29.798   7.750  47.610  1.00  0.00    -0.058 N 
HETATM   16  C15 UNL     1      29.022   6.508  47.609  1.00  0.00     0.159 C 
HETATM   17  C16 UNL     1      27.997   6.330  48.523  1.00  0.00     0.110 C 
HETATM   18  N6  UNL     1      27.359   7.435  49.338  1.00  0.00    -0.347 N 
HETATM   19  H20 UNL     1      26.544   7.245  49.885  1.00  0.00     0.167 HD
ENDROOT
BRANCH   1  20
HETATM   20  N2  UNL     1      31.367   7.965  49.714  1.00  0.00    -0.185 N 
HETATM   21  H5  UNL     1      31.095   8.215  50.671  1.00  0.00     0.184 HD
BRANCH  20  22
HETATM   22  C3  UNL     1      32.538   7.471  49.133  1.00  0.00     0.085 A 
HETATM   23  C2  UNL     1      32.648   6.104  49.015  1.00  0.00     0.143 A 
HETATM   24  N1  UNL     1      33.846   5.838  48.433  1.00  0.00    -0.283 N 
HETATM   25  C1  UNL     1      34.402   4.520  48.106  1.00  0.00     0.179 C 
HETATM   26  N7  UNL     1      34.463   6.986  48.194  1.00  0.00    -0.183 NA
HETATM   27  C17 UNL     1      33.687   7.994  48.610  1.00  0.00     0.170 A 
ENDBRANCH  20  22
ENDBRANCH   1  20
BRANCH  11  28
HETATM   28  C12 UNL     1      29.699  12.298  49.029  1.00  0.00     0.170 C 
BRANCH  28  29
HETATM   29  O2  UNL     1      30.668  11.616  49.758  1.00  0.00    -0.400 OA
HETATM   30  H13 UNL     1      31.130  10.969  49.169  1.00  0.00     0.209 HD
ENDBRANCH  28  29
ENDBRANCH  11  28
TORSDOF 4
ENDMDL
MODEL 7
REMARK VINA RESULT:      -7.1      6.420     10.766
REMARK  4 active torsions:
REMARK  status: ('A' for Active; 'I' for Inactive)
REMARK    1  A    between atoms: C3_4  and  N2_5 
REMARK    2  A    between atoms: N2_5  and  C4_6 
REMARK    3  A    between atoms: C11_16  and  C12_17 
REMARK    4  A    between atoms: C12_17  and  O2_18 
ROOT
HETATM    1  C4  UNL     1      28.387   8.666  49.041  1.00  0.00     0.733 C 
HETATM    2  N3  UNL     1      29.618   9.001  49.163  1.00  0.00    -0.042 NA
HETATM    3  C5  UNL     1      30.372  10.026  48.593  1.00  0.00     0.173 C 
HETATM    4  C6  UNL     1      31.549  10.204  48.033  1.00  0.00     0.083 A 
HETATM    5  C7  UNL     1      32.328  11.271  47.481  1.00  0.00     0.038 A 
HETATM    6  C8  UNL     1      33.268  10.790  46.729  1.00  0.00     0.061 A 
HETATM    7  C9  UNL     1      33.116   9.352  46.773  1.00  0.00     0.181 A 
HETATM    8  O1  UNL     1      34.060   8.862  46.017  1.00  0.00    -0.172 OA
HETATM    9  N4  UNL     1      31.991   8.879  47.621  1.00  0.00    -0.322 N 
HETATM   10  C10 UNL     1      31.898   7.494  47.529  1.00  0.00     0.138 C 
HETATM   11  C11 UNL     1      31.186   6.556  48.351  1.00  0.00     0.030 C 
HETATM   12  C13 UNL     1      29.756   6.425  48.569  1.00  0.00     0.037 C 
HETATM   13  C14 UNL     1      28.707   6.518  47.560  1.00  0.00     0.203 C 
HETATM   14  O3  UNL     1      28.487   7.633  46.811  1.00  0.00    -0.260 OA
HETATM   15  N5  UNL     1      28.196   8.698  47.596  1.00  0.00    -0.058 N 
HETATM   16  C15 UNL     1      27.734   9.972  47.041  1.00  0.00     0.159 C 
HETATM   17  C16 UNL     1      28.331  11.158  47.439  1.00  0.00     0.110 C 
HETATM   18  N6  UNL     1      29.657  11.263  48.160  1.00  0.00    -0.347 N 
HETATM   19  H20 UNL     1      30.079  12.158  48.303  1.00  0.00     0.167 HD
ENDROOT
BRANCH   1  20
HETATM   20  N2  UNL     1      27.556   8.403  50.133  1.00  0.00    -0.185 N 
HETATM   21  H5  UNL     1      28.154   8.468  50.965  1.00  0.00     0.184 HD
BRANCH  20  22
HETATM   22  C3  UNL     1      26.203   8.125  49.926  1.00  0.00     0.085 A 
HETATM   23  C2  UNL     1      25.830   6.800  49.928  1.00  0.00     0.143 A 
HETATM   24  N1  UNL     1      24.491   6.751  49.712  1.00  0.00    -0.283 N 
HETATM   25  C1  UNL     1      23.646   5.553  49.631  1.00  0.00     0.179 C 
HETATM   26  N7  UNL     1      24.039   7.989  49.580  1.00  0.00    -0.183 NA
HETATM   27  C17 UNL     1      25.062   8.843  49.707  1.00  0.00     0.170 A 
ENDBRANCH  20  22
ENDBRANCH   1  20
BRANCH  11  28
HETATM   28  C12 UNL     1      31.879   6.609  49.781  1.00  0.00     0.170 C 
BRANCH  28  29
HETATM   29  O2  UNL     1      31.387   5.480  50.427  1.00  0.00    -0.400 OA
HETATM   30  H13 UNL     1      30.511   5.234  50.040  1.00  0.00     0.209 HD
ENDBRANCH  28  29
ENDBRANCH  11  28
TORSDOF 4
ENDMDL
MODEL 8
REMARK VINA RESULT:      -7.0      2.773      3.901
REMARK  4 active torsions:
REMARK  status: ('A' for Active; 'I' for Inactive)
REMARK    1  A    between atoms: C3_4  and  N2_5 
REMARK    2  A    between atoms: N2_5  and  C4_6 
REMARK    3  A    between atoms: C11_16  and  C12_17 
REMARK    4  A    between atoms: C12_17  and  O2_18 
ROOT
HETATM    1  C4  UNL     1      24.375   4.764  50.612  1.00  0.00     0.733 C 
HETATM    2  N3  UNL     1      24.089   3.552  50.309  1.00  0.00    -0.042 NA
HETATM    3  C5  UNL     1      23.053   2.991  49.563  1.00  0.00     0.173 C 
HETATM    4  C6  UNL     1      22.209   1.985  49.632  1.00  0.00     0.083 A 
HETATM    5  C7  UNL     1      21.170   1.396  48.842  1.00  0.00     0.038 A 
HETATM    6  C8  UNL     1      20.423   0.640  49.584  1.00  0.00     0.061 A 
HETATM    7  C9  UNL     1      20.975   0.723  50.918  1.00  0.00     0.181 A 
HETATM    8  O1  UNL     1      20.228  -0.036  51.671  1.00  0.00    -0.172 OA
HETATM    9  N4  UNL     1      22.169   1.602  51.036  1.00  0.00    -0.322 N 
HETATM   10  C10 UNL     1      22.566   1.660  52.367  1.00  0.00     0.138 C 
HETATM   11  C11 UNL     1      23.794   2.126  52.949  1.00  0.00     0.030 C 
HETATM   12  C13 UNL     1      24.369   3.459  52.939  1.00  0.00     0.037 C 
HETATM   13  C14 UNL     1      23.659   4.717  53.141  1.00  0.00     0.203 C 
HETATM   14  O3  UNL     1      22.655   5.148  52.328  1.00  0.00    -0.260 OA
HETATM   15  N5  UNL     1      23.087   5.288  51.053  1.00  0.00    -0.058 N 
HETATM   16  C15 UNL     1      22.265   5.914  50.015  1.00  0.00     0.159 C 
HETATM   17  C16 UNL     1      22.096   5.287  48.792  1.00  0.00     0.110 C 
HETATM   18  N6  UNL     1      22.413   3.833  48.510  1.00  0.00    -0.347 N 
HETATM   19  H20 UNL     1      22.149   3.425  47.637  1.00  0.00     0.167 HD
ENDROOT
BRANCH   1  20
HETATM   20  N2  UNL     1      25.653   5.307  50.464  1.00  0.00    -0.185 N 
HETATM   21  H5  UNL     1      26.295   4.651  50.923  1.00  0.00     0.184 HD
BRANCH  20  22
HETATM   22  C3  UNL     1      25.820   6.519  49.790  1.00  0.00     0.085 A 
HETATM   23  C2  UNL     1      25.649   6.504  48.424  1.00  0.00     0.143 A 
HETATM   24  N1  UNL     1      25.855   7.767  47.971  1.00  0.00    -0.283 N 
HETATM   25  C1  UNL     1      25.781   8.236  46.582  1.00  0.00     0.179 C 
HETATM   26  N7  UNL     1      26.142   8.545  49.004  1.00  0.00    -0.183 NA
HETATM   27  C17 UNL     1      26.126   7.809  50.122  1.00  0.00     0.170 A 
ENDBRANCH  20  22
ENDBRANCH   1  20
BRANCH  11  28
HETATM   28  C12 UNL     1      24.923   1.121  52.456  1.00  0.00     0.170 C 
BRANCH  28  29
HETATM   29  O2  UNL     1      25.957   1.959  52.053  1.00  0.00    -0.400 OA
HETATM   30  H13 UNL     1      26.531   2.172  52.829  1.00  0.00     0.209 HD
ENDBRANCH  28  29
ENDBRANCH  11  28
TORSDOF 4
ENDMDL
MODEL 9
REMARK VINA RESULT:      -7.0      8.765     11.308
REMARK  4 active torsions:
REMARK  status: ('A' for Active; 'I' for Inactive)
REMARK    1  A    between atoms: C3_4  and  N2_5 
REMARK    2  A    between atoms: N2_5  and  C4_6 
REMARK    3  A    between atoms: C11_16  and  C12_17 
REMARK    4  A    between atoms: C12_17  and  O2_18 
ROOT
HETATM    1  C4  UNL     1      30.923   8.097  48.661  1.00  0.00     0.733 C 
HETATM    2  N3  UNL     1      31.742   8.174  47.678  1.00  0.00    -0.042 NA
HETATM    3  C5  UNL     1      31.584   7.971  46.308  1.00  0.00     0.173 C 
HETATM    4  C6  UNL     1      32.202   7.375  45.312  1.00  0.00     0.083 A 
HETATM    5  C7  UNL     1      32.048   7.203  43.898  1.00  0.00     0.038 A 
HETATM    6  C8  UNL     1      32.762   6.198  43.494  1.00  0.00     0.061 A 
HETATM    7  C9  UNL     1      33.416   5.676  44.673  1.00  0.00     0.181 A 
HETATM    8  O1  UNL     1      34.137   4.664  44.273  1.00  0.00    -0.172 OA
HETATM    9  N4  UNL     1      33.095   6.404  45.929  1.00  0.00    -0.322 N 
HETATM   10  C10 UNL     1      33.720   5.773  46.999  1.00  0.00     0.138 C 
HETATM   11  C11 UNL     1      33.953   6.233  48.339  1.00  0.00     0.030 C 
HETATM   12  C13 UNL     1      32.994   6.574  49.375  1.00  0.00     0.037 C 
HETATM   13  C14 UNL     1      31.777   5.843  49.711  1.00  0.00     0.203 C 
HETATM   14  O3  UNL     1      30.755   5.649  48.833  1.00  0.00    -0.260 OA
HETATM   15  N5  UNL     1      30.247   6.830  48.407  1.00  0.00    -0.058 N 
HETATM   16  C15 UNL     1      29.023   6.910  47.606  1.00  0.00     0.159 C 
HETATM   17  C16 UNL     1      29.001   7.667  46.447  1.00  0.00     0.110 C 
HETATM   18  N6  UNL     1      30.227   8.180  45.721  1.00  0.00    -0.347 N 
HETATM   19  H20 UNL     1      30.133   8.615  44.826  1.00  0.00     0.167 HD
ENDROOT
BRANCH   1  20
HETATM   20  N2  UNL     1      30.805   9.091  49.636  1.00  0.00    -0.185 N 
HETATM   21  H5  UNL     1      31.139   8.670  50.511  1.00  0.00     0.184 HD
BRANCH  20  22
HETATM   22  C3  UNL     1      30.306  10.349  49.290  1.00  0.00     0.085 A 
HETATM   23  C2  UNL     1      28.968  10.425  48.977  1.00  0.00     0.143 A 
HETATM   24  N1  UNL     1      28.691  11.719  48.674  1.00  0.00    -0.283 N 
HETATM   25  C1  UNL     1      27.394  12.282  48.279  1.00  0.00     0.179 C 
HETATM   26  N7  UNL     1      29.804  12.427  48.790  1.00  0.00    -0.183 NA
HETATM   27  C17 UNL     1      30.801  11.616  49.165  1.00  0.00     0.170 A 
ENDBRANCH  20  22
ENDBRANCH   1  20
BRANCH  11  28
HETATM   28  C12 UNL     1      34.967   7.451  48.216  1.00  0.00     0.170 C 
BRANCH  28  29
HETATM   29  O2  UNL     1      36.074   7.033  48.947  1.00  0.00    -0.400 OA
HETATM   30  H13 UNL     1      35.773   6.515  49.734  1.00  0.00     0.209 HD
ENDBRANCH  28  29
ENDBRANCH  11  28
TORSDOF 4
ENDMDL
