MODEL 1
REMARK VINA RESULT:      -8.2      0.000      0.000
REMARK  4 active torsions:
REMARK  status: ('A' for Active; 'I' for Inactive)
REMARK    1  A    between atoms: C2_2  and  C3_3 
REMARK       I    between atoms: C3_3  and  N1_5 
REMARK    2  A    between atoms: N1_5  and  C4_6 
REMARK    3  A    between atoms: C9_13  and  N4_14 
REMARK    4  A    between atoms: N4_14  and  C10_15 
ROOT
HETATM    1  C4  UNL     1      25.199   0.521  53.098  1.00  0.00     0.013 C 
HETATM    2  C5  UNL     1      24.287  -0.420  52.979  1.00  0.00     0.005 C 
HETATM    3  C6  UNL     1      22.816  -0.075  53.002  1.00  0.00     0.089 C 
HETATM    4  C7  UNL     1      22.760   1.075  52.020  1.00  0.00     0.049 A 
HETATM    5  N2  UNL     1      21.817   1.104  51.044  1.00  0.00    -0.245 NA
HETATM    6  C8  UNL     1      21.768   2.136  50.158  1.00  0.00     0.235 A 
HETATM    7  N3  UNL     1      22.679   3.099  50.298  1.00  0.00    -0.224 NA
HETATM    8  C9  UNL     1      23.643   3.165  51.222  1.00  0.00     0.138 A 
HETATM    9  C16 UNL     1      23.697   2.104  52.136  1.00  0.00     0.018 A 
HETATM   10  C17 UNL     1      24.643   1.912  53.258  1.00  0.00     0.101 C 
ENDROOT
BRANCH   8  11
HETATM   11  N4  UNL     1      24.613   4.179  51.382  1.00  0.00    -0.340 N 
HETATM   12  H9  UNL     1      24.747   4.654  52.276  1.00  0.00     0.167 HD
BRANCH  11  13
HETATM   13  C10 UNL     1      25.505   4.682  50.403  1.00  0.00     0.035 A 
HETATM   14  C11 UNL     1      26.485   3.928  49.795  1.00  0.00     0.029 A 
HETATM   15  C12 UNL     1      27.361   4.397  48.844  1.00  0.00     0.004 A 
HETATM   16  C13 UNL     1      27.285   5.704  48.445  1.00  0.00     0.019 A 
HETATM   17  C14 UNL     1      26.334   6.509  49.010  1.00  0.00     0.013 A 
HETATM   18 BR1  UNL     1      26.201   8.314  48.486  1.00  0.00    -0.051 Br
HETATM   19  C15 UNL     1      25.492   5.983  49.952  1.00  0.00     0.048 A 
ENDBRANCH  11  13
ENDBRANCH   8  11
BRANCH   1  20
HETATM   20  N1  UNL     1      26.606   0.370  53.096  1.00  0.00    -0.328 N 
HETATM   21  C3  UNL     1      27.493  -0.067  54.096  1.00  0.00     0.241 C 
HETATM   22  O1  UNL     1      27.006  -0.392  55.197  1.00  0.00    -0.269 OA
HETATM   23  H4  UNL     1      27.126   0.617  52.208  1.00  0.00     0.169 HD
BRANCH  21  24
HETATM   24  C2  UNL     1      28.920  -0.164  53.925  1.00  0.00     0.048 C 
HETATM   25  C1  UNL     1      30.072  -0.679  53.529  1.00  0.00     0.037 C 
ENDBRANCH  21  24
ENDBRANCH   1  20
TORSDOF 4
ENDMDL
MODEL 2
REMARK VINA RESULT:      -8.0      3.506      6.039
REMARK  4 active torsions:
REMARK  status: ('A' for Active; 'I' for Inactive)
REMARK    1  A    between atoms: C2_2  and  C3_3 
REMARK       I    between atoms: C3_3  and  N1_5 
REMARK    2  A    between atoms: N1_5  and  C4_6 
REMARK    3  A    between atoms: C9_13  and  N4_14 
REMARK    4  A    between atoms: N4_14  and  C10_15 
ROOT
HETATM    1  C4  UNL     1      21.525   2.076  52.303  1.00  0.00     0.013 C 
HETATM    2  C5  UNL     1      20.512   1.744  53.074  1.00  0.00     0.005 C 
HETATM    3  C6  UNL     1      20.255   0.297  53.428  1.00  0.00     0.089 C 
HETATM    4  C7  UNL     1      21.633  -0.160  53.854  1.00  0.00     0.049 A 
HETATM    5  N2  UNL     1      21.803  -0.859  55.005  1.00  0.00    -0.245 NA
HETATM    6  C8  UNL     1      23.042  -1.268  55.392  1.00  0.00     0.235 A 
HETATM    7  N3  UNL     1      24.062  -0.949  54.594  1.00  0.00    -0.224 NA
HETATM    8  C9  UNL     1      24.000  -0.269  53.446  1.00  0.00     0.138 A 
HETATM    9  C16 UNL     1      22.726   0.153  53.044  1.00  0.00     0.018 A 
HETATM   10  C17 UNL     1      22.356   0.913  51.828  1.00  0.00     0.101 C 
ENDROOT
BRANCH   8  11
HETATM   11  N4  UNL     1      25.071   0.074  52.592  1.00  0.00    -0.340 N 
HETATM   12  H9  UNL     1      24.979   0.033  51.575  1.00  0.00     0.167 HD
BRANCH  11  13
HETATM   13  C10 UNL     1      26.369   0.502  52.964  1.00  0.00     0.035 A 
HETATM   14  C11 UNL     1      26.711   1.817  53.188  1.00  0.00     0.029 A 
HETATM   15  C12 UNL     1      27.965   2.254  53.550  1.00  0.00     0.004 A 
HETATM   16  C13 UNL     1      28.974   1.344  53.709  1.00  0.00     0.019 A 
HETATM   17  C14 UNL     1      28.703   0.019  53.501  1.00  0.00     0.013 A 
HETATM   18 BR1  UNL     1      30.068  -1.263  53.710  1.00  0.00    -0.051 Br
HETATM   19  C15 UNL     1      27.436  -0.352  53.142  1.00  0.00     0.048 A 
ENDBRANCH  11  13
ENDBRANCH   8  11
BRANCH   1  20
HETATM   20  N1  UNL     1      21.903   3.372  51.880  1.00  0.00    -0.328 N 
HETATM   21  C3  UNL     1      22.992   4.186  52.241  1.00  0.00     0.241 C 
HETATM   22  O1  UNL     1      23.798   3.732  53.077  1.00  0.00    -0.269 OA
HETATM   23  H4  UNL     1      21.288   3.856  51.166  1.00  0.00     0.169 HD
BRANCH  21  24
HETATM   24  C2  UNL     1      23.232   5.501  51.705  1.00  0.00     0.048 C 
HETATM   25  C1  UNL     1      23.907   6.484  51.133  1.00  0.00     0.037 C 
ENDBRANCH  21  24
ENDBRANCH   1  20
TORSDOF 4
ENDMDL
MODEL 3
REMARK VINA RESULT:      -7.7      2.451      3.861
REMARK  4 active torsions:
REMARK  status: ('A' for Active; 'I' for Inactive)
REMARK    1  A    between atoms: C2_2  and  C3_3 
REMARK       I    between atoms: C3_3  and  N1_5 
REMARK    2  A    between atoms: N1_5  and  C4_6 
REMARK    3  A    between atoms: C9_13  and  N4_14 
REMARK    4  A    between atoms: N4_14  and  C10_15 
ROOT
HETATM    1  C4  UNL     1      25.818   2.297  52.106  1.00  0.00     0.013 C 
HETATM    2  C5  UNL     1      25.973   1.010  52.336  1.00  0.00     0.005 C 
HETATM    3  C6  UNL     1      25.077   0.290  53.317  1.00  0.00     0.089 C 
HETATM    4  C7  UNL     1      23.708   0.758  52.877  1.00  0.00     0.049 A 
HETATM    5  N2  UNL     1      22.697  -0.132  52.703  1.00  0.00    -0.245 NA
HETATM    6  C8  UNL     1      21.466   0.287  52.304  1.00  0.00     0.235 A 
HETATM    7  N3  UNL     1      21.308   1.594  52.095  1.00  0.00    -0.224 NA
HETATM    8  C9  UNL     1      22.233   2.548  52.239  1.00  0.00     0.138 A 
HETATM    9  C16 UNL     1      23.503   2.121  52.650  1.00  0.00     0.018 A 
HETATM   10  C17 UNL     1      24.709   2.943  52.895  1.00  0.00     0.101 C 
ENDROOT
BRANCH   8  11
HETATM   11  N4  UNL     1      22.079   3.934  52.023  1.00  0.00    -0.340 N 
HETATM   12  H9  UNL     1      21.609   4.533  52.704  1.00  0.00     0.167 HD
BRANCH  11  13
HETATM   13  C10 UNL     1      22.515   4.688  50.905  1.00  0.00     0.035 A 
HETATM   14  C11 UNL     1      22.084   4.471  49.615  1.00  0.00     0.029 A 
HETATM   15  C12 UNL     1      22.494   5.189  48.516  1.00  0.00     0.004 A 
HETATM   16  C13 UNL     1      23.397   6.206  48.677  1.00  0.00     0.019 A 
HETATM   17  C14 UNL     1      23.866   6.476  49.933  1.00  0.00     0.013 A 
HETATM   18 BR1  UNL     1      25.111   7.867  50.192  1.00  0.00    -0.051 Br
HETATM   19  C15 UNL     1      23.420   5.724  50.985  1.00  0.00     0.048 A 
ENDBRANCH  11  13
ENDBRANCH   8  11
BRANCH   1  20
HETATM   20  N1  UNL     1      26.564   3.115  51.226  1.00  0.00    -0.328 N 
HETATM   21  C3  UNL     1      26.312   3.532  49.907  1.00  0.00     0.241 C 
HETATM   22  O1  UNL     1      25.256   3.140  49.370  1.00  0.00    -0.269 OA
HETATM   23  H4  UNL     1      27.483   3.507  51.578  1.00  0.00     0.169 HD
BRANCH  21  24
HETATM   24  C2  UNL     1      27.191   4.380  49.143  1.00  0.00     0.048 C 
HETATM   25  C1  UNL     1      27.584   5.458  48.487  1.00  0.00     0.037 C 
ENDBRANCH  21  24
ENDBRANCH   1  20
TORSDOF 4
ENDMDL
MODEL 4
REMARK VINA RESULT:      -7.6      3.426      5.967
REMARK  4 active torsions:
REMARK  status: ('A' for Active; 'I' for Inactive)
REMARK    1  A    between atoms: C2_2  and  C3_3 
REMARK       I    between atoms: C3_3  and  N1_5 
REMARK    2  A    between atoms: N1_5  and  C4_6 
REMARK    3  A    between atoms: C9_13  and  N4_14 
REMARK    4  A    between atoms: N4_14  and  C10_15 
ROOT
HETATM    1  C4  UNL     1      24.203   3.531  51.284  1.00  0.00     0.013 C 
HETATM    2  C5  UNL     1      23.844   4.786  51.113  1.00  0.00     0.005 C 
HETATM    3  C6  UNL     1      22.673   5.138  50.226  1.00  0.00     0.089 C 
HETATM    4  C7  UNL     1      21.617   4.174  50.721  1.00  0.00     0.049 A 
HETATM    5  N2  UNL     1      20.362   4.609  51.001  1.00  0.00    -0.245 NA
HETATM    6  C8  UNL     1      19.412   3.745  51.450  1.00  0.00     0.235 A 
HETATM    7  N3  UNL     1      19.775   2.470  51.599  1.00  0.00    -0.224 NA
HETATM    8  C9  UNL     1      20.978   1.943  51.351  1.00  0.00     0.138 A 
HETATM    9  C16 UNL     1      21.958   2.830  50.888  1.00  0.00     0.018 A 
HETATM   10  C17 UNL     1      23.364   2.534  50.530  1.00  0.00     0.101 C 
ENDROOT
BRANCH   8  11
HETATM   11  N4  UNL     1      21.374   0.596  51.503  1.00  0.00    -0.340 N 
HETATM   12  H9  UNL     1      21.336  -0.064  50.724  1.00  0.00     0.167 HD
BRANCH  11  13
HETATM   13  C10 UNL     1      21.856  -0.035  52.676  1.00  0.00     0.035 A 
HETATM   14  C11 UNL     1      21.057  -0.709  53.571  1.00  0.00     0.029 A 
HETATM   15  C12 UNL     1      21.504  -1.328  54.716  1.00  0.00     0.004 A 
HETATM   16  C13 UNL     1      22.838  -1.293  55.021  1.00  0.00     0.019 A 
HETATM   17  C14 UNL     1      23.689  -0.639  54.173  1.00  0.00     0.013 A 
HETATM   18 BR1  UNL     1      25.532  -0.571  54.561  1.00  0.00    -0.051 Br
HETATM   19  C15 UNL     1      23.182  -0.043  53.051  1.00  0.00     0.048 A 
ENDBRANCH  11  13
ENDBRANCH   8  11
BRANCH   1  20
HETATM   20  N1  UNL     1      25.266   3.035  52.075  1.00  0.00    -0.328 N 
HETATM   21  C3  UNL     1      26.562   2.614  51.728  1.00  0.00     0.241 C 
HETATM   22  O1  UNL     1      26.884   2.670  50.525  1.00  0.00    -0.269 OA
HETATM   23  H4  UNL     1      25.103   2.945  53.117  1.00  0.00     0.169 HD
BRANCH  21  24
HETATM   24  C2  UNL     1      27.535   2.129  52.673  1.00  0.00     0.048 C 
HETATM   25  C1  UNL     1      28.533   2.187  53.540  1.00  0.00     0.037 C 
ENDBRANCH  21  24
ENDBRANCH   1  20
TORSDOF 4
ENDMDL
MODEL 5
REMARK VINA RESULT:      -7.5      2.677      5.250
REMARK  4 active torsions:
REMARK  status: ('A' for Active; 'I' for Inactive)
REMARK    1  A    between atoms: C2_2  and  C3_3 
REMARK       I    between atoms: C3_3  and  N1_5 
REMARK    2  A    between atoms: N1_5  and  C4_6 
REMARK    3  A    between atoms: C9_13  and  N4_14 
REMARK    4  A    between atoms: N4_14  and  C10_15 
ROOT
HETATM    1  C4  UNL     1      22.988   3.033  51.481  1.00  0.00     0.013 C 
HETATM    2  C5  UNL     1      22.872   2.587  52.713  1.00  0.00     0.005 C 
HETATM    3  C6  UNL     1      23.676   1.395  53.179  1.00  0.00     0.089 C 
HETATM    4  C7  UNL     1      25.064   1.759  52.699  1.00  0.00     0.049 A 
HETATM    5  N2  UNL     1      26.132   1.651  53.528  1.00  0.00    -0.245 NA
HETATM    6  C8  UNL     1      27.381   1.981  53.099  1.00  0.00     0.235 A 
HETATM    7  N3  UNL     1      27.495   2.410  51.841  1.00  0.00    -0.224 NA
HETATM    8  C9  UNL     1      26.511   2.550  50.948  1.00  0.00     0.138 A 
HETATM    9  C16 UNL     1      25.224   2.211  51.387  1.00  0.00     0.018 A 
HETATM   10  C17 UNL     1      23.956   2.260  50.625  1.00  0.00     0.101 C 
ENDROOT
BRANCH   8  11
HETATM   11  N4  UNL     1      26.618   3.001  49.614  1.00  0.00    -0.340 N 
HETATM   12  H9  UNL     1      26.635   2.349  48.828  1.00  0.00     0.167 HD
BRANCH  11  13
HETATM   13  C10 UNL     1      26.717   4.340  49.161  1.00  0.00     0.035 A 
HETATM   14  C11 UNL     1      25.661   5.224  49.137  1.00  0.00     0.029 A 
HETATM   15  C12 UNL     1      25.735   6.526  48.701  1.00  0.00     0.004 A 
HETATM   16  C13 UNL     1      26.930   7.018  48.250  1.00  0.00     0.019 A 
HETATM   17  C14 UNL     1      28.021   6.192  48.247  1.00  0.00     0.013 A 
HETATM   18 BR1  UNL     1      29.683   6.834  47.632  1.00  0.00    -0.051 Br
HETATM   19  C15 UNL     1      27.882   4.906  48.693  1.00  0.00     0.048 A 
ENDBRANCH  11  13
ENDBRANCH   8  11
BRANCH   1  20
HETATM   20  N1  UNL     1      22.314   4.128  50.890  1.00  0.00    -0.328 N 
HETATM   21  C3  UNL     1      22.510   5.515  51.012  1.00  0.00     0.241 C 
HETATM   22  O1  UNL     1      23.428   5.903  51.762  1.00  0.00    -0.269 OA
HETATM   23  H4  UNL     1      21.513   3.915  50.231  1.00  0.00     0.169 HD
BRANCH  21  24
HETATM   24  C2  UNL     1      21.722   6.508  50.328  1.00  0.00     0.048 C 
HETATM   25  C1  UNL     1      20.660   7.035  49.742  1.00  0.00     0.037 C 
ENDBRANCH  21  24
ENDBRANCH   1  20
TORSDOF 4
ENDMDL
MODEL 6
REMARK VINA RESULT:      -7.3      3.202      5.803
REMARK  4 active torsions:
REMARK  status: ('A' for Active; 'I' for Inactive)
REMARK    1  A    between atoms: C2_2  and  C3_3 
REMARK       I    between atoms: C3_3  and  N1_5 
REMARK    2  A    between atoms: N1_5  and  C4_6 
REMARK    3  A    between atoms: C9_13  and  N4_14 
REMARK    4  A    between atoms: N4_14  and  C10_15 
ROOT
HETATM    1  C4  UNL     1      22.437   2.720  52.351  1.00  0.00     0.013 C 
HETATM    2  C5  UNL     1      21.756   3.307  51.390  1.00  0.00     0.005 C 
HETATM    3  C6  UNL     1      22.243   4.602  50.781  1.00  0.00     0.089 C 
HETATM    4  C7  UNL     1      23.696   4.280  50.508  1.00  0.00     0.049 A 
HETATM    5  N2  UNL     1      24.252   4.566  49.303  1.00  0.00    -0.245 NA
HETATM    6  C8  UNL     1      25.557   4.274  49.054  1.00  0.00     0.235 A 
HETATM    7  N3  UNL     1      26.248   3.700  50.040  1.00  0.00    -0.224 NA
HETATM    8  C9  UNL     1      25.797   3.381  51.256  1.00  0.00     0.138 A 
HETATM    9  C16 UNL     1      24.454   3.681  51.516  1.00  0.00     0.018 A 
HETATM   10  C17 UNL     1      23.690   3.447  52.763  1.00  0.00     0.101 C 
ENDROOT
BRANCH   8  11
HETATM   11  N4  UNL     1      26.519   2.776  52.308  1.00  0.00    -0.340 N 
HETATM   12  H9  UNL     1      26.965   3.331  53.040  1.00  0.00     0.167 HD
BRANCH  11  13
HETATM   13  C10 UNL     1      26.738   1.392  52.521  1.00  0.00     0.035 A 
HETATM   14  C11 UNL     1      25.772   0.425  52.351  1.00  0.00     0.029 A 
HETATM   15  C12 UNL     1      25.963  -0.922  52.553  1.00  0.00     0.004 A 
HETATM   16  C13 UNL     1      27.192  -1.375  52.952  1.00  0.00     0.019 A 
HETATM   17  C14 UNL     1      28.198  -0.466  53.139  1.00  0.00     0.013 A 
HETATM   18 BR1  UNL     1      29.902  -1.053  53.689  1.00  0.00    -0.051 Br
HETATM   19  C15 UNL     1      27.944   0.861  52.923  1.00  0.00     0.048 A 
ENDBRANCH  11  13
ENDBRANCH   8  11
BRANCH   1  20
HETATM   20  N1  UNL     1      22.123   1.515  53.023  1.00  0.00    -0.328 N 
HETATM   21  C3  UNL     1      21.848   0.225  52.537  1.00  0.00     0.241 C 
HETATM   22  O1  UNL     1      21.873   0.058  51.301  1.00  0.00    -0.269 OA
HETATM   23  H4  UNL     1      22.074   1.541  54.081  1.00  0.00     0.169 HD
BRANCH  21  24
HETATM   24  C2  UNL     1      21.543  -0.907  53.373  1.00  0.00     0.048 C 
HETATM   25  C1  UNL     1      21.006  -1.573  54.382  1.00  0.00     0.037 C 
ENDBRANCH  21  24
ENDBRANCH   1  20
TORSDOF 4
ENDMDL
MODEL 7
REMARK VINA RESULT:      -7.2      3.257      5.937
REMARK  4 active torsions:
REMARK  status: ('A' for Active; 'I' for Inactive)
REMARK    1  A    between atoms: C2_2  and  C3_3 
REMARK       I    between atoms: C3_3  and  N1_5 
REMARK    2  A    between atoms: N1_5  and  C4_6 
REMARK    3  A    between atoms: C9_13  and  N4_14 
REMARK    4  A    between atoms: N4_14  and  C10_15 
ROOT
HETATM    1  C4  UNL     1      26.085   2.635  51.021  1.00  0.00     0.013 C 
HETATM    2  C5  UNL     1      26.068   3.671  50.210  1.00  0.00     0.005 C 
HETATM    3  C6  UNL     1      24.823   4.013  49.424  1.00  0.00     0.089 C 
HETATM    4  C7  UNL     1      23.760   3.954  50.498  1.00  0.00     0.049 A 
HETATM    5  N2  UNL     1      22.850   4.953  50.625  1.00  0.00    -0.245 NA
HETATM    6  C8  UNL     1      21.895   4.902  51.593  1.00  0.00     0.235 A 
HETATM    7  N3  UNL     1      21.902   3.838  52.397  1.00  0.00    -0.224 NA
HETATM    8  C9  UNL     1      22.750   2.806  52.355  1.00  0.00     0.138 A 
HETATM    9  C16 UNL     1      23.734   2.854  51.359  1.00  0.00     0.018 A 
HETATM   10  C17 UNL     1      24.794   1.861  51.072  1.00  0.00     0.101 C 
ENDROOT
BRANCH   8  11
HETATM   11  N4  UNL     1      22.768   1.673  53.198  1.00  0.00    -0.340 N 
HETATM   12  H9  UNL     1      23.562   1.473  53.808  1.00  0.00     0.167 HD
BRANCH  11  13
HETATM   13  C10 UNL     1      21.763   0.684  53.336  1.00  0.00     0.035 A 
HETATM   14  C11 UNL     1      21.862  -0.401  54.178  1.00  0.00     0.029 A 
HETATM   15  C12 UNL     1      20.899  -1.373  54.327  1.00  0.00     0.004 A 
HETATM   16  C13 UNL     1      19.742  -1.288  53.602  1.00  0.00     0.019 A 
HETATM   17  C14 UNL     1      19.578  -0.233  52.746  1.00  0.00     0.013 A 
HETATM   18 BR1  UNL     1      17.996  -0.085  51.732  1.00  0.00    -0.051 Br
HETATM   19  C15 UNL     1      20.573   0.699  52.642  1.00  0.00     0.048 A 
ENDBRANCH  11  13
ENDBRANCH   8  11
BRANCH   1  20
HETATM   20  N1  UNL     1      27.158   2.181  51.823  1.00  0.00    -0.328 N 
HETATM   21  C3  UNL     1      27.290   2.065  53.218  1.00  0.00     0.241 C 
HETATM   22  O1  UNL     1      26.319   2.410  53.920  1.00  0.00    -0.269 OA
HETATM   23  H4  UNL     1      28.039   1.861  51.330  1.00  0.00     0.169 HD
BRANCH  21  24
HETATM   24  C2  UNL     1      28.471   1.574  53.881  1.00  0.00     0.048 C 
HETATM   25  C1  UNL     1      29.221   0.747  54.589  1.00  0.00     0.037 C 
ENDBRANCH  21  24
ENDBRANCH   1  20
TORSDOF 4
ENDMDL
MODEL 8
REMARK VINA RESULT:      -7.1      2.983      4.313
REMARK  4 active torsions:
REMARK  status: ('A' for Active; 'I' for Inactive)
REMARK    1  A    between atoms: C2_2  and  C3_3 
REMARK       I    between atoms: C3_3  and  N1_5 
REMARK    2  A    between atoms: N1_5  and  C4_6 
REMARK    3  A    between atoms: C9_13  and  N4_14 
REMARK    4  A    between atoms: N4_14  and  C10_15 
ROOT
HETATM    1  C4  UNL     1      24.750   2.745  51.838  1.00  0.00     0.013 C 
HETATM    2  C5  UNL     1      24.319   1.501  51.851  1.00  0.00     0.005 C 
HETATM    3  C6  UNL     1      23.120   1.110  52.684  1.00  0.00     0.089 C 
HETATM    4  C7  UNL     1      22.126   2.187  52.309  1.00  0.00     0.049 A 
HETATM    5  N2  UNL     1      20.852   1.863  51.972  1.00  0.00    -0.245 NA
HETATM    6  C8  UNL     1      19.957   2.830  51.630  1.00  0.00     0.235 A 
HETATM    7  N3  UNL     1      20.393   4.090  51.642  1.00  0.00    -0.224 NA
HETATM    8  C9  UNL     1      21.621   4.512  51.957  1.00  0.00     0.138 A 
HETATM    9  C16 UNL     1      22.545   3.520  52.311  1.00  0.00     0.018 A 
HETATM   10  C17 UNL     1      23.961   3.688  52.708  1.00  0.00     0.101 C 
ENDROOT
BRANCH   8  11
HETATM   11  N4  UNL     1      22.094   5.842  51.975  1.00  0.00    -0.340 N 
HETATM   12  H9  UNL     1      22.394   6.292  52.842  1.00  0.00     0.167 HD
BRANCH  11  13
HETATM   13  C10 UNL     1      22.227   6.726  50.876  1.00  0.00     0.035 A 
HETATM   14  C11 UNL     1      21.289   7.674  50.533  1.00  0.00     0.029 A 
HETATM   15  C12 UNL     1      21.398   8.541  49.470  1.00  0.00     0.004 A 
HETATM   16  C13 UNL     1      22.508   8.489  48.671  1.00  0.00     0.019 A 
HETATM   17  C14 UNL     1      23.480   7.569  48.956  1.00  0.00     0.013 A 
HETATM   18 BR1  UNL     1      25.021   7.468  47.877  1.00  0.00    -0.051 Br
HETATM   19  C15 UNL     1      23.312   6.734  50.027  1.00  0.00     0.048 A 
ENDBRANCH  11  13
ENDBRANCH   8  11
BRANCH   1  20
HETATM   20  N1  UNL     1      25.848   3.273  51.119  1.00  0.00    -0.328 N 
HETATM   21  C3  UNL     1      25.940   3.796  49.817  1.00  0.00     0.241 C 
HETATM   22  O1  UNL     1      24.898   3.822  49.132  1.00  0.00    -0.269 OA
HETATM   23  H4  UNL     1      26.788   3.300  51.607  1.00  0.00     0.169 HD
BRANCH  21  24
HETATM   24  C2  UNL     1      27.156   4.301  49.232  1.00  0.00     0.048 C 
HETATM   25  C1  UNL     1      27.921   5.071  48.477  1.00  0.00     0.037 C 
ENDBRANCH  21  24
ENDBRANCH   1  20
TORSDOF 4
ENDMDL
MODEL 9
REMARK VINA RESULT:      -7.1      6.837     10.417
REMARK  4 active torsions:
REMARK  status: ('A' for Active; 'I' for Inactive)
REMARK    1  A    between atoms: C2_2  and  C3_3 
REMARK       I    between atoms: C3_3  and  N1_5 
REMARK    2  A    between atoms: N1_5  and  C4_6 
REMARK    3  A    between atoms: C9_13  and  N4_14 
REMARK    4  A    between atoms: N4_14  and  C10_15 
ROOT
HETATM    1  C4  UNL     1      29.499   8.948  49.125  1.00  0.00     0.013 C 
HETATM    2  C5  UNL     1      29.099  10.162  48.812  1.00  0.00     0.005 C 
HETATM    3  C6  UNL     1      30.064  11.324  48.846  1.00  0.00     0.089 C 
HETATM    4  C7  UNL     1      31.243  10.762  48.083  1.00  0.00     0.049 A 
HETATM    5  N2  UNL     1      31.835  11.482  47.097  1.00  0.00    -0.245 NA
HETATM    6  C8  UNL     1      32.893  10.977  46.407  1.00  0.00     0.235 A 
HETATM    7  N3  UNL     1      33.309   9.756  46.745  1.00  0.00    -0.224 NA
HETATM    8  C9  UNL     1      32.799   8.968  47.697  1.00  0.00     0.138 A 
HETATM    9  C16 UNL     1      31.710   9.486  48.410  1.00  0.00     0.018 A 
HETATM   10  C17 UNL     1      30.952   8.850  49.511  1.00  0.00     0.101 C 
ENDROOT
BRANCH   8  11
HETATM   11  N4  UNL     1      33.231   7.676  48.066  1.00  0.00    -0.340 N 
HETATM   12  H9  UNL     1      33.825   7.523  48.883  1.00  0.00     0.167 HD
BRANCH  11  13
HETATM   13  C10 UNL     1      32.941   6.451  47.417  1.00  0.00     0.035 A 
HETATM   14  C11 UNL     1      32.339   5.376  48.034  1.00  0.00     0.029 A 
HETATM   15  C12 UNL     1      32.050   4.178  47.423  1.00  0.00     0.004 A 
HETATM   16  C13 UNL     1      32.367   4.003  46.103  1.00  0.00     0.019 A 
HETATM   17  C14 UNL     1      32.968   5.031  45.429  1.00  0.00     0.013 A 
HETATM   18 BR1  UNL     1      33.420   4.825  43.612  1.00  0.00    -0.051 Br
HETATM   19  C15 UNL     1      33.230   6.198  46.094  1.00  0.00     0.048 A 
ENDBRANCH  11  13
ENDBRANCH   8  11
BRANCH   1  20
HETATM   20  N1  UNL     1      28.731   7.760  49.144  1.00  0.00    -0.328 N 
HETATM   21  C3  UNL     1      28.606   6.720  48.206  1.00  0.00     0.241 C 
HETATM   22  O1  UNL     1      29.270   6.810  47.154  1.00  0.00    -0.269 OA
HETATM   23  H4  UNL     1      28.126   7.579  49.994  1.00  0.00     0.169 HD
BRANCH  21  24
HETATM   24  C2  UNL     1      27.766   5.564  48.386  1.00  0.00     0.048 C 
HETATM   25  C1  UNL     1      27.263   4.500  48.989  1.00  0.00     0.037 C 
ENDBRANCH  21  24
ENDBRANCH   1  20
TORSDOF 4
ENDMDL
