MODEL 1
REMARK VINA RESULT:      -9.4      0.000      0.000
REMARK  3 active torsions:
REMARK  status: ('A' for Active; 'I' for Inactive)
REMARK       I    between atoms: C2_2  and  N1_4 
REMARK    1  A    between atoms: N1_4  and  C3_5 
REMARK    2  A    between atoms: C7_9  and  C8_10 
REMARK    3  A    between atoms: C8_10  and  C9_11 
ROOT
HETATM    1  C9  UNL     1      24.331   2.483  50.636  1.00  0.00     0.015 C 
HETATM    2  C10 UNL     1      23.387   1.703  51.170  1.00  0.00     0.067 C 
HETATM    3  C11 UNL     1      22.305   0.921  51.698  1.00  0.00     0.114 C 
HETATM    4  F1  UNL     1      21.632   1.875  50.961  1.00  0.00    -0.206 F 
HETATM    5  C12 UNL     1      21.925  -0.124  52.454  1.00  0.00     0.017 C 
HETATM    6  C13 UNL     1      23.083  -0.808  53.005  1.00  0.00     0.057 C 
HETATM    7  C14 UNL     1      23.356  -0.579  54.469  1.00  0.00     0.179 C 
HETATM    8  O2  UNL     1      24.661  -1.192  54.737  1.00  0.00    -0.349 OA
HETATM    9  C15 UNL     1      25.755  -0.274  54.737  1.00  0.00     0.087 C 
HETATM   10  C16 UNL     1      26.624   0.697  55.009  1.00  0.00     0.016 C 
HETATM   11  C17 UNL     1      26.601   1.750  53.937  1.00  0.00     0.070 C 
HETATM   12  C18 UNL     1      26.717   0.980  52.645  1.00  0.00    -0.038 C 
HETATM   13  C19 UNL     1      26.393   1.166  51.375  1.00  0.00     0.095 C 
HETATM   14  N2  UNL     1      25.759   2.328  50.869  1.00  0.00    -0.368 N 
HETATM   15  C20 UNL     1      27.367  -0.198  53.270  1.00  0.00     0.035 C 
HETATM   16  C21 UNL     1      26.260  -0.933  53.505  1.00  0.00     0.067 C 
HETATM   17 CL1  UNL     1      26.643  -1.877  52.074  1.00  0.00    -0.081 Cl
HETATM   18  H22 UNL     1      26.333   3.158  50.642  1.00  0.00     0.165 HD
ENDROOT
BRANCH   1  19
HETATM   19  C8  UNL     1      23.849   3.579  49.786  1.00  0.00     0.091 C 
BRANCH  19  20
HETATM   20  C7  UNL     1      24.475   4.892  49.999  1.00  0.00    -0.072 A 
HETATM   21  C6  UNL     1      23.642   5.635  50.975  1.00  0.00     0.038 A 
HETATM   22  C5  UNL     1      24.257   6.984  51.219  1.00  0.00     0.033 A 
HETATM   23  C4  UNL     1      25.491   7.161  50.433  1.00  0.00     0.003 A 
HETATM   24  C3  UNL     1      26.191   6.455  49.571  1.00  0.00     0.031 A 
HETATM   25  C22 UNL     1      25.571   5.163  49.353  1.00  0.00     0.032 A 
BRANCH  24  26
HETATM   26  N1  UNL     1      27.382   6.778  48.890  1.00  0.00    -0.328 N 
HETATM   27  C2  UNL     1      28.399   5.933  48.384  1.00  0.00     0.218 C 
HETATM   28  C1  UNL     1      29.611   6.420  47.682  1.00  0.00     0.117 C 
HETATM   29  O1  UNL     1      28.294   4.693  48.526  1.00  0.00    -0.274 OA
HETATM   30  H4  UNL     1      27.586   7.771  48.710  1.00  0.00     0.169 HD
ENDBRANCH  24  26
ENDBRANCH  19  20
ENDBRANCH   1  19
TORSDOF 3
ENDMDL
MODEL 2
REMARK VINA RESULT:      -9.4      3.180      6.951
REMARK  3 active torsions:
REMARK  status: ('A' for Active; 'I' for Inactive)
REMARK       I    between atoms: C2_2  and  N1_4 
REMARK    1  A    between atoms: N1_4  and  C3_5 
REMARK    2  A    between atoms: C7_9  and  C8_10 
REMARK    3  A    between atoms: C8_10  and  C9_11 
ROOT
HETATM    1  C9  UNL     1      22.299   1.203  51.796  1.00  0.00     0.015 C 
HETATM    2  C10 UNL     1      21.782   1.386  50.578  1.00  0.00     0.067 C 
HETATM    3  C11 UNL     1      21.198   1.488  49.271  1.00  0.00     0.114 C 
HETATM    4  F1  UNL     1      20.962   0.165  49.584  1.00  0.00    -0.206 F 
HETATM    5  C12 UNL     1      20.926   2.267  48.209  1.00  0.00     0.017 C 
HETATM    6  C13 UNL     1      21.411   3.620  48.425  1.00  0.00     0.057 C 
HETATM    7  C14 UNL     1      22.656   4.008  47.671  1.00  0.00     0.179 C 
HETATM    8  O2  UNL     1      23.057   5.316  48.200  1.00  0.00    -0.349 OA
HETATM    9  C15 UNL     1      24.083   5.262  49.191  1.00  0.00     0.087 C 
HETATM   10  C16 UNL     1      25.224   5.110  49.860  1.00  0.00     0.016 C 
HETATM   11  C17 UNL     1      25.108   4.001  50.869  1.00  0.00     0.070 C 
HETATM   12  C18 UNL     1      23.834   4.301  51.618  1.00  0.00    -0.038 C 
HETATM   13  C19 UNL     1      22.941   3.621  52.319  1.00  0.00     0.095 C 
HETATM   14  N2  UNL     1      23.000   2.225  52.558  1.00  0.00    -0.368 N 
HETATM   15  C20 UNL     1      23.852   5.751  51.305  1.00  0.00     0.035 C 
HETATM   16  C21 UNL     1      23.087   5.723  50.193  1.00  0.00     0.067 C 
HETATM   17 CL1  UNL     1      21.734   6.274  51.170  1.00  0.00    -0.081 Cl
HETATM   18  H22 UNL     1      23.590   1.870  53.330  1.00  0.00     0.165 HD
ENDROOT
BRANCH   1  19
HETATM   19  C8  UNL     1      22.154  -0.147  52.355  1.00  0.00     0.091 C 
BRANCH  19  20
HETATM   20  C7  UNL     1      23.119  -0.528  53.397  1.00  0.00    -0.072 A 
HETATM   21  C6  UNL     1      22.350  -0.869  54.620  1.00  0.00     0.038 A 
HETATM   22  C5  UNL     1      23.308  -1.268  55.707  1.00  0.00     0.033 A 
HETATM   23  C4  UNL     1      24.705  -1.210  55.238  1.00  0.00     0.003 A 
HETATM   24  C3  UNL     1      25.333  -0.895  54.127  1.00  0.00     0.031 A 
HETATM   25  C22 UNL     1      24.385  -0.511  53.100  1.00  0.00     0.032 A 
BRANCH  24  26
HETATM   26  N1  UNL     1      26.713  -0.892  53.835  1.00  0.00    -0.328 N 
HETATM   27  C2  UNL     1      27.725   0.014  54.233  1.00  0.00     0.218 C 
HETATM   28  C1  UNL     1      29.151  -0.110  53.845  1.00  0.00     0.117 C 
HETATM   29  O1  UNL     1      27.424   0.990  54.957  1.00  0.00    -0.274 OA
HETATM   30  H4  UNL     1      27.087  -1.648  53.245  1.00  0.00     0.169 HD
ENDBRANCH  24  26
ENDBRANCH  19  20
ENDBRANCH   1  19
TORSDOF 3
ENDMDL
MODEL 3
REMARK VINA RESULT:      -9.2      3.351      7.075
REMARK  3 active torsions:
REMARK  status: ('A' for Active; 'I' for Inactive)
REMARK       I    between atoms: C2_2  and  N1_4 
REMARK    1  A    between atoms: N1_4  and  C3_5 
REMARK    2  A    between atoms: C7_9  and  C8_10 
REMARK    3  A    between atoms: C8_10  and  C9_11 
ROOT
HETATM    1  C9  UNL     1      22.298   0.934  51.700  1.00  0.00     0.015 C 
HETATM    2  C10 UNL     1      21.149   1.604  51.828  1.00  0.00     0.067 C 
HETATM    3  C11 UNL     1      19.877   2.244  52.009  1.00  0.00     0.114 C 
HETATM    4  F1  UNL     1      19.649   0.999  52.561  1.00  0.00    -0.206 F 
HETATM    5  C12 UNL     1      19.129   3.348  51.838  1.00  0.00     0.017 C 
HETATM    6  C13 UNL     1      19.899   4.396  51.189  1.00  0.00     0.057 C 
HETATM    7  C14 UNL     1      19.585   4.649  49.738  1.00  0.00     0.179 C 
HETATM    8  O2  UNL     1      20.609   5.585  49.260  1.00  0.00    -0.349 OA
HETATM    9  C15 UNL     1      21.694   4.967  48.567  1.00  0.00     0.087 C 
HETATM   10  C16 UNL     1      22.471   4.327  47.696  1.00  0.00     0.016 C 
HETATM   11  C17 UNL     1      22.978   3.038  48.281  1.00  0.00     0.070 C 
HETATM   12  C18 UNL     1      23.527   3.424  49.632  1.00  0.00    -0.038 C 
HETATM   13  C19 UNL     1      23.757   2.825  50.790  1.00  0.00     0.095 C 
HETATM   14  N2  UNL     1      23.492   1.458  51.054  1.00  0.00    -0.368 N 
HETATM   15  C20 UNL     1      23.758   4.842  49.264  1.00  0.00     0.035 C 
HETATM   16  C21 UNL     1      22.584   5.351  49.694  1.00  0.00     0.067 C 
HETATM   17 CL1  UNL     1      23.414   5.920  51.133  1.00  0.00    -0.081 Cl
HETATM   18  H22 UNL     1      24.185   0.745  50.770  1.00  0.00     0.165 HD
ENDROOT
BRANCH   1  19
HETATM   19  C8  UNL     1      22.303  -0.433  52.236  1.00  0.00     0.091 C 
BRANCH  19  20
HETATM   20  C7  UNL     1      23.171  -0.674  53.397  1.00  0.00    -0.072 A 
HETATM   21  C6  UNL     1      22.308  -1.106  54.524  1.00  0.00     0.038 A 
HETATM   22  C5  UNL     1      23.167  -1.366  55.729  1.00  0.00     0.033 A 
HETATM   23  C4  UNL     1      24.591  -1.127  55.434  1.00  0.00     0.003 A 
HETATM   24  C3  UNL     1      25.306  -0.739  54.400  1.00  0.00     0.031 A 
HETATM   25  C22 UNL     1      24.451  -0.492  53.257  1.00  0.00     0.032 A 
BRANCH  24  26
HETATM   26  N1  UNL     1      26.699  -0.555  54.280  1.00  0.00    -0.328 N 
HETATM   27  C2  UNL     1      27.467   0.634  54.326  1.00  0.00     0.218 C 
HETATM   28  C1  UNL     1      28.942   0.675  54.183  1.00  0.00     0.117 C 
HETATM   29  O1  UNL     1      26.889   1.731  54.496  1.00  0.00    -0.274 OA
HETATM   30  H4  UNL     1      27.289  -1.386  54.137  1.00  0.00     0.169 HD
ENDBRANCH  24  26
ENDBRANCH  19  20
ENDBRANCH   1  19
TORSDOF 3
ENDMDL
MODEL 4
REMARK VINA RESULT:      -9.0      3.679      7.976
REMARK  3 active torsions:
REMARK  status: ('A' for Active; 'I' for Inactive)
REMARK       I    between atoms: C2_2  and  N1_4 
REMARK    1  A    between atoms: N1_4  and  C3_5 
REMARK    2  A    between atoms: C7_9  and  C8_10 
REMARK    3  A    between atoms: C8_10  and  C9_11 
ROOT
HETATM    1  C9  UNL     1      24.944   4.586  49.133  1.00  0.00     0.015 C 
HETATM    2  C10 UNL     1      26.243   4.753  48.871  1.00  0.00     0.067 C 
HETATM    3  C11 UNL     1      27.653   4.838  48.617  1.00  0.00     0.114 C 
HETATM    4  F1  UNL     1      27.526   3.541  49.071  1.00  0.00    -0.206 F 
HETATM    5  C12 UNL     1      28.687   5.592  48.201  1.00  0.00     0.017 C 
HETATM    6  C13 UNL     1      28.235   6.920  47.821  1.00  0.00     0.057 C 
HETATM    7  C14 UNL     1      28.552   8.031  48.786  1.00  0.00     0.179 C 
HETATM    8  O2  UNL     1      27.832   9.211  48.295  1.00  0.00    -0.349 OA
HETATM    9  C15 UNL     1      26.587   9.456  48.951  1.00  0.00     0.087 C 
HETATM   10  C16 UNL     1      25.622   9.747  49.820  1.00  0.00     0.016 C 
HETATM   11  C17 UNL     1      24.781   8.536  50.110  1.00  0.00     0.070 C 
HETATM   12  C18 UNL     1      24.424   7.987  48.751  1.00  0.00    -0.038 C 
HETATM   13  C19 UNL     1      24.073   6.817  48.241  1.00  0.00     0.095 C 
HETATM   14  N2  UNL     1      23.933   5.623  48.992  1.00  0.00    -0.368 N 
HETATM   15  C20 UNL     1      24.607   9.282  48.051  1.00  0.00     0.035 C 
HETATM   16  C21 UNL     1      25.895   9.124  47.678  1.00  0.00     0.067 C 
HETATM   17 CL1  UNL     1      25.326   8.698  46.072  1.00  0.00    -0.081 Cl
HETATM   18  H22 UNL     1      23.050   5.447  49.500  1.00  0.00     0.165 HD
ENDROOT
BRANCH   1  19
HETATM   19  C8  UNL     1      24.557   3.258  49.624  1.00  0.00     0.091 C 
BRANCH  19  20
HETATM   20  C7  UNL     1      24.872   2.966  51.030  1.00  0.00    -0.072 A 
HETATM   21  C6  UNL     1      23.854   3.643  51.870  1.00  0.00     0.038 A 
HETATM   22  C5  UNL     1      24.145   3.361  53.317  1.00  0.00     0.033 A 
HETATM   23  C4  UNL     1      25.333   2.502  53.468  1.00  0.00     0.003 A 
HETATM   24  C3  UNL     1      26.208   1.925  52.674  1.00  0.00     0.031 A 
HETATM   25  C22 UNL     1      25.905   2.218  51.288  1.00  0.00     0.032 A 
BRANCH  24  26
HETATM   26  N1  UNL     1      27.318   1.113  52.986  1.00  0.00    -0.328 N 
HETATM   27  C2  UNL     1      28.527   1.439  53.647  1.00  0.00     0.218 C 
HETATM   28  C1  UNL     1      29.618   0.470  53.909  1.00  0.00     0.117 C 
HETATM   29  O1  UNL     1      28.711   2.612  54.046  1.00  0.00    -0.274 OA
HETATM   30  H4  UNL     1      27.289   0.122  52.710  1.00  0.00     0.169 HD
ENDBRANCH  24  26
ENDBRANCH  19  20
ENDBRANCH   1  19
TORSDOF 3
ENDMDL
MODEL 5
REMARK VINA RESULT:      -8.8      5.003      7.637
REMARK  3 active torsions:
REMARK  status: ('A' for Active; 'I' for Inactive)
REMARK       I    between atoms: C2_2  and  N1_4 
REMARK    1  A    between atoms: N1_4  and  C3_5 
REMARK    2  A    between atoms: C7_9  and  C8_10 
REMARK    3  A    between atoms: C8_10  and  C9_11 
ROOT
HETATM    1  C9  UNL     1      27.682   7.158  47.702  1.00  0.00     0.015 C 
HETATM    2  C10 UNL     1      27.425   5.975  48.268  1.00  0.00     0.067 C 
HETATM    3  C11 UNL     1      27.237   4.674  48.843  1.00  0.00     0.114 C 
HETATM    4  F1  UNL     1      28.489   4.554  48.274  1.00  0.00    -0.206 F 
HETATM    5  C12 UNL     1      26.438   3.848  49.542  1.00  0.00     0.017 C 
HETATM    6  C13 UNL     1      25.201   4.517  49.909  1.00  0.00     0.057 C 
HETATM    7  C14 UNL     1      23.975   4.120  49.129  1.00  0.00     0.179 C 
HETATM    8  O2  UNL     1      22.920   5.057  49.530  1.00  0.00    -0.349 OA
HETATM    9  C15 UNL     1      22.726   6.146  48.628  1.00  0.00     0.087 C 
HETATM   10  C16 UNL     1      22.438   6.922  47.584  1.00  0.00     0.016 C 
HETATM   11  C17 UNL     1      23.686   7.539  47.018  1.00  0.00     0.070 C 
HETATM   12  C18 UNL     1      24.397   8.123  48.213  1.00  0.00    -0.038 C 
HETATM   13  C19 UNL     1      25.639   8.446  48.538  1.00  0.00     0.095 C 
HETATM   14  N2  UNL     1      26.760   8.284  47.687  1.00  0.00    -0.368 N 
HETATM   15  C20 UNL     1      23.167   8.244  49.034  1.00  0.00     0.035 C 
HETATM   16  C21 UNL     1      23.243   7.060  49.678  1.00  0.00     0.067 C 
HETATM   17 CL1  UNL     1      23.877   7.918  51.074  1.00  0.00    -0.081 Cl
HETATM   18  H22 UNL     1      26.965   9.009  46.978  1.00  0.00     0.165 HD
ENDROOT
BRANCH   1  19
HETATM   19  C8  UNL     1      28.985   7.278  47.036  1.00  0.00     0.091 C 
BRANCH  19  20
HETATM   20  C7  UNL     1      30.170   7.191  47.901  1.00  0.00    -0.072 A 
HETATM   21  C6  UNL     1      30.220   8.425  48.723  1.00  0.00     0.038 A 
HETATM   22  C5  UNL     1      31.420   8.367  49.625  1.00  0.00     0.033 A 
HETATM   23  C4  UNL     1      32.175   7.115  49.433  1.00  0.00     0.003 A 
HETATM   24  C3  UNL     1      32.080   6.042  48.678  1.00  0.00     0.031 A 
HETATM   25  C22 UNL     1      30.917   6.130  47.817  1.00  0.00     0.032 A 
BRANCH  24  26
HETATM   26  N1  UNL     1      32.908   4.903  48.614  1.00  0.00    -0.328 N 
HETATM   27  C2  UNL     1      34.075   4.667  47.848  1.00  0.00     0.218 C 
HETATM   28  C1  UNL     1      34.851   3.404  47.884  1.00  0.00     0.117 C 
HETATM   29  O1  UNL     1      34.498   5.564  47.084  1.00  0.00    -0.274 OA
HETATM   30  H4  UNL     1      32.665   4.092  49.200  1.00  0.00     0.169 HD
ENDBRANCH  24  26
ENDBRANCH  19  20
ENDBRANCH   1  19
TORSDOF 3
ENDMDL
MODEL 6
REMARK VINA RESULT:      -8.8      3.497      7.791
REMARK  3 active torsions:
REMARK  status: ('A' for Active; 'I' for Inactive)
REMARK       I    between atoms: C2_2  and  N1_4 
REMARK    1  A    between atoms: N1_4  and  C3_5 
REMARK    2  A    between atoms: C7_9  and  C8_10 
REMARK    3  A    between atoms: C8_10  and  C9_11 
ROOT
HETATM    1  C9  UNL     1      24.449   3.539  49.471  1.00  0.00     0.015 C 
HETATM    2  C10 UNL     1      25.554   4.243  49.210  1.00  0.00     0.067 C 
HETATM    3  C11 UNL     1      26.794   4.923  48.965  1.00  0.00     0.114 C 
HETATM    4  F1  UNL     1      27.228   3.731  49.510  1.00  0.00    -0.206 F 
HETATM    5  C12 UNL     1      27.410   6.027  48.505  1.00  0.00     0.017 C 
HETATM    6  C13 UNL     1      26.439   6.996  48.026  1.00  0.00     0.057 C 
HETATM    7  C14 UNL     1      26.200   8.191  48.913  1.00  0.00     0.179 C 
HETATM    8  O2  UNL     1      25.057   8.903  48.332  1.00  0.00    -0.349 OA
HETATM    9  C15 UNL     1      23.806   8.616  48.956  1.00  0.00     0.087 C 
HETATM   10  C16 UNL     1      22.776   8.506  49.793  1.00  0.00     0.016 C 
HETATM   11  C17 UNL     1      22.538   7.068  50.161  1.00  0.00     0.070 C 
HETATM   12  C18 UNL     1      22.511   6.338  48.842  1.00  0.00    -0.038 C 
HETATM   13  C19 UNL     1      22.727   5.105  48.413  1.00  0.00     0.095 C 
HETATM   14  N2  UNL     1      23.093   4.018  49.246  1.00  0.00    -0.368 N 
HETATM   15  C20 UNL     1      22.138   7.538  48.052  1.00  0.00     0.035 C 
HETATM   16  C21 UNL     1      23.379   7.938  47.704  1.00  0.00     0.067 C 
HETATM   17 CL1  UNL     1      23.119   7.210  46.127  1.00  0.00    -0.081 Cl
HETATM   18  H22 UNL     1      22.356   3.503  49.757  1.00  0.00     0.165 HD
ENDROOT
BRANCH   1  19
HETATM   19  C8  UNL     1      24.662   2.208  50.053  1.00  0.00     0.091 C 
BRANCH  19  20
HETATM   20  C7  UNL     1      25.228   2.173  51.409  1.00  0.00    -0.072 A 
HETATM   21  C6  UNL     1      24.263   2.841  52.318  1.00  0.00     0.038 A 
HETATM   22  C5  UNL     1      24.810   2.819  53.717  1.00  0.00     0.033 A 
HETATM   23  C4  UNL     1      26.119   2.143  53.770  1.00  0.00     0.003 A 
HETATM   24  C3  UNL     1      26.936   1.562  52.919  1.00  0.00     0.031 A 
HETATM   25  C22 UNL     1      26.384   1.603  51.579  1.00  0.00     0.032 A 
BRANCH  24  26
HETATM   26  N1  UNL     1      28.186   0.947  53.137  1.00  0.00    -0.328 N 
HETATM   27  C2  UNL     1      28.494  -0.390  53.487  1.00  0.00     0.218 C 
HETATM   28  C1  UNL     1      29.872  -0.900  53.687  1.00  0.00     0.117 C 
HETATM   29  O1  UNL     1      27.563  -1.212  53.644  1.00  0.00    -0.274 OA
HETATM   30  H4  UNL     1      29.035   1.521  53.038  1.00  0.00     0.169 HD
ENDBRANCH  24  26
ENDBRANCH  19  20
ENDBRANCH   1  19
TORSDOF 3
ENDMDL
MODEL 7
REMARK VINA RESULT:      -8.8      4.293      7.474
REMARK  3 active torsions:
REMARK  status: ('A' for Active; 'I' for Inactive)
REMARK       I    between atoms: C2_2  and  N1_4 
REMARK    1  A    between atoms: N1_4  and  C3_5 
REMARK    2  A    between atoms: C7_9  and  C8_10 
REMARK    3  A    between atoms: C8_10  and  C9_11 
ROOT
HETATM    1  C9  UNL     1      22.182   2.500  51.904  1.00  0.00     0.015 C 
HETATM    2  C10 UNL     1      22.360   2.420  50.582  1.00  0.00     0.067 C 
HETATM    3  C11 UNL     1      22.647   2.342  49.178  1.00  0.00     0.114 C 
HETATM    4  F1  UNL     1      23.910   2.476  49.719  1.00  0.00    -0.206 F 
HETATM    5  C12 UNL     1      22.168   2.217  47.927  1.00  0.00     0.017 C 
HETATM    6  C13 UNL     1      20.719   2.100  47.941  1.00  0.00     0.057 C 
HETATM    7  C14 UNL     1      19.950   3.320  47.504  1.00  0.00     0.179 C 
HETATM    8  O2  UNL     1      18.541   3.034  47.794  1.00  0.00    -0.349 OA
HETATM    9  C15 UNL     1      18.068   3.594  49.019  1.00  0.00     0.087 C 
HETATM   10  C16 UNL     1      17.672   4.401  50.002  1.00  0.00     0.016 C 
HETATM   11  C17 UNL     1      18.614   4.320  51.171  1.00  0.00     0.070 C 
HETATM   12  C18 UNL     1      18.770   2.843  51.431  1.00  0.00    -0.038 C 
HETATM   13  C19 UNL     1      19.668   2.048  51.991  1.00  0.00     0.095 C 
HETATM   14  N2  UNL     1      20.887   2.491  52.565  1.00  0.00    -0.368 N 
HETATM   15  C20 UNL     1      17.479   2.475  50.798  1.00  0.00     0.035 C 
HETATM   16  C21 UNL     1      17.937   2.214  49.555  1.00  0.00     0.067 C 
HETATM   17 CL1  UNL     1      17.870   0.502  49.944  1.00  0.00    -0.081 Cl
HETATM   18  H22 UNL     1      20.886   2.851  53.535  1.00  0.00     0.165 HD
ENDROOT
BRANCH   1  19
HETATM   19  C8  UNL     1      23.405   2.636  52.705  1.00  0.00     0.091 C 
BRANCH  19  20
HETATM   20  C7  UNL     1      24.124   1.392  53.012  1.00  0.00    -0.072 A 
HETATM   21  C6  UNL     1      23.128   0.401  53.490  1.00  0.00     0.038 A 
HETATM   22  C5  UNL     1      23.830  -0.888  53.809  1.00  0.00     0.033 A 
HETATM   23  C4  UNL     1      25.278  -0.788  53.550  1.00  0.00     0.003 A 
HETATM   24  C3  UNL     1      26.116   0.130  53.120  1.00  0.00     0.031 A 
HETATM   25  C22 UNL     1      25.411   1.361  52.825  1.00  0.00     0.032 A 
BRANCH  24  26
HETATM   26  N1  UNL     1      27.510   0.063  52.923  1.00  0.00    -0.328 N 
HETATM   27  C2  UNL     1      28.556  -0.098  53.865  1.00  0.00     0.218 C 
HETATM   28  C1  UNL     1      29.994  -0.151  53.508  1.00  0.00     0.117 C 
HETATM   29  O1  UNL     1      28.275  -0.202  55.081  1.00  0.00    -0.274 OA
HETATM   30  H4  UNL     1      27.870   0.137  51.961  1.00  0.00     0.169 HD
ENDBRANCH  24  26
ENDBRANCH  19  20
ENDBRANCH   1  19
TORSDOF 3
ENDMDL
MODEL 8
REMARK VINA RESULT:      -8.7      3.208      7.934
REMARK  3 active torsions:
REMARK  status: ('A' for Active; 'I' for Inactive)
REMARK       I    between atoms: C2_2  and  N1_4 
REMARK    1  A    between atoms: N1_4  and  C3_5 
REMARK    2  A    between atoms: C7_9  and  C8_10 
REMARK    3  A    between atoms: C8_10  and  C9_11 
ROOT
HETATM    1  C9  UNL     1      25.592   3.306  49.764  1.00  0.00     0.015 C 
HETATM    2  C10 UNL     1      26.230   4.368  49.264  1.00  0.00     0.067 C 
HETATM    3  C11 UNL     1      26.999   5.461  48.741  1.00  0.00     0.114 C 
HETATM    4  F1  UNL     1      27.985   4.553  49.073  1.00  0.00    -0.206 F 
HETATM    5  C12 UNL     1      26.998   6.695  48.206  1.00  0.00     0.017 C 
HETATM    6  C13 UNL     1      25.640   7.194  48.067  1.00  0.00     0.057 C 
HETATM    7  C14 UNL     1      25.212   8.242  49.060  1.00  0.00     0.179 C 
HETATM    8  O2  UNL     1      23.773   8.433  48.851  1.00  0.00    -0.349 OA
HETATM    9  C15 UNL     1      22.946   7.715  49.766  1.00  0.00     0.087 C 
HETATM   10  C16 UNL     1      22.304   7.256  50.839  1.00  0.00     0.016 C 
HETATM   11  C17 UNL     1      22.742   5.855  51.164  1.00  0.00     0.070 C 
HETATM   12  C18 UNL     1      22.640   5.112  49.855  1.00  0.00    -0.038 C 
HETATM   13  C19 UNL     1      23.187   4.039  49.306  1.00  0.00     0.095 C 
HETATM   14  N2  UNL     1      24.151   3.215  49.940  1.00  0.00    -0.368 N 
HETATM   15  C20 UNL     1      21.639   6.039  49.272  1.00  0.00     0.035 C 
HETATM   16  C21 UNL     1      22.489   6.870  48.632  1.00  0.00     0.067 C 
HETATM   17 CL1  UNL     1      22.111   6.027  47.138  1.00  0.00    -0.081 Cl
HETATM   18  H22 UNL     1      23.834   2.479  50.594  1.00  0.00     0.165 HD
ENDROOT
BRANCH   1  19
HETATM   19  C8  UNL     1      26.446   2.187  50.181  1.00  0.00     0.091 C 
BRANCH  19  20
HETATM   20  C7  UNL     1      26.304   1.744  51.575  1.00  0.00    -0.072 A 
HETATM   21  C6  UNL     1      27.324   2.459  52.381  1.00  0.00     0.038 A 
HETATM   22  C5  UNL     1      27.204   2.032  53.817  1.00  0.00     0.033 A 
HETATM   23  C4  UNL     1      26.119   1.050  53.995  1.00  0.00     0.003 A 
HETATM   24  C3  UNL     1      25.237   0.444  53.231  1.00  0.00     0.031 A 
HETATM   25  C22 UNL     1      25.380   0.872  51.854  1.00  0.00     0.032 A 
BRANCH  24  26
HETATM   26  N1  UNL     1      24.241  -0.496  53.566  1.00  0.00    -0.328 N 
HETATM   27  C2  UNL     1      22.846  -0.323  53.738  1.00  0.00     0.218 C 
HETATM   28  C1  UNL     1      21.911  -1.416  54.096  1.00  0.00     0.117 C 
HETATM   29  O1  UNL     1      22.346   0.815  53.584  1.00  0.00    -0.274 OA
HETATM   30  H4  UNL     1      24.526  -1.474  53.719  1.00  0.00     0.169 HD
ENDBRANCH  24  26
ENDBRANCH  19  20
ENDBRANCH   1  19
TORSDOF 3
ENDMDL
MODEL 9
REMARK VINA RESULT:      -8.6      3.441      5.440
REMARK  3 active torsions:
REMARK  status: ('A' for Active; 'I' for Inactive)
REMARK       I    between atoms: C2_2  and  N1_4 
REMARK    1  A    between atoms: N1_4  and  C3_5 
REMARK    2  A    between atoms: C7_9  and  C8_10 
REMARK    3  A    between atoms: C8_10  and  C9_11 
ROOT
HETATM    1  C9  UNL     1      25.727   6.202  48.981  1.00  0.00     0.015 C 
HETATM    2  C10 UNL     1      26.140   4.984  49.341  1.00  0.00     0.067 C 
HETATM    3  C11 UNL     1      26.657   3.684  49.661  1.00  0.00     0.114 C 
HETATM    4  F1  UNL     1      27.529   4.100  48.675  1.00  0.00    -0.206 F 
HETATM    5  C12 UNL     1      26.544   2.571  50.408  1.00  0.00     0.017 C 
HETATM    6  C13 UNL     1      25.416   2.676  51.318  1.00  0.00     0.057 C 
HETATM    7  C14 UNL     1      24.194   1.872  50.957  1.00  0.00     0.179 C 
HETATM    8  O2  UNL     1      23.143   2.292  51.891  1.00  0.00    -0.349 OA
HETATM    9  C15 UNL     1      22.242   3.265  51.363  1.00  0.00     0.087 C 
HETATM   10  C16 UNL     1      21.311   3.923  50.675  1.00  0.00     0.016 C 
HETATM   11  C17 UNL     1      21.930   5.014  49.846  1.00  0.00     0.070 C 
HETATM   12  C18 UNL     1      22.819   5.762  50.807  1.00  0.00    -0.038 C 
HETATM   13  C19 UNL     1      23.895   6.530  50.733  1.00  0.00     0.095 C 
HETATM   14  N2  UNL     1      24.556   6.872  49.527  1.00  0.00    -0.368 N 
HETATM   15  C20 UNL     1      22.068   5.340  52.015  1.00  0.00     0.035 C 
HETATM   16  C21 UNL     1      22.797   4.249  52.330  1.00  0.00     0.067 C 
HETATM   17 CL1  UNL     1      23.609   5.206  53.558  1.00  0.00    -0.081 Cl
HETATM   18  H22 UNL     1      24.195   7.657  48.959  1.00  0.00     0.165 HD
ENDROOT
BRANCH   1  19
HETATM   19  C8  UNL     1      26.521   6.864  47.938  1.00  0.00     0.091 C 
BRANCH  19  20
HETATM   20  C7  UNL     1      27.761   7.517  48.379  1.00  0.00    -0.072 A 
HETATM   21  C6  UNL     1      27.384   8.739  49.133  1.00  0.00     0.038 A 
HETATM   22  C5  UNL     1      28.632   9.431  49.604  1.00  0.00     0.033 A 
HETATM   23  C4  UNL     1      29.841   8.696  49.190  1.00  0.00     0.003 A 
HETATM   24  C3  UNL     1      30.116   7.602  48.513  1.00  0.00     0.031 A 
HETATM   25  C22 UNL     1      28.895   6.961  48.069  1.00  0.00     0.032 A 
BRANCH  24  26
HETATM   26  N1  UNL     1      31.361   7.022  48.197  1.00  0.00    -0.328 N 
HETATM   27  C2  UNL     1      32.075   5.988  48.850  1.00  0.00     0.218 C 
HETATM   28  C1  UNL     1      33.391   5.474  48.398  1.00  0.00     0.117 C 
HETATM   29  O1  UNL     1      31.588   5.458  49.874  1.00  0.00    -0.274 OA
HETATM   30  H4  UNL     1      31.866   7.372  47.371  1.00  0.00     0.169 HD
ENDBRANCH  24  26
ENDBRANCH  19  20
ENDBRANCH   1  19
TORSDOF 3
ENDMDL
