MODEL 1
REMARK VINA RESULT:      -7.4      0.000      0.000
REMARK  7 active torsions:
REMARK  status: ('A' for Active; 'I' for Inactive)
REMARK    1  A    between atoms: C2_2  and  C4_4 
REMARK    2  A    between atoms: C4_4  and  C15_20 
REMARK    3  A    between atoms: C8_10  and  N3_11 
REMARK    4  A    between atoms: N3_11  and  C9_12 
REMARK    5  A    between atoms: C15_20  and  O1_22 
REMARK    6  A    between atoms: O1_22  and  C17_23 
REMARK    7  A    between atoms: C17_23  and  O2_24 
ROOT
HETATM    1  C4  UNL     1      21.595   1.590  52.594  1.00  0.00    -0.036 C 
HETATM    2  C5  UNL     1      21.834   0.589  53.436  1.00  0.00     0.013 A 
HETATM    3  C6  UNL     1      20.970  -0.167  54.337  1.00  0.00     0.193 A 
HETATM    4  N1  UNL     1      21.633  -1.187  55.082  1.00  0.00    -0.278 NA
HETATM    5  C7  UNL     1      22.790  -1.558  55.223  1.00  0.00     0.229 A 
HETATM    6  N2  UNL     1      23.682  -0.793  54.449  1.00  0.00    -0.224 NA
HETATM    7  C8  UNL     1      23.222   0.142  53.692  1.00  0.00     0.137 A 
ENDROOT
BRANCH   1   8
HETATM    8  C2  UNL     1      20.257   2.192  52.436  1.00  0.00     0.010 C 
HETATM    9  C1  UNL     1      20.384   3.687  52.014  1.00  0.00     0.014 C 
HETATM   10  C3  UNL     1      19.269   1.603  51.504  1.00  0.00     0.014 C 
ENDBRANCH   1   8
BRANCH   1  11
HETATM   11  C15 UNL     1      22.317   2.364  51.562  1.00  0.00     0.150 C 
HETATM   12  C16 UNL     1      22.712   1.618  50.314  1.00  0.00     0.044 C 
BRANCH  11  13
HETATM   13  O1  UNL     1      23.334   3.160  52.055  1.00  0.00    -0.358 OA
BRANCH  13  14
HETATM   14  C17 UNL     1      24.172   3.777  51.212  1.00  0.00     0.335 C 
BRANCH  14  15
HETATM   15  O2  UNL     1      25.539   3.499  51.468  1.00  0.00    -0.377 OA
HETATM   16  H21 UNL     1      25.763   3.529  52.419  1.00  0.00     0.212 HD
ENDBRANCH  14  15
ENDBRANCH  13  14
ENDBRANCH  11  13
ENDBRANCH   1  11
BRANCH   7  17
HETATM   17  N3  UNL     1      24.393   0.837  53.209  1.00  0.00    -0.340 N 
HETATM   18  H11 UNL     1      24.141   1.792  52.778  1.00  0.00     0.167 HD
BRANCH  17  19
HETATM   19  C9  UNL     1      25.771   0.443  53.241  1.00  0.00     0.035 A 
HETATM   20  C10 UNL     1      26.135  -0.777  52.705  1.00  0.00     0.032 A 
HETATM   21  C11 UNL     1      27.465  -1.128  52.756  1.00  0.00     0.046 A 
HETATM   22  C12 UNL     1      28.473  -0.353  53.305  1.00  0.00     0.138 A 
HETATM   23  F1  UNL     1      29.750  -0.807  53.296  1.00  0.00    -0.204 F 
HETATM   24  C13 UNL     1      28.065   0.854  53.828  1.00  0.00     0.074 A 
HETATM   25 CL1  UNL     1      29.283   1.888  54.538  1.00  0.00    -0.081 Cl
HETATM   26  C14 UNL     1      26.748   1.230  53.790  1.00  0.00     0.056 A 
ENDBRANCH  17  19
ENDBRANCH   7  17
TORSDOF 7
ENDMDL
MODEL 2
REMARK VINA RESULT:      -7.4      1.333      1.657
REMARK  7 active torsions:
REMARK  status: ('A' for Active; 'I' for Inactive)
REMARK    1  A    between atoms: C2_2  and  C4_4 
REMARK    2  A    between atoms: C4_4  and  C15_20 
REMARK    3  A    between atoms: C8_10  and  N3_11 
REMARK    4  A    between atoms: N3_11  and  C9_12 
REMARK    5  A    between atoms: C15_20  and  O1_22 
REMARK    6  A    between atoms: O1_22  and  C17_23 
REMARK    7  A    between atoms: C17_23  and  O2_24 
ROOT
HETATM    1  C4  UNL     1      22.022   2.256  52.265  1.00  0.00    -0.036 C 
HETATM    2  C5  UNL     1      21.931   1.181  53.042  1.00  0.00     0.013 A 
HETATM    3  C6  UNL     1      20.948   0.766  54.037  1.00  0.00     0.193 A 
HETATM    4  N1  UNL     1      21.222  -0.488  54.658  1.00  0.00    -0.278 NA
HETATM    5  C7  UNL     1      22.137  -1.300  54.629  1.00  0.00     0.229 A 
HETATM    6  N2  UNL     1      23.164  -0.898  53.757  1.00  0.00    -0.224 NA
HETATM    7  C8  UNL     1      23.039   0.199  53.092  1.00  0.00     0.137 A 
ENDROOT
BRANCH   1   8
HETATM    8  C2  UNL     1      21.035   3.352  52.308  1.00  0.00     0.010 C 
HETATM    9  C1  UNL     1      21.711   4.702  51.920  1.00  0.00     0.014 C 
HETATM   10  C3  UNL     1      19.797   3.286  51.499  1.00  0.00     0.014 C 
ENDBRANCH   1   8
BRANCH   1  11
HETATM   11  C15 UNL     1      22.869   2.755  51.160  1.00  0.00     0.150 C 
HETATM   12  C16 UNL     1      22.779   2.010  49.853  1.00  0.00     0.044 C 
BRANCH  11  13
HETATM   13  O1  UNL     1      24.172   3.040  51.526  1.00  0.00    -0.358 OA
BRANCH  13  14
HETATM   14  C17 UNL     1      25.087   3.311  50.588  1.00  0.00     0.335 C 
BRANCH  14  15
HETATM   15  O2  UNL     1      26.384   3.543  51.113  1.00  0.00    -0.377 OA
HETATM   16  H21 UNL     1      26.440   4.358  51.650  1.00  0.00     0.212 HD
ENDBRANCH  14  15
ENDBRANCH  13  14
ENDBRANCH  11  13
ENDBRANCH   1  11
BRANCH   7  17
HETATM   17  N3  UNL     1      24.325   0.403  52.468  1.00  0.00    -0.340 N 
HETATM   18  H11 UNL     1      24.224   0.775  51.461  1.00  0.00     0.167 HD
BRANCH  17  19
HETATM   19  C9  UNL     1      25.642   0.198  52.993  1.00  0.00     0.035 A 
HETATM   20  C10 UNL     1      26.201   1.165  53.807  1.00  0.00     0.032 A 
HETATM   21  C11 UNL     1      27.469   0.940  54.291  1.00  0.00     0.046 A 
HETATM   22  C12 UNL     1      28.235  -0.183  54.027  1.00  0.00     0.138 A 
HETATM   23  F1  UNL     1      29.476  -0.292  54.563  1.00  0.00    -0.204 F 
HETATM   24  C13 UNL     1      27.640  -1.120  53.212  1.00  0.00     0.074 A 
HETATM   25 CL1  UNL     1      28.547  -2.566  52.834  1.00  0.00    -0.081 Cl
HETATM   26  C14 UNL     1      26.378  -0.923  52.717  1.00  0.00     0.056 A 
ENDBRANCH  17  19
ENDBRANCH   7  17
TORSDOF 7
ENDMDL
MODEL 3
REMARK VINA RESULT:      -7.2      3.945      5.860
REMARK  7 active torsions:
REMARK  status: ('A' for Active; 'I' for Inactive)
REMARK    1  A    between atoms: C2_2  and  C4_4 
REMARK    2  A    between atoms: C4_4  and  C15_20 
REMARK    3  A    between atoms: C8_10  and  N3_11 
REMARK    4  A    between atoms: N3_11  and  C9_12 
REMARK    5  A    between atoms: C15_20  and  O1_22 
REMARK    6  A    between atoms: O1_22  and  C17_23 
REMARK    7  A    between atoms: C17_23  and  O2_24 
ROOT
HETATM    1  C4  UNL     1      23.521   1.302  51.872  1.00  0.00    -0.036 C 
HETATM    2  C5  UNL     1      22.985   1.659  50.709  1.00  0.00     0.013 A 
HETATM    3  C6  UNL     1      21.815   1.185  49.978  1.00  0.00     0.193 A 
HETATM    4  N1  UNL     1      21.577   1.851  48.739  1.00  0.00    -0.278 NA
HETATM    5  C7  UNL     1      22.159   2.693  48.070  1.00  0.00     0.229 A 
HETATM    6  N2  UNL     1      23.353   3.113  48.684  1.00  0.00    -0.224 NA
HETATM    7  C8  UNL     1      23.681   2.627  49.831  1.00  0.00     0.137 A 
ENDROOT
BRANCH   1   8
HETATM    8  C2  UNL     1      22.965   0.215  52.702  1.00  0.00     0.010 C 
HETATM    9  C1  UNL     1      24.101  -0.480  53.512  1.00  0.00     0.014 C 
HETATM   10  C3  UNL     1      21.892   0.488  53.685  1.00  0.00     0.014 C 
ENDBRANCH   1   8
BRANCH   1  11
HETATM   11  C15 UNL     1      24.604   1.746  52.775  1.00  0.00     0.150 C 
HETATM   12  C16 UNL     1      24.451   3.114  53.389  1.00  0.00     0.044 C 
BRANCH  11  13
HETATM   13  O1  UNL     1      25.879   1.516  52.291  1.00  0.00    -0.358 OA
BRANCH  13  14
HETATM   14  C17 UNL     1      26.936   2.074  52.894  1.00  0.00     0.335 C 
BRANCH  14  15
HETATM   15  O2  UNL     1      27.732   2.864  52.025  1.00  0.00    -0.377 OA
HETATM   16  H21 UNL     1      28.133   2.348  51.299  1.00  0.00     0.212 HD
ENDBRANCH  14  15
ENDBRANCH  13  14
ENDBRANCH  11  13
ENDBRANCH   1  11
BRANCH   7  17
HETATM   17  N3  UNL     1      25.022   3.109  50.068  1.00  0.00    -0.340 N 
HETATM   18  H11 UNL     1      25.626   2.375  50.577  1.00  0.00     0.167 HD
BRANCH  17  19
HETATM   19  C9  UNL     1      25.620   4.365  49.721  1.00  0.00     0.035 A 
HETATM   20  C10 UNL     1      26.778   4.373  48.968  1.00  0.00     0.032 A 
HETATM   21  C11 UNL     1      27.329   5.596  48.655  1.00  0.00     0.046 A 
HETATM   22  C12 UNL     1      26.815   6.823  49.038  1.00  0.00     0.138 A 
HETATM   23  F1  UNL     1      27.450   7.962  48.668  1.00  0.00    -0.204 F 
HETATM   24  C13 UNL     1      25.661   6.767  49.787  1.00  0.00     0.074 A 
HETATM   25 CL1  UNL     1      24.952   8.278  50.306  1.00  0.00    -0.081 Cl
HETATM   26  C14 UNL     1      25.089   5.566  50.112  1.00  0.00     0.056 A 
ENDBRANCH  17  19
ENDBRANCH   7  17
TORSDOF 7
ENDMDL
MODEL 4
REMARK VINA RESULT:      -7.2      2.098      3.627
REMARK  7 active torsions:
REMARK  status: ('A' for Active; 'I' for Inactive)
REMARK    1  A    between atoms: C2_2  and  C4_4 
REMARK    2  A    between atoms: C4_4  and  C15_20 
REMARK    3  A    between atoms: C8_10  and  N3_11 
REMARK    4  A    between atoms: N3_11  and  C9_12 
REMARK    5  A    between atoms: C15_20  and  O1_22 
REMARK    6  A    between atoms: O1_22  and  C17_23 
REMARK    7  A    between atoms: C17_23  and  O2_24 
ROOT
HETATM    1  C4  UNL     1      22.372   0.384  52.634  1.00  0.00    -0.036 C 
HETATM    2  C5  UNL     1      23.181   1.255  52.039  1.00  0.00     0.013 A 
HETATM    3  C6  UNL     1      22.926   2.413  51.188  1.00  0.00     0.193 A 
HETATM    4  N1  UNL     1      24.097   3.099  50.749  1.00  0.00    -0.278 NA
HETATM    5  C7  UNL     1      25.304   2.921  50.841  1.00  0.00     0.229 A 
HETATM    6  N2  UNL     1      25.606   1.757  51.570  1.00  0.00    -0.224 NA
HETATM    7  C8  UNL     1      24.647   1.052  52.066  1.00  0.00     0.137 A 
ENDROOT
BRANCH   1   8
HETATM    8  C2  UNL     1      20.904   0.438  52.490  1.00  0.00     0.010 C 
HETATM    9  C1  UNL     1      20.354   1.775  53.072  1.00  0.00     0.014 C 
HETATM   10  C3  UNL     1      20.270   0.297  51.160  1.00  0.00     0.014 C 
ENDBRANCH   1   8
BRANCH   1  11
HETATM   11  C15 UNL     1      22.466  -0.740  53.590  1.00  0.00     0.150 C 
HETATM   12  C16 UNL     1      21.164  -1.337  54.058  1.00  0.00     0.044 C 
BRANCH  11  13
HETATM   13  O1  UNL     1      23.363  -0.536  54.622  1.00  0.00    -0.358 OA
BRANCH  13  14
HETATM   14  C17 UNL     1      23.492  -1.451  55.590  1.00  0.00     0.335 C 
BRANCH  14  15
HETATM   15  O2  UNL     1      24.829  -1.630  56.026  1.00  0.00    -0.377 OA
HETATM   16  H21 UNL     1      24.991  -1.274  56.922  1.00  0.00     0.212 HD
ENDBRANCH  14  15
ENDBRANCH  13  14
ENDBRANCH  11  13
ENDBRANCH   1  11
BRANCH   7  17
HETATM   17  N3  UNL     1      25.286  -0.144  52.563  1.00  0.00    -0.340 N 
HETATM   18  H11 UNL     1      24.593  -0.967  52.629  1.00  0.00     0.167 HD
BRANCH  17  19
HETATM   19  C9  UNL     1      26.649  -0.364  52.947  1.00  0.00     0.035 A 
HETATM   20  C10 UNL     1      27.231  -1.590  52.688  1.00  0.00     0.032 A 
HETATM   21  C11 UNL     1      28.541  -1.770  53.073  1.00  0.00     0.046 A 
HETATM   22  C12 UNL     1      29.324  -0.819  53.704  1.00  0.00     0.138 A 
HETATM   23  F1  UNL     1      30.605  -1.116  54.035  1.00  0.00    -0.204 F 
HETATM   24  C13 UNL     1      28.704   0.387  53.942  1.00  0.00     0.074 A 
HETATM   25 CL1  UNL     1      29.632   1.639  54.735  1.00  0.00    -0.081 Cl
HETATM   26  C14 UNL     1      27.403   0.596  53.569  1.00  0.00     0.056 A 
ENDBRANCH  17  19
ENDBRANCH   7  17
TORSDOF 7
ENDMDL
MODEL 5
REMARK VINA RESULT:      -7.2      3.916      6.898
REMARK  7 active torsions:
REMARK  status: ('A' for Active; 'I' for Inactive)
REMARK    1  A    between atoms: C2_2  and  C4_4 
REMARK    2  A    between atoms: C4_4  and  C15_20 
REMARK    3  A    between atoms: C8_10  and  N3_11 
REMARK    4  A    between atoms: N3_11  and  C9_12 
REMARK    5  A    between atoms: C15_20  and  O1_22 
REMARK    6  A    between atoms: O1_22  and  C17_23 
REMARK    7  A    between atoms: C17_23  and  O2_24 
ROOT
HETATM    1  C4  UNL     1      27.042   0.434  52.717  1.00  0.00    -0.036 C 
HETATM    2  C5  UNL     1      26.309   1.309  52.035  1.00  0.00     0.013 A 
HETATM    3  C6  UNL     1      26.629   2.591  51.417  1.00  0.00     0.193 A 
HETATM    4  N1  UNL     1      25.532   3.226  50.762  1.00  0.00    -0.278 NA
HETATM    5  C7  UNL     1      24.335   3.005  50.642  1.00  0.00     0.229 A 
HETATM    6  N2  UNL     1      23.953   1.827  51.307  1.00  0.00    -0.224 NA
HETATM    7  C8  UNL     1      24.845   1.122  51.913  1.00  0.00     0.137 A 
ENDROOT
BRANCH   1   8
HETATM    8  C2  UNL     1      28.469   0.661  53.021  1.00  0.00     0.010 C 
HETATM    9  C1  UNL     1      28.632   1.901  53.951  1.00  0.00     0.014 C 
HETATM   10  C3  UNL     1      29.288  -0.405  53.641  1.00  0.00     0.014 C 
ENDBRANCH   1   8
BRANCH   1  11
HETATM   11  C15 UNL     1      26.899  -0.920  53.293  1.00  0.00     0.150 C 
HETATM   12  C16 UNL     1      26.898  -2.070  52.319  1.00  0.00     0.044 C 
BRANCH  11  13
HETATM   13  O1  UNL     1      25.908  -1.029  54.251  1.00  0.00    -0.358 OA
BRANCH  13  14
HETATM   14  C17 UNL     1      26.059  -0.437  55.442  1.00  0.00     0.335 C 
BRANCH  14  15
HETATM   15  O2  UNL     1      25.398  -1.115  56.499  1.00  0.00    -0.377 OA
HETATM   16  H21 UNL     1      25.442  -0.633  57.348  1.00  0.00     0.212 HD
ENDBRANCH  14  15
ENDBRANCH  13  14
ENDBRANCH  11  13
ENDBRANCH   1  11
BRANCH   7  17
HETATM   17  N3  UNL     1      24.098   0.120  52.637  1.00  0.00    -0.340 N 
HETATM   18  H11 UNL     1      24.747  -0.616  53.084  1.00  0.00     0.167 HD
BRANCH  17  19
HETATM   19  C9  UNL     1      22.684  -0.004  52.836  1.00  0.00     0.035 A 
HETATM   20  C10 UNL     1      22.211  -0.412  54.068  1.00  0.00     0.032 A 
HETATM   21  C11 UNL     1      20.848  -0.526  54.224  1.00  0.00     0.046 A 
HETATM   22  C12 UNL     1      19.908  -0.264  53.241  1.00  0.00     0.138 A 
HETATM   23  F1  UNL     1      18.589  -0.413  53.516  1.00  0.00    -0.204 F 
HETATM   24  C13 UNL     1      20.424   0.139  52.030  1.00  0.00     0.074 A 
HETATM   25 CL1  UNL     1      19.298   0.489  50.739  1.00  0.00    -0.081 Cl
HETATM   26  C14 UNL     1      21.776   0.263  51.846  1.00  0.00     0.056 A 
ENDBRANCH  17  19
ENDBRANCH   7  17
TORSDOF 7
ENDMDL
MODEL 6
REMARK VINA RESULT:      -7.1      3.045      4.467
REMARK  7 active torsions:
REMARK  status: ('A' for Active; 'I' for Inactive)
REMARK    1  A    between atoms: C2_2  and  C4_4 
REMARK    2  A    between atoms: C4_4  and  C15_20 
REMARK    3  A    between atoms: C8_10  and  N3_11 
REMARK    4  A    between atoms: N3_11  and  C9_12 
REMARK    5  A    between atoms: C15_20  and  O1_22 
REMARK    6  A    between atoms: O1_22  and  C17_23 
REMARK    7  A    between atoms: C17_23  and  O2_24 
ROOT
HETATM    1  C4  UNL     1      22.608   0.544  52.841  1.00  0.00    -0.036 C 
HETATM    2  C5  UNL     1      23.832   0.336  53.319  1.00  0.00     0.013 A 
HETATM    3  C6  UNL     1      24.403  -0.732  54.132  1.00  0.00     0.193 A 
HETATM    4  N1  UNL     1      25.789  -0.577  54.430  1.00  0.00    -0.278 NA
HETATM    5  C7  UNL     1      26.637   0.284  54.238  1.00  0.00     0.229 A 
HETATM    6  N2  UNL     1      26.111   1.388  53.542  1.00  0.00    -0.224 NA
HETATM    7  C8  UNL     1      24.878   1.374  53.169  1.00  0.00     0.137 A 
ENDROOT
BRANCH   1   8
HETATM    8  C2  UNL     1      21.484  -0.372  53.114  1.00  0.00     0.010 C 
HETATM    9  C1  UNL     1      21.160  -0.389  54.639  1.00  0.00     0.014 C 
HETATM   10  C3  UNL     1      20.180  -0.192  52.437  1.00  0.00     0.014 C 
ENDBRANCH   1   8
BRANCH   1  11
HETATM   11  C15 UNL     1      21.918   1.488  51.936  1.00  0.00     0.150 C 
HETATM   12  C16 UNL     1      22.319   1.443  50.484  1.00  0.00     0.044 C 
BRANCH  11  13
HETATM   13  O1  UNL     1      21.820   2.777  52.426  1.00  0.00    -0.358 OA
BRANCH  13  14
HETATM   14  C17 UNL     1      20.877   3.603  51.957  1.00  0.00     0.335 C 
BRANCH  14  15
HETATM   15  O2  UNL     1      19.582   3.332  52.469  1.00  0.00    -0.377 OA
HETATM   16  H21 UNL     1      19.270   2.430  52.260  1.00  0.00     0.212 HD
ENDBRANCH  14  15
ENDBRANCH  13  14
ENDBRANCH  11  13
ENDBRANCH   1  11
BRANCH   7  17
HETATM   17  N3  UNL     1      24.625   2.707  52.674  1.00  0.00    -0.340 N 
HETATM   18  H11 UNL     1      23.924   3.238  53.298  1.00  0.00     0.167 HD
BRANCH  17  19
HETATM   19  C9  UNL     1      25.167   3.378  51.530  1.00  0.00     0.035 A 
HETATM   20  C10 UNL     1      26.241   2.816  50.866  1.00  0.00     0.032 A 
HETATM   21  C11 UNL     1      26.741   3.489  49.774  1.00  0.00     0.046 A 
HETATM   22  C12 UNL     1      26.255   4.689  49.286  1.00  0.00     0.138 A 
HETATM   23  F1  UNL     1      26.833   5.257  48.199  1.00  0.00    -0.204 F 
HETATM   24  C13 UNL     1      25.186   5.213  49.978  1.00  0.00     0.074 A 
HETATM   25 CL1  UNL     1      24.516   6.729  49.419  1.00  0.00    -0.081 Cl
HETATM   26  C14 UNL     1      24.666   4.566  51.067  1.00  0.00     0.056 A 
ENDBRANCH  17  19
ENDBRANCH   7  17
TORSDOF 7
ENDMDL
MODEL 7
REMARK VINA RESULT:      -7.1      3.426      5.607
REMARK  7 active torsions:
REMARK  status: ('A' for Active; 'I' for Inactive)
REMARK    1  A    between atoms: C2_2  and  C4_4 
REMARK    2  A    between atoms: C4_4  and  C15_20 
REMARK    3  A    between atoms: C8_10  and  N3_11 
REMARK    4  A    between atoms: N3_11  and  C9_12 
REMARK    5  A    between atoms: C15_20  and  O1_22 
REMARK    6  A    between atoms: O1_22  and  C17_23 
REMARK    7  A    between atoms: C17_23  and  O2_24 
ROOT
HETATM    1  C4  UNL     1      24.527   0.530  53.273  1.00  0.00    -0.036 C 
HETATM    2  C5  UNL     1      23.266   0.123  53.384  1.00  0.00     0.013 A 
HETATM    3  C6  UNL     1      22.672  -1.124  53.857  1.00  0.00     0.193 A 
HETATM    4  N1  UNL     1      21.247  -1.156  53.818  1.00  0.00    -0.278 NA
HETATM    5  C7  UNL     1      20.363  -0.415  53.409  1.00  0.00     0.229 A 
HETATM    6  N2  UNL     1      20.888   0.763  52.848  1.00  0.00    -0.224 NA
HETATM    7  C8  UNL     1      22.163   0.952  52.848  1.00  0.00     0.137 A 
ENDROOT
BRANCH   1   8
HETATM    8  C2  UNL     1      25.672  -0.331  53.627  1.00  0.00     0.010 C 
HETATM    9  C1  UNL     1      26.338  -0.900  52.337  1.00  0.00     0.014 C 
HETATM   10  C3  UNL     1      26.788   0.195  54.445  1.00  0.00     0.014 C 
ENDBRANCH   1   8
BRANCH   1  11
HETATM   11  C15 UNL     1      25.266   1.763  52.930  1.00  0.00     0.150 C 
HETATM   12  C16 UNL     1      24.826   3.027  53.623  1.00  0.00     0.044 C 
BRANCH  11  13
HETATM   13  O1  UNL     1      25.478   1.942  51.575  1.00  0.00    -0.358 OA
BRANCH  13  14
HETATM   14  C17 UNL     1      26.397   2.817  51.149  1.00  0.00     0.335 C 
BRANCH  14  15
HETATM   15  O2  UNL     1      27.607   2.770  51.888  1.00  0.00    -0.377 OA
HETATM   16  H21 UNL     1      28.286   3.386  51.549  1.00  0.00     0.212 HD
ENDBRANCH  14  15
ENDBRANCH  13  14
ENDBRANCH  11  13
ENDBRANCH   1  11
BRANCH   7  17
HETATM   17  N3  UNL     1      22.363   2.132  52.039  1.00  0.00    -0.340 N 
HETATM   18  H11 UNL     1      22.595   2.995  52.643  1.00  0.00     0.167 HD
BRANCH  17  19
HETATM   19  C9  UNL     1      22.307   2.288  50.616  1.00  0.00     0.035 A 
HETATM   20  C10 UNL     1      21.872   1.231  49.839  1.00  0.00     0.032 A 
HETATM   21  C11 UNL     1      21.836   1.411  48.475  1.00  0.00     0.046 A 
HETATM   22  C12 UNL     1      22.201   2.572  47.815  1.00  0.00     0.138 A 
HETATM   23  F1  UNL     1      22.122   2.629  46.462  1.00  0.00    -0.204 F 
HETATM   24  C13 UNL     1      22.628   3.598  48.626  1.00  0.00     0.074 A 
HETATM   25 CL1  UNL     1      23.107   5.097  47.864  1.00  0.00    -0.081 Cl
HETATM   26  C14 UNL     1      22.674   3.448  49.988  1.00  0.00     0.056 A 
ENDBRANCH  17  19
ENDBRANCH   7  17
TORSDOF 7
ENDMDL
MODEL 8
REMARK VINA RESULT:      -6.9      1.777      2.591
REMARK  7 active torsions:
REMARK  status: ('A' for Active; 'I' for Inactive)
REMARK    1  A    between atoms: C2_2  and  C4_4 
REMARK    2  A    between atoms: C4_4  and  C15_20 
REMARK    3  A    between atoms: C8_10  and  N3_11 
REMARK    4  A    between atoms: N3_11  and  C9_12 
REMARK    5  A    between atoms: C15_20  and  O1_22 
REMARK    6  A    between atoms: O1_22  and  C17_23 
REMARK    7  A    between atoms: C17_23  and  O2_24 
ROOT
HETATM    1  C4  UNL     1      23.276   2.396  50.635  1.00  0.00    -0.036 C 
HETATM    2  C5  UNL     1      22.954   1.364  51.409  1.00  0.00     0.013 A 
HETATM    3  C6  UNL     1      21.773   0.510  51.470  1.00  0.00     0.193 A 
HETATM    4  N1  UNL     1      21.827  -0.511  52.464  1.00  0.00    -0.278 NA
HETATM    5  C7  UNL     1      22.599  -0.823  53.360  1.00  0.00     0.229 A 
HETATM    6  N2  UNL     1      23.712   0.035  53.412  1.00  0.00    -0.224 NA
HETATM    7  C8  UNL     1      23.822   0.985  52.547  1.00  0.00     0.137 A 
ENDROOT
BRANCH   1   8
HETATM    8  C2  UNL     1      22.365   2.928  49.602  1.00  0.00     0.010 C 
HETATM    9  C1  UNL     1      22.216   1.904  48.436  1.00  0.00     0.014 C 
HETATM   10  C3  UNL     1      20.984   3.333  49.949  1.00  0.00     0.014 C 
ENDBRANCH   1   8
BRANCH   1  11
HETATM   11  C15 UNL     1      24.442   3.268  50.381  1.00  0.00     0.150 C 
HETATM   12  C16 UNL     1      25.681   2.598  49.847  1.00  0.00     0.044 C 
BRANCH  11  13
HETATM   13  O1  UNL     1      24.715   4.165  51.398  1.00  0.00    -0.358 OA
BRANCH  13  14
HETATM   14  C17 UNL     1      24.101   5.354  51.427  1.00  0.00     0.335 C 
BRANCH  14  15
HETATM   15  O2  UNL     1      23.941   5.876  52.736  1.00  0.00    -0.377 OA
HETATM   16  H21 UNL     1      23.147   6.439  52.829  1.00  0.00     0.212 HD
ENDBRANCH  14  15
ENDBRANCH  13  14
ENDBRANCH  11  13
ENDBRANCH   1  11
BRANCH   7  17
HETATM   17  N3  UNL     1      24.944   1.772  53.001  1.00  0.00    -0.340 N 
HETATM   18  H11 UNL     1      24.654   2.785  53.229  1.00  0.00     0.167 HD
BRANCH  17  19
HETATM   19  C9  UNL     1      26.314   1.394  53.189  1.00  0.00     0.035 A 
HETATM   20  C10 UNL     1      27.242   2.365  53.512  1.00  0.00     0.032 A 
HETATM   21  C11 UNL     1      28.550   1.969  53.680  1.00  0.00     0.046 A 
HETATM   22  C12 UNL     1      29.012   0.670  53.551  1.00  0.00     0.138 A 
HETATM   23  F1  UNL     1      30.328   0.403  53.742  1.00  0.00    -0.204 F 
HETATM   24  C13 UNL     1      28.054  -0.264  53.230  1.00  0.00     0.074 A 
HETATM   25 CL1  UNL     1      28.563  -1.927  53.050  1.00  0.00    -0.081 Cl
HETATM   26  C14 UNL     1      26.744   0.100  53.057  1.00  0.00     0.056 A 
ENDBRANCH  17  19
ENDBRANCH   7  17
TORSDOF 7
ENDMDL
MODEL 9
REMARK VINA RESULT:      -6.7      3.674      5.747
REMARK  7 active torsions:
REMARK  status: ('A' for Active; 'I' for Inactive)
REMARK    1  A    between atoms: C2_2  and  C4_4 
REMARK    2  A    between atoms: C4_4  and  C15_20 
REMARK    3  A    between atoms: C8_10  and  N3_11 
REMARK    4  A    between atoms: N3_11  and  C9_12 
REMARK    5  A    between atoms: C15_20  and  O1_22 
REMARK    6  A    between atoms: O1_22  and  C17_23 
REMARK    7  A    between atoms: C17_23  and  O2_24 
ROOT
HETATM    1  C4  UNL     1      24.542   2.756  51.239  1.00  0.00    -0.036 C 
HETATM    2  C5  UNL     1      25.149   1.693  51.759  1.00  0.00     0.013 A 
HETATM    3  C6  UNL     1      26.339   0.947  51.363  1.00  0.00     0.193 A 
HETATM    4  N1  UNL     1      26.662  -0.153  52.212  1.00  0.00    -0.278 NA
HETATM    5  C7  UNL     1      26.144  -0.698  53.176  1.00  0.00     0.229 A 
HETATM    6  N2  UNL     1      24.935  -0.078  53.540  1.00  0.00    -0.224 NA
HETATM    7  C8  UNL     1      24.532   0.957  52.886  1.00  0.00     0.137 A 
ENDROOT
BRANCH   1   8
HETATM    8  C2  UNL     1      25.017   3.418  50.009  1.00  0.00     0.010 C 
HETATM    9  C1  UNL     1      23.910   3.377  48.912  1.00  0.00     0.014 C 
HETATM   10  C3  UNL     1      25.489   4.821  50.040  1.00  0.00     0.014 C 
ENDBRANCH   1   8
BRANCH   1  11
HETATM   11  C15 UNL     1      23.430   3.670  51.575  1.00  0.00     0.150 C 
HETATM   12  C16 UNL     1      23.580   4.479  52.837  1.00  0.00     0.044 C 
BRANCH  11  13
HETATM   13  O1  UNL     1      22.173   3.109  51.445  1.00  0.00    -0.358 OA
BRANCH  13  14
HETATM   14  C17 UNL     1      21.089   3.893  51.400  1.00  0.00     0.335 C 
BRANCH  14  15
HETATM   15  O2  UNL     1      20.144   3.612  52.419  1.00  0.00    -0.377 OA
HETATM   16  H21 UNL     1      20.548   3.543  53.307  1.00  0.00     0.212 HD
ENDBRANCH  14  15
ENDBRANCH  13  14
ENDBRANCH  11  13
ENDBRANCH   1  11
BRANCH   7  17
HETATM   17  N3  UNL     1      23.198   1.211  53.379  1.00  0.00    -0.340 N 
HETATM   18  H11 UNL     1      23.070   2.241  53.671  1.00  0.00     0.167 HD
BRANCH  17  19
HETATM   19  C9  UNL     1      22.084   0.319  53.509  1.00  0.00     0.035 A 
HETATM   20  C10 UNL     1      22.134  -0.688  54.455  1.00  0.00     0.032 A 
HETATM   21  C11 UNL     1      21.050  -1.531  54.551  1.00  0.00     0.046 A 
HETATM   22  C12 UNL     1      19.908  -1.452  53.771  1.00  0.00     0.138 A 
HETATM   23  F1  UNL     1      18.904  -2.343  53.960  1.00  0.00    -0.204 F 
HETATM   24  C13 UNL     1      19.901  -0.436  52.843  1.00  0.00     0.074 A 
HETATM   25 CL1  UNL     1      18.491  -0.273  51.822  1.00  0.00    -0.081 Cl
HETATM   26  C14 UNL     1      20.965   0.419  52.725  1.00  0.00     0.056 A 
ENDBRANCH  17  19
ENDBRANCH   7  17
TORSDOF 7
ENDMDL
