MODEL 1
REMARK VINA RESULT:      -8.0      0.000      0.000
REMARK  5 active torsions:
REMARK  status: ('A' for Active; 'I' for Inactive)
REMARK    1  A    between atoms: C1_2  and  C2_3 
REMARK    2  A    between atoms: C2_3  and  N1_4 
REMARK    3  A    between atoms: N1_4  and  C3_5 
REMARK    4  A    between atoms: C7_9  and  N2_10 
REMARK    5  A    between atoms: N2_10  and  C8_11 
ROOT
HETATM    1  N2  UNL     1      23.160   2.123  52.868  1.00  0.00    -0.190 N 
HETATM    2  H8  UNL     1      22.985   2.880  53.576  1.00  0.00     0.184 HD
ENDROOT
BRANCH   1   3
HETATM    3  C7  UNL     1      22.039   1.355  52.511  1.00  0.00     0.051 A 
HETATM    4  C6  UNL     1      21.706   1.436  51.165  1.00  0.00     0.030 A 
HETATM    5  C5  UNL     1      20.556   0.710  50.818  1.00  0.00     0.004 A 
HETATM    6  C4  UNL     1      19.835  -0.022  51.713  1.00  0.00     0.029 A 
HETATM    7  C3  UNL     1      20.229  -0.058  53.029  1.00  0.00     0.030 A 
HETATM    8  C17 UNL     1      21.355   0.641  53.454  1.00  0.00     0.059 A 
BRANCH   7   9
HETATM    9  N1  UNL     1      19.373  -0.856  53.881  1.00  0.00    -0.384 N 
HETATM   10  H4  UNL     1      19.632  -1.044  54.859  1.00  0.00     0.160 HD
BRANCH   9  11
HETATM   11  C2  UNL     1      18.142  -1.349  53.327  1.00  0.00     0.189 C 
BRANCH  11  12
HETATM   12  C1  UNL     1      17.765  -2.709  53.678  1.00  0.00     0.250 C 
HETATM   13  O1  UNL     1      16.857  -3.424  53.270  1.00  0.00    -0.305 OA
ENDBRANCH  11  12
ENDBRANCH   9  11
ENDBRANCH   7   9
ENDBRANCH   1   3
BRANCH   1  14
HETATM   14  C8  UNL     1      24.444   1.924  52.290  1.00  0.00     0.708 A 
HETATM   15  N3  UNL     1      25.062   2.710  51.451  1.00  0.00    -0.078 NA
HETATM   16  C9  UNL     1      26.350   2.421  51.029  1.00  0.00     0.141 A 
HETATM   17  C10 UNL     1      26.764   1.240  51.643  1.00  0.00     0.200 A 
HETATM   18  C11 UNL     1      26.208   0.227  52.595  1.00  0.00     0.071 A 
HETATM   19  N5  UNL     1      25.360   1.141  52.380  1.00  0.00    -0.166 N 
HETATM   20  C12 UNL     1      27.146  -0.820  52.833  1.00  0.00     0.007 A 
HETATM   21  C13 UNL     1      28.338  -0.237  53.374  1.00  0.00     0.016 A 
HETATM   22  C16 UNL     1      27.023  -2.156  52.547  1.00  0.00     0.129 A 
HETATM   23  C14 UNL     1      29.426  -1.085  53.609  1.00  0.00     0.020 A 
HETATM   24  C15 UNL     1      29.258  -2.408  53.294  1.00  0.00     0.116 A 
HETATM   25  N4  UNL     1      28.133  -2.911  52.804  1.00  0.00    -0.272 NA
ENDBRANCH   1  14
TORSDOF 5
ENDMDL
MODEL 2
REMARK VINA RESULT:      -7.9      4.455      6.874
REMARK  5 active torsions:
REMARK  status: ('A' for Active; 'I' for Inactive)
REMARK    1  A    between atoms: C1_2  and  C2_3 
REMARK    2  A    between atoms: C2_3  and  N1_4 
REMARK    3  A    between atoms: N1_4  and  C3_5 
REMARK    4  A    between atoms: C7_9  and  N2_10 
REMARK    5  A    between atoms: N2_10  and  C8_11 
ROOT
HETATM    1  N2  UNL     1      23.622   2.423  50.600  1.00  0.00    -0.190 N 
HETATM    2  H8  UNL     1      22.969   2.149  49.823  1.00  0.00     0.184 HD
ENDROOT
BRANCH   1   3
HETATM    3  C7  UNL     1      24.076   3.752  50.571  1.00  0.00     0.051 A 
HETATM    4  C6  UNL     1      23.193   4.661  51.139  1.00  0.00     0.030 A 
HETATM    5  C5  UNL     1      23.622   5.995  51.063  1.00  0.00     0.004 A 
HETATM    6  C4  UNL     1      24.804   6.371  50.499  1.00  0.00     0.029 A 
HETATM    7  C3  UNL     1      25.629   5.412  49.961  1.00  0.00     0.030 A 
HETATM    8  C17 UNL     1      25.271   4.068  49.990  1.00  0.00     0.059 A 
BRANCH   7   9
HETATM    9  N1  UNL     1      26.845   5.939  49.379  1.00  0.00    -0.384 N 
HETATM   10  H4  UNL     1      27.109   6.924  49.513  1.00  0.00     0.160 HD
BRANCH   9  11
HETATM   11  C2  UNL     1      27.682   5.038  48.636  1.00  0.00     0.189 C 
BRANCH  11  12
HETATM   12  C1  UNL     1      28.966   5.554  48.190  1.00  0.00     0.250 C 
HETATM   13  O1  UNL     1      30.077   5.035  48.163  1.00  0.00    -0.305 OA
ENDBRANCH  11  12
ENDBRANCH   9  11
ENDBRANCH   7   9
ENDBRANCH   1   3
BRANCH   1  14
HETATM   14  C8  UNL     1      23.986   1.509  51.627  1.00  0.00     0.708 A 
HETATM   15  N3  UNL     1      23.187   0.758  52.334  1.00  0.00    -0.078 NA
HETATM   16  C9  UNL     1      23.695  -0.146  53.254  1.00  0.00     0.141 A 
HETATM   17  C10 UNL     1      25.086  -0.064  53.235  1.00  0.00     0.200 A 
HETATM   18  C11 UNL     1      26.145   0.719  52.522  1.00  0.00     0.071 A 
HETATM   19  N5  UNL     1      24.996   1.065  52.120  1.00  0.00    -0.166 N 
HETATM   20  C12 UNL     1      27.445   0.353  52.977  1.00  0.00     0.007 A 
HETATM   21  C13 UNL     1      27.623  -1.049  52.738  1.00  0.00     0.016 A 
HETATM   22  C16 UNL     1      28.379   1.135  53.608  1.00  0.00     0.129 A 
HETATM   23  C14 UNL     1      28.811  -1.637  53.186  1.00  0.00     0.020 A 
HETATM   24  C15 UNL     1      29.706  -0.818  53.824  1.00  0.00     0.116 A 
HETATM   25  N4  UNL     1      29.508   0.479  54.015  1.00  0.00    -0.272 NA
ENDBRANCH   1  14
TORSDOF 5
ENDMDL
MODEL 3
REMARK VINA RESULT:      -7.9      3.774      5.881
REMARK  5 active torsions:
REMARK  status: ('A' for Active; 'I' for Inactive)
REMARK    1  A    between atoms: C1_2  and  C2_3 
REMARK    2  A    between atoms: C2_3  and  N1_4 
REMARK    3  A    between atoms: N1_4  and  C3_5 
REMARK    4  A    between atoms: C7_9  and  N2_10 
REMARK    5  A    between atoms: N2_10  and  C8_11 
ROOT
HETATM    1  N2  UNL     1      23.193   2.127  51.072  1.00  0.00    -0.190 N 
HETATM    2  H8  UNL     1      22.262   2.000  50.602  1.00  0.00     0.184 HD
ENDROOT
BRANCH   1   3
HETATM    3  C7  UNL     1      23.896   3.291  50.720  1.00  0.00     0.051 A 
HETATM    4  C6  UNL     1      24.821   3.105  49.701  1.00  0.00     0.030 A 
HETATM    5  C5  UNL     1      25.560   4.255  49.384  1.00  0.00     0.004 A 
HETATM    6  C4  UNL     1      25.381   5.454  50.006  1.00  0.00     0.029 A 
HETATM    7  C3  UNL     1      24.443   5.563  51.004  1.00  0.00     0.030 A 
HETATM    8  C17 UNL     1      23.674   4.466  51.381  1.00  0.00     0.059 A 
BRANCH   7   9
HETATM    9  N1  UNL     1      24.360   6.882  51.596  1.00  0.00    -0.384 N 
HETATM   10  H4  UNL     1      24.667   7.044  52.564  1.00  0.00     0.160 HD
BRANCH   9  11
HETATM   11  C2  UNL     1      23.864   7.956  50.780  1.00  0.00     0.189 C 
BRANCH  11  12
HETATM   12  C1  UNL     1      22.465   7.890  50.392  1.00  0.00     0.250 C 
HETATM   13  O1  UNL     1      21.488   7.431  50.974  1.00  0.00    -0.305 OA
ENDBRANCH  11  12
ENDBRANCH   9  11
ENDBRANCH   7   9
ENDBRANCH   1   3
BRANCH   1  14
HETATM   14  C8  UNL     1      23.683   1.192  52.025  1.00  0.00     0.708 A 
HETATM   15  N3  UNL     1      22.984   0.337  52.722  1.00  0.00    -0.078 NA
HETATM   16  C9  UNL     1      23.611  -0.570  53.562  1.00  0.00     0.141 A 
HETATM   17  C10 UNL     1      24.988  -0.369  53.484  1.00  0.00     0.200 A 
HETATM   18  C11 UNL     1      25.942   0.539  52.771  1.00  0.00     0.071 A 
HETATM   19  N5  UNL     1      24.750   0.809  52.444  1.00  0.00    -0.166 N 
HETATM   20  C12 UNL     1      27.289   0.260  53.143  1.00  0.00     0.007 A 
HETATM   21  C13 UNL     1      27.569  -1.107  52.814  1.00  0.00     0.016 A 
HETATM   22  C16 UNL     1      28.186   1.082  53.776  1.00  0.00     0.129 A 
HETATM   23  C14 UNL     1      28.822  -1.616  53.171  1.00  0.00     0.020 A 
HETATM   24  C15 UNL     1      29.678  -0.760  53.814  1.00  0.00     0.116 A 
HETATM   25  N4  UNL     1      29.385   0.503  54.091  1.00  0.00    -0.272 NA
ENDBRANCH   1  14
TORSDOF 5
ENDMDL
MODEL 4
REMARK VINA RESULT:      -7.8      4.059      6.067
REMARK  5 active torsions:
REMARK  status: ('A' for Active; 'I' for Inactive)
REMARK    1  A    between atoms: C1_2  and  C2_3 
REMARK    2  A    between atoms: C2_3  and  N1_4 
REMARK    3  A    between atoms: N1_4  and  C3_5 
REMARK    4  A    between atoms: C7_9  and  N2_10 
REMARK    5  A    between atoms: N2_10  and  C8_11 
ROOT
HETATM    1  N2  UNL     1      22.507   1.641  52.198  1.00  0.00    -0.190 N 
HETATM    2  H8  UNL     1      21.474   1.787  52.328  1.00  0.00     0.184 HD
ENDROOT
BRANCH   1   3
HETATM    3  C7  UNL     1      23.098   2.389  51.167  1.00  0.00     0.051 A 
HETATM    4  C6  UNL     1      22.515   2.191  49.922  1.00  0.00     0.030 A 
HETATM    5  C5  UNL     1      23.139   2.898  48.882  1.00  0.00     0.004 A 
HETATM    6  C4  UNL     1      24.210   3.718  49.071  1.00  0.00     0.029 A 
HETATM    7  C3  UNL     1      24.730   3.867  50.334  1.00  0.00     0.030 A 
HETATM    8  C17 UNL     1      24.173   3.195  51.417  1.00  0.00     0.059 A 
BRANCH   7   9
HETATM    9  N1  UNL     1      25.875   4.751  50.401  1.00  0.00    -0.384 N 
HETATM   10  H4  UNL     1      26.531   4.704  51.192  1.00  0.00     0.160 HD
BRANCH   9  11
HETATM   11  C2  UNL     1      26.080   5.672  49.317  1.00  0.00     0.189 C 
BRANCH  11  12
HETATM   12  C1  UNL     1      27.318   5.535  48.568  1.00  0.00     0.250 C 
HETATM   13  O1  UNL     1      28.249   4.746  48.688  1.00  0.00    -0.305 OA
ENDBRANCH  11  12
ENDBRANCH   9  11
ENDBRANCH   7   9
ENDBRANCH   1   3
BRANCH   1  14
HETATM   14  C8  UNL     1      23.251   0.770  53.040  1.00  0.00     0.708 A 
HETATM   15  N3  UNL     1      22.777  -0.113  53.877  1.00  0.00    -0.078 NA
HETATM   16  C9  UNL     1      23.630  -0.950  54.579  1.00  0.00     0.141 A 
HETATM   17  C10 UNL     1      24.942  -0.653  54.216  1.00  0.00     0.200 A 
HETATM   18  C11 UNL     1      25.658   0.302  53.311  1.00  0.00     0.071 A 
HETATM   19  N5  UNL     1      24.407   0.476  53.234  1.00  0.00    -0.166 N 
HETATM   20  C12 UNL     1      27.070   0.131  53.400  1.00  0.00     0.007 A 
HETATM   21  C13 UNL     1      27.380  -1.221  53.036  1.00  0.00     0.016 A 
HETATM   22  C16 UNL     1      28.013   1.032  53.825  1.00  0.00     0.129 A 
HETATM   23  C14 UNL     1      28.714  -1.628  53.132  1.00  0.00     0.020 A 
HETATM   24  C15 UNL     1      29.616  -0.697  53.575  1.00  0.00     0.116 A 
HETATM   25  N4  UNL     1      29.291   0.549  53.892  1.00  0.00    -0.272 NA
ENDBRANCH   1  14
TORSDOF 5
ENDMDL
MODEL 5
REMARK VINA RESULT:      -7.8      4.274      7.486
REMARK  5 active torsions:
REMARK  status: ('A' for Active; 'I' for Inactive)
REMARK    1  A    between atoms: C1_2  and  C2_3 
REMARK    2  A    between atoms: C2_3  and  N1_4 
REMARK    3  A    between atoms: N1_4  and  C3_5 
REMARK    4  A    between atoms: C7_9  and  N2_10 
REMARK    5  A    between atoms: N2_10  and  C8_11 
ROOT
HETATM    1  N2  UNL     1      24.430   3.440  52.694  1.00  0.00    -0.190 N 
HETATM    2  H8  UNL     1      24.089   4.094  53.442  1.00  0.00     0.184 HD
ENDROOT
BRANCH   1   3
HETATM    3  C7  UNL     1      24.923   2.205  53.148  1.00  0.00     0.051 A 
HETATM    4  C6  UNL     1      24.052   1.142  52.946  1.00  0.00     0.030 A 
HETATM    5  C5  UNL     1      24.521  -0.082  53.445  1.00  0.00     0.004 A 
HETATM    6  C4  UNL     1      25.728  -0.227  54.061  1.00  0.00     0.029 A 
HETATM    7  C3  UNL     1      26.539   0.872  54.221  1.00  0.00     0.030 A 
HETATM    8  C17 UNL     1      26.142   2.123  53.759  1.00  0.00     0.059 A 
BRANCH   7   9
HETATM    9  N1  UNL     1      27.785   0.591  54.903  1.00  0.00    -0.384 N 
HETATM   10  H4  UNL     1      27.808   0.453  55.922  1.00  0.00     0.160 HD
BRANCH   9  11
HETATM   11  C2  UNL     1      28.978   0.484  54.109  1.00  0.00     0.189 C 
BRANCH  11  12
HETATM   12  C1  UNL     1      29.460  -0.860  53.832  1.00  0.00     0.250 C 
HETATM   13  O1  UNL     1      28.859  -1.884  53.527  1.00  0.00    -0.305 OA
ENDBRANCH  11  12
ENDBRANCH   9  11
ENDBRANCH   7   9
ENDBRANCH   1   3
BRANCH   1  14
HETATM   14  C8  UNL     1      24.360   3.779  51.315  1.00  0.00     0.708 A 
HETATM   15  N3  UNL     1      23.357   3.583  50.504  1.00  0.00    -0.078 NA
HETATM   16  C9  UNL     1      23.404   4.038  49.196  1.00  0.00     0.141 A 
HETATM   17  C10 UNL     1      24.628   4.675  48.992  1.00  0.00     0.200 A 
HETATM   18  C11 UNL     1      25.868   4.980  49.775  1.00  0.00     0.071 A 
HETATM   19  N5  UNL     1      25.034   4.358  50.496  1.00  0.00    -0.166 N 
HETATM   20  C12 UNL     1      26.825   5.664  48.970  1.00  0.00     0.007 A 
HETATM   21  C13 UNL     1      26.227   6.879  48.501  1.00  0.00     0.016 A 
HETATM   22  C16 UNL     1      28.082   5.253  48.607  1.00  0.00     0.129 A 
HETATM   23  C14 UNL     1      26.972   7.671  47.621  1.00  0.00     0.020 A 
HETATM   24  C15 UNL     1      28.217   7.212  47.277  1.00  0.00     0.116 A 
HETATM   25  N4  UNL     1      28.740   6.085  47.743  1.00  0.00    -0.272 NA
ENDBRANCH   1  14
TORSDOF 5
ENDMDL
MODEL 6
REMARK VINA RESULT:      -7.7      2.106      2.436
REMARK  5 active torsions:
REMARK  status: ('A' for Active; 'I' for Inactive)
REMARK    1  A    between atoms: C1_2  and  C2_3 
REMARK    2  A    between atoms: C2_3  and  N1_4 
REMARK    3  A    between atoms: N1_4  and  C3_5 
REMARK    4  A    between atoms: C7_9  and  N2_10 
REMARK    5  A    between atoms: N2_10  and  C8_11 
ROOT
HETATM    1  N2  UNL     1      22.904   2.974  51.638  1.00  0.00    -0.190 N 
HETATM    2  H8  UNL     1      22.503   3.943  51.712  1.00  0.00     0.184 HD
ENDROOT
BRANCH   1   3
HETATM    3  C7  UNL     1      22.007   1.925  51.898  1.00  0.00     0.051 A 
HETATM    4  C6  UNL     1      21.150   1.642  50.842  1.00  0.00     0.030 A 
HETATM    5  C5  UNL     1      20.219   0.630  51.118  1.00  0.00     0.004 A 
HETATM    6  C4  UNL     1      20.163  -0.032  52.308  1.00  0.00     0.029 A 
HETATM    7  C3  UNL     1      21.048   0.301  53.306  1.00  0.00     0.030 A 
HETATM    8  C17 UNL     1      21.997   1.300  53.112  1.00  0.00     0.059 A 
BRANCH   7   9
HETATM    9  N1  UNL     1      20.877  -0.462  54.525  1.00  0.00    -0.384 N 
HETATM   10  H4  UNL     1      20.159  -0.199  55.214  1.00  0.00     0.160 HD
BRANCH   9  11
HETATM   11  C2  UNL     1      21.719  -1.609  54.726  1.00  0.00     0.189 C 
BRANCH  11  12
HETATM   12  C1  UNL     1      22.999  -1.375  55.374  1.00  0.00     0.250 C 
HETATM   13  O1  UNL     1      24.088  -1.051  54.913  1.00  0.00    -0.305 OA
ENDBRANCH  11  12
ENDBRANCH   9  11
ENDBRANCH   7   9
ENDBRANCH   1   3
BRANCH   1  14
HETATM   14  C8  UNL     1      24.258   2.752  51.266  1.00  0.00     0.708 A 
HETATM   15  N3  UNL     1      24.941   3.391  50.354  1.00  0.00    -0.078 NA
HETATM   16  C9  UNL     1      26.283   3.114  50.152  1.00  0.00     0.141 A 
HETATM   17  C10 UNL     1      26.671   2.118  51.047  1.00  0.00     0.200 A 
HETATM   18  C11 UNL     1      26.046   1.285  52.124  1.00  0.00     0.071 A 
HETATM   19  N5  UNL     1      25.191   2.072  51.625  1.00  0.00    -0.166 N 
HETATM   20  C12 UNL     1      26.994   0.380  52.685  1.00  0.00     0.007 A 
HETATM   21  C13 UNL     1      28.080   1.146  53.221  1.00  0.00     0.016 A 
HETATM   22  C16 UNL     1      26.969  -0.992  52.678  1.00  0.00     0.129 A 
HETATM   23  C14 UNL     1      29.168   0.444  53.753  1.00  0.00     0.020 A 
HETATM   24  C15 UNL     1      29.103  -0.924  53.710  1.00  0.00     0.116 A 
HETATM   25  N4  UNL     1      28.073  -1.596  53.215  1.00  0.00    -0.272 NA
ENDBRANCH   1  14
TORSDOF 5
ENDMDL
MODEL 7
REMARK VINA RESULT:      -7.3      3.599      6.300
REMARK  5 active torsions:
REMARK  status: ('A' for Active; 'I' for Inactive)
REMARK    1  A    between atoms: C1_2  and  C2_3 
REMARK    2  A    between atoms: C2_3  and  N1_4 
REMARK    3  A    between atoms: N1_4  and  C3_5 
REMARK    4  A    between atoms: C7_9  and  N2_10 
REMARK    5  A    between atoms: N2_10  and  C8_11 
ROOT
HETATM    1  N2  UNL     1      21.669   2.352  52.190  1.00  0.00    -0.190 N 
HETATM    2  H8  UNL     1      20.917   2.881  52.699  1.00  0.00     0.184 HD
ENDROOT
BRANCH   1   3
HETATM    3  C7  UNL     1      22.193   1.239  52.869  1.00  0.00     0.051 A 
HETATM    4  C6  UNL     1      21.255   0.545  53.621  1.00  0.00     0.030 A 
HETATM    5  C5  UNL     1      21.788  -0.535  54.341  1.00  0.00     0.004 A 
HETATM    6  C4  UNL     1      23.103  -0.888  54.298  1.00  0.00     0.029 A 
HETATM    7  C3  UNL     1      23.972  -0.155  53.526  1.00  0.00     0.030 A 
HETATM    8  C17 UNL     1      23.523   0.936  52.788  1.00  0.00     0.059 A 
BRANCH   7   9
HETATM    9  N1  UNL     1      25.343  -0.619  53.577  1.00  0.00    -0.384 N 
HETATM   10  H4  UNL     1      25.699  -1.286  52.878  1.00  0.00     0.160 HD
BRANCH   9  11
HETATM   11  C2  UNL     1      26.193  -0.098  54.611  1.00  0.00     0.189 C 
BRANCH  11  12
HETATM   12  C1  UNL     1      27.423   0.548  54.184  1.00  0.00     0.250 C 
HETATM   13  O1  UNL     1      27.862   0.782  53.063  1.00  0.00    -0.305 OA
ENDBRANCH  11  12
ENDBRANCH   9  11
ENDBRANCH   7   9
ENDBRANCH   1   3
BRANCH   1  14
HETATM   14  C8  UNL     1      22.094   2.726  50.886  1.00  0.00     0.708 A 
HETATM   15  N3  UNL     1      21.383   2.713  49.790  1.00  0.00    -0.078 NA
HETATM   16  C9  UNL     1      21.912   3.181  48.598  1.00  0.00     0.141 A 
HETATM   17  C10 UNL     1      23.217   3.613  48.831  1.00  0.00     0.200 A 
HETATM   18  C11 UNL     1      24.175   3.694  49.980  1.00  0.00     0.071 A 
HETATM   19  N5  UNL     1      23.072   3.203  50.360  1.00  0.00    -0.166 N 
HETATM   20  C12 UNL     1      25.429   4.228  49.564  1.00  0.00     0.007 A 
HETATM   21  C13 UNL     1      25.199   5.534  49.020  1.00  0.00     0.016 A 
HETATM   22  C16 UNL     1      26.660   3.625  49.582  1.00  0.00     0.129 A 
HETATM   23  C14 UNL     1      26.296   6.211  48.476  1.00  0.00     0.020 A 
HETATM   24  C15 UNL     1      27.501   5.561  48.504  1.00  0.00     0.116 A 
HETATM   25  N4  UNL     1      27.675   4.355  49.027  1.00  0.00    -0.272 NA
ENDBRANCH   1  14
TORSDOF 5
ENDMDL
MODEL 8
REMARK VINA RESULT:      -7.3      5.651      8.941
REMARK  5 active torsions:
REMARK  status: ('A' for Active; 'I' for Inactive)
REMARK    1  A    between atoms: C1_2  and  C2_3 
REMARK    2  A    between atoms: C2_3  and  N1_4 
REMARK    3  A    between atoms: N1_4  and  C3_5 
REMARK    4  A    between atoms: C7_9  and  N2_10 
REMARK    5  A    between atoms: N2_10  and  C8_11 
ROOT
HETATM    1  N2  UNL     1      26.509   4.422  48.826  1.00  0.00    -0.190 N 
HETATM    2  H8  UNL     1      26.624   4.034  47.856  1.00  0.00     0.184 HD
ENDROOT
BRANCH   1   3
HETATM    3  C7  UNL     1      26.870   5.770  48.986  1.00  0.00     0.051 A 
HETATM    4  C6  UNL     1      25.960   6.513  49.726  1.00  0.00     0.030 A 
HETATM    5  C5  UNL     1      26.293   7.871  49.842  1.00  0.00     0.004 A 
HETATM    6  C4  UNL     1      27.415   8.417  49.294  1.00  0.00     0.029 A 
HETATM    7  C3  UNL     1      28.272   7.616  48.578  1.00  0.00     0.030 A 
HETATM    8  C17 UNL     1      28.008   6.260  48.411  1.00  0.00     0.059 A 
BRANCH   7   9
HETATM    9  N1  UNL     1      29.418   8.315  48.034  1.00  0.00    -0.384 N 
HETATM   10  H4  UNL     1      29.433   8.614  47.049  1.00  0.00     0.160 HD
BRANCH   9  11
HETATM   11  C2  UNL     1      30.513   8.603  48.917  1.00  0.00     0.189 C 
BRANCH  11  12
HETATM   12  C1  UNL     1      31.549   7.589  49.027  1.00  0.00     0.250 C 
HETATM   13  O1  UNL     1      31.687   6.661  49.817  1.00  0.00    -0.305 OA
ENDBRANCH  11  12
ENDBRANCH   9  11
ENDBRANCH   7   9
ENDBRANCH   1   3
BRANCH   1  14
HETATM   14  C8  UNL     1      25.989   3.634  49.890  1.00  0.00     0.708 A 
HETATM   15  N3  UNL     1      24.744   3.296  50.086  1.00  0.00    -0.078 NA
HETATM   16  C9  UNL     1      24.395   2.456  51.131  1.00  0.00     0.141 A 
HETATM   17  C10 UNL     1      25.551   2.108  51.826  1.00  0.00     0.200 A 
HETATM   18  C11 UNL     1      27.020   2.396  51.758  1.00  0.00     0.071 A 
HETATM   19  N5  UNL     1      26.410   2.999  50.828  1.00  0.00    -0.166 N 
HETATM   20  C12 UNL     1      27.719   1.738  52.812  1.00  0.00     0.007 A 
HETATM   21  C13 UNL     1      27.487   0.329  52.691  1.00  0.00     0.016 A 
HETATM   22  C16 UNL     1      28.440   2.298  53.836  1.00  0.00     0.129 A 
HETATM   23  C14 UNL     1      28.021  -0.504  53.680  1.00  0.00     0.020 A 
HETATM   24  C15 UNL     1      28.721   0.104  54.689  1.00  0.00     0.116 A 
HETATM   25  N4  UNL     1      28.923   1.413  54.760  1.00  0.00    -0.272 NA
ENDBRANCH   1  14
TORSDOF 5
ENDMDL
MODEL 9
REMARK VINA RESULT:      -7.0      3.518      5.398
REMARK  5 active torsions:
REMARK  status: ('A' for Active; 'I' for Inactive)
REMARK    1  A    between atoms: C1_2  and  C2_3 
REMARK    2  A    between atoms: C2_3  and  N1_4 
REMARK    3  A    between atoms: N1_4  and  C3_5 
REMARK    4  A    between atoms: C7_9  and  N2_10 
REMARK    5  A    between atoms: N2_10  and  C8_11 
ROOT
HETATM    1  N2  UNL     1      21.306   0.489  51.295  1.00  0.00    -0.190 N 
HETATM    2  H8  UNL     1      20.305   0.188  51.183  1.00  0.00     0.184 HD
ENDROOT
BRANCH   1   3
HETATM    3  C7  UNL     1      21.785   1.374  50.315  1.00  0.00     0.051 A 
HETATM    4  C6  UNL     1      21.513   0.974  49.013  1.00  0.00     0.030 A 
HETATM    5  C5  UNL     1      22.036   1.831  48.032  1.00  0.00     0.004 A 
HETATM    6  C4  UNL     1      22.735   2.963  48.323  1.00  0.00     0.029 A 
HETATM    7  C3  UNL     1      22.961   3.297  49.637  1.00  0.00     0.030 A 
HETATM    8  C17 UNL     1      22.481   2.495  50.668  1.00  0.00     0.059 A 
BRANCH   7   9
HETATM    9  N1  UNL     1      23.728   4.512  49.814  1.00  0.00    -0.384 N 
HETATM   10  H4  UNL     1      24.728   4.473  50.051  1.00  0.00     0.160 HD
BRANCH   9  11
HETATM   11  C2  UNL     1      23.056   5.768  49.620  1.00  0.00     0.189 C 
BRANCH  11  12
HETATM   12  C1  UNL     1      22.196   6.223  50.700  1.00  0.00     0.250 C 
HETATM   13  O1  UNL     1      21.487   7.219  50.800  1.00  0.00    -0.305 OA
ENDBRANCH  11  12
ENDBRANCH   9  11
ENDBRANCH   7   9
ENDBRANCH   1   3
BRANCH   1  14
HETATM   14  C8  UNL     1      22.101   0.050  52.388  1.00  0.00     0.708 A 
HETATM   15  N3  UNL     1      21.765  -0.807  53.314  1.00  0.00    -0.078 NA
HETATM   16  C9  UNL     1      22.679  -1.199  54.280  1.00  0.00     0.141 A 
HETATM   17  C10 UNL     1      23.883  -0.538  54.046  1.00  0.00     0.200 A 
HETATM   18  C11 UNL     1      24.437   0.456  53.072  1.00  0.00     0.071 A 
HETATM   19  N5  UNL     1      23.232   0.190  52.792  1.00  0.00    -0.166 N 
HETATM   20  C12 UNL     1      25.789   0.781  53.384  1.00  0.00     0.007 A 
HETATM   21  C13 UNL     1      26.558  -0.428  53.346  1.00  0.00     0.016 A 
HETATM   22  C16 UNL     1      26.313   1.997  53.742  1.00  0.00     0.129 A 
HETATM   23  C14 UNL     1      27.909  -0.349  53.703  1.00  0.00     0.020 A 
HETATM   24  C15 UNL     1      28.381   0.885  54.066  1.00  0.00     0.116 A 
HETATM   25  N4  UNL     1      27.639   1.983  54.078  1.00  0.00    -0.272 NA
ENDBRANCH   1  14
TORSDOF 5
ENDMDL
