MODEL 1
REMARK VINA RESULT:      -9.5      0.000      0.000
REMARK  0 active torsions:
REMARK  status: ('A' for Active; 'I' for Inactive)
ROOT
HETATM    1  O1  UNL     1      24.463  -0.461  54.303  1.00  0.00    -0.299 OA
HETATM    2  C1  UNL     1      24.326  -1.119  55.355  1.00  0.00     0.138 A 
HETATM    3  C2  UNL     1      22.872  -1.490  55.516  1.00  0.00     0.204 C 
HETATM    4  N1  UNL     1      22.172  -0.958  54.380  1.00  0.00    -0.382 N 
HETATM    5  C3  UNL     1      20.842  -0.864  53.889  1.00  0.00     0.035 A 
HETATM    6  C4  UNL     1      20.138  -2.047  53.895  1.00  0.00     0.029 A 
HETATM    7  C5  UNL     1      18.833  -2.148  53.458  1.00  0.00     0.002 A 
HETATM    8  C6  UNL     1      18.206  -1.010  52.994  1.00  0.00     0.001 A 
HETATM    9  C7  UNL     1      18.933   0.167  52.997  1.00  0.00     0.010 A 
HETATM   10  C8  UNL     1      20.237   0.308  53.426  1.00  0.00    -0.028 A 
HETATM   11  C9  UNL     1      20.929   1.610  53.388  1.00  0.00     0.068 C 
HETATM   12  C10 UNL     1      20.685   2.421  52.199  1.00  0.00    -0.022 C 
HETATM   13  C11 UNL     1      21.412   2.940  51.232  1.00  0.00    -0.004 C 
HETATM   14  C12 UNL     1      22.799   2.998  50.820  1.00  0.00    -0.004 C 
HETATM   15  C13 UNL     1      23.377   3.591  49.776  1.00  0.00    -0.021 C 
HETATM   16  C14 UNL     1      24.787   3.504  49.579  1.00  0.00     0.022 A 
HETATM   17  C15 UNL     1      26.052   3.266  49.645  1.00  0.00     0.015 A 
HETATM   18  C16 UNL     1      26.744   2.479  50.682  1.00  0.00     0.018 A 
HETATM   19  O2  UNL     1      25.505   2.657  50.696  1.00  0.00     0.000 OA
HETATM   20  C17 UNL     1      26.504   1.702  51.920  1.00  0.00    -0.047 A 
HETATM   21  C18 UNL     1      26.268   2.223  53.201  1.00  0.00     0.009 A 
HETATM   22  C19 UNL     1      26.032   1.358  54.238  1.00  0.00     0.039 A 
HETATM   23  C20 UNL     1      26.022  -0.003  54.039  1.00  0.00     0.181 A 
HETATM   24  C21 UNL     1      26.255  -0.541  52.792  1.00  0.00     0.039 A 
HETATM   25  C22 UNL     1      26.491   0.331  51.755  1.00  0.00     0.009 A 
HETATM   26  N2  UNL     1      25.712  -0.777  55.223  1.00  0.00    -0.334 N 
HETATM   27  H3  UNL     1      22.701  -0.471  53.594  1.00  0.00     0.160 HD
HETATM   28  H20 UNL     1      26.295  -1.139  56.018  1.00  0.00     0.165 HD
ENDROOT
TORSDOF 0
ENDMDL
MODEL 2
REMARK VINA RESULT:      -9.4      2.153      5.612
REMARK  0 active torsions:
REMARK  status: ('A' for Active; 'I' for Inactive)
ROOT
HETATM    1  O1  UNL     1      25.582   2.620  51.394  1.00  0.00    -0.299 OA
HETATM    2  C1  UNL     1      26.182   3.313  50.546  1.00  0.00     0.138 A 
HETATM    3  C2  UNL     1      25.168   4.071  49.726  1.00  0.00     0.204 C 
HETATM    4  N1  UNL     1      23.870   3.727  50.235  1.00  0.00    -0.382 N 
HETATM    5  C3  UNL     1      22.502   3.990  49.950  1.00  0.00     0.035 A 
HETATM    6  C4  UNL     1      22.192   5.320  49.779  1.00  0.00     0.029 A 
HETATM    7  C5  UNL     1      20.918   5.765  49.494  1.00  0.00     0.002 A 
HETATM    8  C6  UNL     1      19.908   4.832  49.376  1.00  0.00     0.001 A 
HETATM    9  C7  UNL     1      20.243   3.502  49.552  1.00  0.00     0.010 A 
HETATM   10  C8  UNL     1      21.503   3.018  49.837  1.00  0.00    -0.028 A 
HETATM   11  C9  UNL     1      21.760   1.576  50.009  1.00  0.00     0.068 C 
HETATM   12  C10 UNL     1      20.743   0.838  50.752  1.00  0.00    -0.022 C 
HETATM   13  C11 UNL     1      20.699   0.119  51.854  1.00  0.00    -0.004 C 
HETATM   14  C12 UNL     1      21.593  -0.325  52.903  1.00  0.00    -0.004 C 
HETATM   15  C13 UNL     1      21.371  -1.076  53.982  1.00  0.00    -0.021 C 
HETATM   16  C14 UNL     1      22.431  -1.382  54.885  1.00  0.00     0.022 A 
HETATM   17  C15 UNL     1      23.548  -1.499  55.518  1.00  0.00     0.015 A 
HETATM   18  C16 UNL     1      24.842  -0.909  55.130  1.00  0.00     0.018 A 
HETATM   19  O2  UNL     1      23.802  -0.741  54.452  1.00  0.00     0.000 OA
HETATM   20  C17 UNL     1      25.484  -0.069  54.092  1.00  0.00    -0.047 A 
HETATM   21  C18 UNL     1      25.868  -0.479  52.806  1.00  0.00     0.009 A 
HETATM   22  C19 UNL     1      26.424   0.440  51.954  1.00  0.00     0.039 A 
HETATM   23  C20 UNL     1      26.608   1.747  52.341  1.00  0.00     0.181 A 
HETATM   24  C21 UNL     1      26.243   2.174  53.599  1.00  0.00     0.039 A 
HETATM   25  C22 UNL     1      25.685   1.250  54.450  1.00  0.00     0.009 A 
HETATM   26  N2  UNL     1      27.163   2.602  51.312  1.00  0.00    -0.334 N 
HETATM   27  H3  UNL     1      23.770   3.096  51.088  1.00  0.00     0.160 HD
HETATM   28  H20 UNL     1      28.145   2.808  51.002  1.00  0.00     0.165 HD
ENDROOT
TORSDOF 0
ENDMDL
MODEL 3
REMARK VINA RESULT:      -9.1      2.637      6.950
REMARK  0 active torsions:
REMARK  status: ('A' for Active; 'I' for Inactive)
ROOT
HETATM    1  O1  UNL     1      22.293   3.066  50.957  1.00  0.00    -0.299 OA
HETATM    2  C1  UNL     1      23.204   3.911  50.839  1.00  0.00     0.138 A 
HETATM    3  C2  UNL     1      24.496   3.313  51.339  1.00  0.00     0.204 C 
HETATM    4  N1  UNL     1      24.205   1.971  51.759  1.00  0.00    -0.382 N 
HETATM    5  C3  UNL     1      24.871   0.868  52.360  1.00  0.00     0.035 A 
HETATM    6  C4  UNL     1      26.073   0.532  51.780  1.00  0.00     0.029 A 
HETATM    7  C5  UNL     1      26.861  -0.507  52.229  1.00  0.00     0.002 A 
HETATM    8  C6  UNL     1      26.422  -1.244  53.310  1.00  0.00     0.001 A 
HETATM    9  C7  UNL     1      25.211  -0.889  53.877  1.00  0.00     0.010 A 
HETATM   10  C8  UNL     1      24.396   0.143  53.457  1.00  0.00    -0.028 A 
HETATM   11  C9  UNL     1      23.119   0.443  54.128  1.00  0.00     0.068 C 
HETATM   12  C10 UNL     1      22.323  -0.716  54.521  1.00  0.00    -0.022 C 
HETATM   13  C11 UNL     1      21.122  -1.185  54.254  1.00  0.00    -0.004 C 
HETATM   14  C12 UNL     1      19.965  -0.832  53.457  1.00  0.00    -0.004 C 
HETATM   15  C13 UNL     1      18.791  -1.444  53.301  1.00  0.00    -0.021 C 
HETATM   16  C14 UNL     1      17.792  -0.892  52.446  1.00  0.00     0.022 A 
HETATM   17  C15 UNL     1      17.089  -0.186  51.630  1.00  0.00     0.015 A 
HETATM   18  C16 UNL     1      17.499   1.071  50.977  1.00  0.00     0.018 A 
HETATM   19  O2  UNL     1      18.253   0.448  51.759  1.00  0.00     0.000 OA
HETATM   20  C17 UNL     1      18.628   2.025  50.875  1.00  0.00    -0.047 A 
HETATM   21  C18 UNL     1      18.987   2.998  51.821  1.00  0.00     0.009 A 
HETATM   22  C19 UNL     1      20.086   3.782  51.582  1.00  0.00     0.039 A 
HETATM   23  C20 UNL     1      20.834   3.628  50.439  1.00  0.00     0.181 A 
HETATM   24  C21 UNL     1      20.501   2.682  49.493  1.00  0.00     0.039 A 
HETATM   25  C22 UNL     1      19.399   1.898  49.736  1.00  0.00     0.009 A 
HETATM   26  N2  UNL     1      21.988   4.499  50.358  1.00  0.00    -0.334 N 
HETATM   27  H3  UNL     1      23.232   1.558  51.627  1.00  0.00     0.160 HD
HETATM   28  H20 UNL     1      22.121   5.486  50.024  1.00  0.00     0.165 HD
ENDROOT
TORSDOF 0
ENDMDL
MODEL 4
REMARK VINA RESULT:      -8.9      3.826      7.317
REMARK  0 active torsions:
REMARK  status: ('A' for Active; 'I' for Inactive)
ROOT
HETATM    1  O1  UNL     1      22.034   4.920  50.858  1.00  0.00    -0.299 OA
HETATM    2  C1  UNL     1      21.275   4.066  51.360  1.00  0.00     0.138 A 
HETATM    3  C2  UNL     1      22.110   3.001  52.029  1.00  0.00     0.204 C 
HETATM    4  N1  UNL     1      23.486   3.371  51.853  1.00  0.00    -0.382 N 
HETATM    5  C3  UNL     1      24.779   2.858  52.145  1.00  0.00     0.035 A 
HETATM    6  C4  UNL     1      24.955   2.436  53.443  1.00  0.00     0.029 A 
HETATM    7  C5  UNL     1      26.141   1.907  53.909  1.00  0.00     0.002 A 
HETATM    8  C6  UNL     1      27.200   1.797  53.031  1.00  0.00     0.001 A 
HETATM    9  C7  UNL     1      27.001   2.228  51.732  1.00  0.00     0.010 A 
HETATM   10  C8  UNL     1      25.832   2.761  51.229  1.00  0.00    -0.028 A 
HETATM   11  C9  UNL     1      25.718   3.195  49.825  1.00  0.00     0.068 C 
HETATM   12  C10 UNL     1      26.879   3.895  49.284  1.00  0.00    -0.022 C 
HETATM   13  C11 UNL     1      27.123   5.080  48.765  1.00  0.00    -0.004 C 
HETATM   14  C12 UNL     1      26.412   6.302  48.452  1.00  0.00    -0.004 C 
HETATM   15  C13 UNL     1      26.832   7.444  47.908  1.00  0.00    -0.021 C 
HETATM   16  C14 UNL     1      25.926   8.525  47.697  1.00  0.00     0.022 A 
HETATM   17  C15 UNL     1      24.914   9.319  47.622  1.00  0.00     0.015 A 
HETATM   18  C16 UNL     1      23.537   9.028  48.061  1.00  0.00     0.018 A 
HETATM   19  O2  UNL     1      24.462   8.193  48.173  1.00  0.00     0.000 OA
HETATM   20  C17 UNL     1      22.699   7.971  48.673  1.00  0.00    -0.047 A 
HETATM   21  C18 UNL     1      22.187   6.833  48.030  1.00  0.00     0.009 A 
HETATM   22  C19 UNL     1      21.453   5.933  48.758  1.00  0.00     0.039 A 
HETATM   23  C20 UNL     1      21.214   6.129  50.098  1.00  0.00     0.181 A 
HETATM   24  C21 UNL     1      21.702   7.239  50.752  1.00  0.00     0.039 A 
HETATM   25  C22 UNL     1      22.438   8.139  50.019  1.00  0.00     0.009 A 
HETATM   26  N2  UNL     1      20.463   5.066  50.732  1.00  0.00    -0.334 N 
HETATM   27  H3  UNL     1      23.746   4.291  51.383  1.00  0.00     0.160 HD
HETATM   28  H20 UNL     1      19.435   4.868  50.824  1.00  0.00     0.165 HD
ENDROOT
TORSDOF 0
ENDMDL
MODEL 5
REMARK VINA RESULT:      -8.9      3.057      6.841
REMARK  0 active torsions:
REMARK  status: ('A' for Active; 'I' for Inactive)
ROOT
HETATM    1  O1  UNL     1      22.978   3.630  50.004  1.00  0.00    -0.299 OA
HETATM    2  C1  UNL     1      23.983   4.370  50.028  1.00  0.00     0.138 A 
HETATM    3  C2  UNL     1      25.087   3.672  50.782  1.00  0.00     0.204 C 
HETATM    4  N1  UNL     1      24.579   2.392  51.189  1.00  0.00    -0.382 N 
HETATM    5  C3  UNL     1      24.998   1.263  51.943  1.00  0.00     0.035 A 
HETATM    6  C4  UNL     1      26.241   0.774  51.610  1.00  0.00     0.029 A 
HETATM    7  C5  UNL     1      26.814  -0.314  52.235  1.00  0.00     0.002 A 
HETATM    8  C6  UNL     1      26.107  -0.941  53.241  1.00  0.00     0.001 A 
HETATM    9  C7  UNL     1      24.860  -0.433  53.558  1.00  0.00     0.010 A 
HETATM   10  C8  UNL     1      24.254   0.651  52.957  1.00  0.00    -0.028 A 
HETATM   11  C9  UNL     1      22.916   1.117  53.365  1.00  0.00     0.068 C 
HETATM   12  C10 UNL     1      21.939   0.069  53.643  1.00  0.00    -0.022 C 
HETATM   13  C11 UNL     1      20.763  -0.289  53.173  1.00  0.00    -0.004 C 
HETATM   14  C12 UNL     1      19.817   0.135  52.161  1.00  0.00    -0.004 C 
HETATM   15  C13 UNL     1      18.631  -0.362  51.810  1.00  0.00    -0.021 C 
HETATM   16  C14 UNL     1      17.872   0.240  50.764  1.00  0.00     0.022 A 
HETATM   17  C15 UNL     1      17.411   0.968  49.805  1.00  0.00     0.015 A 
HETATM   18  C16 UNL     1      18.070   2.138  49.197  1.00  0.00     0.018 A 
HETATM   19  O2  UNL     1      18.595   1.486  50.128  1.00  0.00     0.000 OA
HETATM   20  C17 UNL     1      19.297   2.965  49.274  1.00  0.00    -0.047 A 
HETATM   21  C18 UNL     1      19.583   3.948  50.234  1.00  0.00     0.009 A 
HETATM   22  C19 UNL     1      20.786   4.601  50.179  1.00  0.00     0.039 A 
HETATM   23  C20 UNL     1      21.709   4.308  49.202  1.00  0.00     0.181 A 
HETATM   24  C21 UNL     1      21.452   3.350  48.245  1.00  0.00     0.039 A 
HETATM   25  C22 UNL     1      20.244   2.697  48.305  1.00  0.00     0.009 A 
HETATM   26  N2  UNL     1      22.947   5.051  49.307  1.00  0.00    -0.334 N 
HETATM   27  H3  UNL     1      23.607   2.074  50.891  1.00  0.00     0.160 HD
HETATM   28  H20 UNL     1      23.247   6.000  48.969  1.00  0.00     0.165 HD
ENDROOT
TORSDOF 0
ENDMDL
MODEL 6
REMARK VINA RESULT:      -8.9      2.053      5.805
REMARK  0 active torsions:
REMARK  status: ('A' for Active; 'I' for Inactive)
ROOT
HETATM    1  O1  UNL     1      22.217   0.630  52.545  1.00  0.00    -0.299 OA
HETATM    2  C1  UNL     1      22.105  -0.520  53.016  1.00  0.00     0.138 A 
HETATM    3  C2  UNL     1      23.446  -0.967  53.543  1.00  0.00     0.204 C 
HETATM    4  N1  UNL     1      24.368   0.111  53.321  1.00  0.00    -0.382 N 
HETATM    5  C3  UNL     1      25.751   0.391  53.494  1.00  0.00     0.035 A 
HETATM    6  C4  UNL     1      26.251   0.087  54.740  1.00  0.00     0.029 A 
HETATM    7  C5  UNL     1      27.570   0.288  55.091  1.00  0.00     0.002 A 
HETATM    8  C6  UNL     1      28.427   0.819  54.148  1.00  0.00     0.001 A 
HETATM    9  C7  UNL     1      27.902   1.117  52.903  1.00  0.00     0.010 A 
HETATM   10  C8  UNL     1      26.591   0.930  52.515  1.00  0.00    -0.028 A 
HETATM   11  C9  UNL     1      26.126   1.282  51.161  1.00  0.00     0.068 C 
HETATM   12  C10 UNL     1      26.653   2.529  50.616  1.00  0.00    -0.022 C 
HETATM   13  C11 UNL     1      26.155   3.669  50.185  1.00  0.00    -0.004 C 
HETATM   14  C12 UNL     1      24.863   4.302  50.018  1.00  0.00    -0.004 C 
HETATM   15  C13 UNL     1      24.532   5.505  49.549  1.00  0.00    -0.021 C 
HETATM   16  C14 UNL     1      23.166   5.908  49.482  1.00  0.00     0.022 A 
HETATM   17  C15 UNL     1      21.883   6.009  49.533  1.00  0.00     0.015 A 
HETATM   18  C16 UNL     1      20.941   4.986  50.023  1.00  0.00     0.018 A 
HETATM   19  O2  UNL     1      22.179   4.802  50.011  1.00  0.00     0.000 OA
HETATM   20  C17 UNL     1      20.885   3.619  50.591  1.00  0.00    -0.047 A 
HETATM   21  C18 UNL     1      21.025   2.414  49.885  1.00  0.00     0.009 A 
HETATM   22  C19 UNL     1      20.980   1.230  50.574  1.00  0.00     0.039 A 
HETATM   23  C20 UNL     1      20.800   1.209  51.938  1.00  0.00     0.181 A 
HETATM   24  C21 UNL     1      20.656   2.377  52.654  1.00  0.00     0.039 A 
HETATM   25  C22 UNL     1      20.703   3.562  51.959  1.00  0.00     0.009 A 
HETATM   26  N2  UNL     1      20.821  -0.116  52.522  1.00  0.00    -0.334 N 
HETATM   27  H3  UNL     1      24.034   1.038  52.916  1.00  0.00     0.160 HD
HETATM   28  H20 UNL     1      20.086  -0.854  52.655  1.00  0.00     0.165 HD
ENDROOT
TORSDOF 0
ENDMDL
MODEL 7
REMARK VINA RESULT:      -8.6      3.390      5.991
REMARK  0 active torsions:
REMARK  status: ('A' for Active; 'I' for Inactive)
ROOT
HETATM    1  O1  UNL     1      20.716   3.969  50.658  1.00  0.00    -0.299 OA
HETATM    2  C1  UNL     1      20.291   4.821  49.850  1.00  0.00     0.138 A 
HETATM    3  C2  UNL     1      18.785   4.860  49.926  1.00  0.00     0.204 C 
HETATM    4  N1  UNL     1      18.387   3.903  50.921  1.00  0.00    -0.382 N 
HETATM    5  C3  UNL     1      17.193   3.369  51.477  1.00  0.00     0.035 A 
HETATM    6  C4  UNL     1      16.266   4.309  51.867  1.00  0.00     0.029 A 
HETATM    7  C5  UNL     1      15.048   3.978  52.425  1.00  0.00     0.002 A 
HETATM    8  C6  UNL     1      14.747   2.642  52.600  1.00  0.00     0.001 A 
HETATM    9  C7  UNL     1      15.694   1.716  52.202  1.00  0.00     0.010 A 
HETATM   10  C8  UNL     1      16.921   2.007  51.641  1.00  0.00    -0.028 A 
HETATM   11  C9  UNL     1      17.866   0.946  51.249  1.00  0.00     0.068 C 
HETATM   12  C10 UNL     1      17.976  -0.176  52.177  1.00  0.00    -0.022 C 
HETATM   13  C11 UNL     1      18.930  -0.735  52.891  1.00  0.00    -0.004 C 
HETATM   14  C12 UNL     1      20.345  -0.560  53.150  1.00  0.00    -0.004 C 
HETATM   15  C13 UNL     1      21.182  -1.243  53.930  1.00  0.00    -0.021 C 
HETATM   16  C14 UNL     1      22.556  -0.872  54.022  1.00  0.00     0.022 A 
HETATM   17  C15 UNL     1      23.719  -0.328  53.917  1.00  0.00     0.015 A 
HETATM   18  C16 UNL     1      24.071   0.841  53.090  1.00  0.00     0.018 A 
HETATM   19  O2  UNL     1      22.908   0.379  53.132  1.00  0.00     0.000 OA
HETATM   20  C17 UNL     1      23.494   1.827  52.148  1.00  0.00    -0.047 A 
HETATM   21  C18 UNL     1      23.184   1.609  50.796  1.00  0.00     0.009 A 
HETATM   22  C19 UNL     1      22.621   2.627  50.071  1.00  0.00     0.039 A 
HETATM   23  C20 UNL     1      22.359   3.848  50.646  1.00  0.00     0.181 A 
HETATM   24  C21 UNL     1      22.656   4.090  51.970  1.00  0.00     0.039 A 
HETATM   25  C22 UNL     1      23.220   3.066  52.694  1.00  0.00     0.009 A 
HETATM   26  N2  UNL     1      21.722   4.801  49.761  1.00  0.00    -0.334 N 
HETATM   27  H3  UNL     1      19.117   3.373  51.488  1.00  0.00     0.160 HD
HETATM   28  H20 UNL     1      22.092   5.484  49.054  1.00  0.00     0.165 HD
ENDROOT
TORSDOF 0
ENDMDL
MODEL 8
REMARK VINA RESULT:      -8.3      4.784      8.135
REMARK  0 active torsions:
REMARK  status: ('A' for Active; 'I' for Inactive)
ROOT
HETATM    1  O1  UNL     1      22.618   6.583  49.279  1.00  0.00    -0.299 OA
HETATM    2  C1  UNL     1      21.508   6.097  49.580  1.00  0.00     0.138 A 
HETATM    3  C2  UNL     1      21.723   4.913  50.490  1.00  0.00     0.204 C 
HETATM    4  N1  UNL     1      23.139   4.785  50.692  1.00  0.00    -0.382 N 
HETATM    5  C3  UNL     1      24.054   3.919  51.349  1.00  0.00     0.035 A 
HETATM    6  C4  UNL     1      23.742   3.633  52.658  1.00  0.00     0.029 A 
HETATM    7  C5  UNL     1      24.512   2.809  53.453  1.00  0.00     0.002 A 
HETATM    8  C6  UNL     1      25.648   2.246  52.908  1.00  0.00     0.001 A 
HETATM    9  C7  UNL     1      25.942   2.547  51.591  1.00  0.00     0.010 A 
HETATM   10  C8  UNL     1      25.199   3.365  50.765  1.00  0.00    -0.028 A 
HETATM   11  C9  UNL     1      25.597   3.628  49.370  1.00  0.00     0.068 C 
HETATM   12  C10 UNL     1      27.025   3.833  49.149  1.00  0.00    -0.022 C 
HETATM   13  C11 UNL     1      27.790   4.795  48.678  1.00  0.00    -0.004 C 
HETATM   14  C12 UNL     1      27.654   6.132  48.138  1.00  0.00    -0.004 C 
HETATM   15  C13 UNL     1      28.568   6.993  47.693  1.00  0.00    -0.021 C 
HETATM   16  C14 UNL     1      28.182   8.275  47.201  1.00  0.00     0.022 A 
HETATM   17  C15 UNL     1      27.565   9.340  46.821  1.00  0.00     0.015 A 
HETATM   18  C16 UNL     1      26.110   9.576  46.869  1.00  0.00     0.018 A 
HETATM   19  O2  UNL     1      26.626   8.505  47.263  1.00  0.00     0.000 OA
HETATM   20  C17 UNL     1      24.831   8.940  47.261  1.00  0.00    -0.047 A 
HETATM   21  C18 UNL     1      24.130   7.960  46.541  1.00  0.00     0.009 A 
HETATM   22  C19 UNL     1      22.971   7.452  47.066  1.00  0.00     0.039 A 
HETATM   23  C20 UNL     1      22.490   7.886  48.280  1.00  0.00     0.181 A 
HETATM   24  C21 UNL     1      23.157   8.849  49.005  1.00  0.00     0.039 A 
HETATM   25  C22 UNL     1      24.320   9.356  48.475  1.00  0.00     0.009 A 
HETATM   26  N2  UNL     1      21.282   7.219  48.717  1.00  0.00    -0.334 N 
HETATM   27  H3  UNL     1      23.813   5.500  50.280  1.00  0.00     0.160 HD
HETATM   28  H20 UNL     1      20.262   7.382  48.527  1.00  0.00     0.165 HD
ENDROOT
TORSDOF 0
ENDMDL
MODEL 9
REMARK VINA RESULT:      -8.1      9.606     13.860
REMARK  0 active torsions:
REMARK  status: ('A' for Active; 'I' for Inactive)
ROOT
HETATM    1  O1  UNL     1      32.048  10.113  46.780  1.00  0.00    -0.299 OA
HETATM    2  C1  UNL     1      33.073  10.784  46.541  1.00  0.00     0.138 A 
HETATM    3  C2  UNL     1      34.062   9.919  45.798  1.00  0.00     0.204 C 
HETATM    4  N1  UNL     1      33.450   8.632  45.622  1.00  0.00    -0.382 N 
HETATM    5  C3  UNL     1      33.776   7.354  45.091  1.00  0.00     0.035 A 
HETATM    6  C4  UNL     1      34.326   7.375  43.830  1.00  0.00     0.029 A 
HETATM    7  C5  UNL     1      34.707   6.234  43.156  1.00  0.00     0.002 A 
HETATM    8  C6  UNL     1      34.527   5.014  43.776  1.00  0.00     0.001 A 
HETATM    9  C7  UNL     1      33.972   5.017  45.043  1.00  0.00     0.010 A 
HETATM   10  C8  UNL     1      33.579   6.136  45.749  1.00  0.00    -0.028 A 
HETATM   11  C9  UNL     1      32.994   6.036  47.099  1.00  0.00     0.068 C 
HETATM   12  C10 UNL     1      32.048   4.942  47.298  1.00  0.00    -0.022 C 
HETATM   13  C11 UNL     1      30.783   4.824  47.640  1.00  0.00    -0.004 C 
HETATM   14  C12 UNL     1      29.665   5.674  47.997  1.00  0.00    -0.004 C 
HETATM   15  C13 UNL     1      28.409   5.374  48.328  1.00  0.00    -0.021 C 
HETATM   16  C14 UNL     1      27.475   6.404  48.643  1.00  0.00     0.022 A 
HETATM   17  C15 UNL     1      26.856   7.510  48.874  1.00  0.00     0.015 A 
HETATM   18  C16 UNL     1      27.424   8.868  48.788  1.00  0.00     0.018 A 
HETATM   19  O2  UNL     1      28.102   7.845  48.542  1.00  0.00     0.000 OA
HETATM   20  C17 UNL     1      28.675   9.599  48.478  1.00  0.00    -0.047 A 
HETATM   21  C18 UNL     1      29.790   9.742  49.318  1.00  0.00     0.009 A 
HETATM   22  C19 UNL     1      30.885  10.427  48.859  1.00  0.00     0.039 A 
HETATM   23  C20 UNL     1      30.904  10.971  47.597  1.00  0.00     0.181 A 
HETATM   24  C21 UNL     1      29.822  10.849  46.753  1.00  0.00     0.039 A 
HETATM   25  C22 UNL     1      28.726  10.160  47.217  1.00  0.00     0.009 A 
HETATM   26  N2  UNL     1      32.149  11.622  47.246  1.00  0.00    -0.334 N 
HETATM   27  H3  UNL     1      32.448   8.459  45.938  1.00  0.00     0.160 HD
HETATM   28  H20 UNL     1      32.524  12.590  47.408  1.00  0.00     0.165 HD
ENDROOT
TORSDOF 0
ENDMDL
