MODEL 1
REMARK VINA RESULT:      -8.1      0.000      0.000
REMARK  8 active torsions:
REMARK  status: ('A' for Active; 'I' for Inactive)
REMARK    1  A    between atoms: C3_3  and  C4_4 
REMARK    2  A    between atoms: C5_5  and  C6_6 
REMARK    3  A    between atoms: C6_6  and  N1_7 
REMARK    4  A    between atoms: N1_7  and  C7_8 
REMARK    5  A    between atoms: C12_15  and  N4_16 
REMARK    6  A    between atoms: N4_16  and  C13_17 
REMARK    7  A    between atoms: C13_17  and  C14_18 
REMARK    8  A    between atoms: C19_23  and  O1_24 
ROOT
HETATM    1  C7  UNL     1      26.149   1.610  53.351  1.00  0.00     0.137 A 
HETATM    2  N2  UNL     1      27.202   1.247  54.099  1.00  0.00    -0.224 NA
HETATM    3  C8  UNL     1      27.230   0.198  54.936  1.00  0.00     0.235 A 
HETATM    4  N3  UNL     1      26.116  -0.550  55.037  1.00  0.00    -0.241 NA
HETATM    5  C9  UNL     1      25.010  -0.262  54.325  1.00  0.00     0.072 A 
HETATM    6  C10 UNL     1      23.903  -1.070  54.474  1.00  0.00     0.035 A 
HETATM    7  C11 UNL     1      22.826  -0.690  53.703  1.00  0.00     0.031 A 
HETATM    8  C12 UNL     1      22.771   0.376  52.837  1.00  0.00     0.029 A 
HETATM    9  C21 UNL     1      23.912   1.140  52.739  1.00  0.00     0.046 A 
HETATM   10  C22 UNL     1      25.023   0.823  53.477  1.00  0.00     0.041 A 
ENDROOT
BRANCH   8  11
HETATM   11  N4  UNL     1      21.657   0.717  52.043  1.00  0.00    -0.386 N 
HETATM   12  H14 UNL     1      20.851   1.203  52.533  1.00  0.00     0.160 HD
BRANCH  11  13
HETATM   13  C13 UNL     1      21.194   0.638  50.683  1.00  0.00     0.161 C 
BRANCH  13  14
HETATM   14  C14 UNL     1      21.631   1.827  49.911  1.00  0.00    -0.007 A 
HETATM   15  C15 UNL     1      21.948   1.450  48.590  1.00  0.00     0.011 A 
HETATM   16  C16 UNL     1      22.368   2.336  47.622  1.00  0.00     0.001 A 
HETATM   17  C17 UNL     1      22.498   3.676  47.920  1.00  0.00     0.003 A 
HETATM   18  C18 UNL     1      22.191   4.058  49.202  1.00  0.00     0.037 A 
HETATM   19  C19 UNL     1      21.777   3.160  50.148  1.00  0.00     0.076 A 
BRANCH  19  20
HETATM   20  O1  UNL     1      21.463   3.477  51.434  1.00  0.00    -0.355 OA
HETATM   21  C20 UNL     1      22.123   4.481  52.174  1.00  0.00     0.210 C 
ENDBRANCH  19  20
ENDBRANCH  13  14
ENDBRANCH  11  13
ENDBRANCH   8  11
BRANCH   1  22
HETATM   22  N1  UNL     1      26.271   2.737  52.520  1.00  0.00    -0.371 N 
HETATM   23  H10 UNL     1      26.129   3.725  52.804  1.00  0.00     0.161 HD
BRANCH  22  24
HETATM   24  C6  UNL     1      26.625   2.605  51.104  1.00  0.00     0.148 C 
BRANCH  24  25
HETATM   25  C5  UNL     1      25.676   3.313  50.223  1.00  0.00    -0.007 C 
HETATM   26  C4  UNL     1      25.987   4.153  49.270  1.00  0.00    -0.003 C 
BRANCH  26  27
HETATM   27  C3  UNL     1      27.328   4.560  48.884  1.00  0.00    -0.005 C 
HETATM   28  C2  UNL     1      27.679   5.760  48.410  1.00  0.00    -0.031 C 
HETATM   29  C1  UNL     1      29.053   6.135  48.030  1.00  0.00     0.036 C 
ENDBRANCH  26  27
ENDBRANCH  24  25
ENDBRANCH  22  24
ENDBRANCH   1  22
TORSDOF 8
ENDMDL
MODEL 2
REMARK VINA RESULT:      -7.9      2.516      6.156
REMARK  8 active torsions:
REMARK  status: ('A' for Active; 'I' for Inactive)
REMARK    1  A    between atoms: C3_3  and  C4_4 
REMARK    2  A    between atoms: C5_5  and  C6_6 
REMARK    3  A    between atoms: C6_6  and  N1_7 
REMARK    4  A    between atoms: N1_7  and  C7_8 
REMARK    5  A    between atoms: C12_15  and  N4_16 
REMARK    6  A    between atoms: N4_16  and  C13_17 
REMARK    7  A    between atoms: C13_17  and  C14_18 
REMARK    8  A    between atoms: C19_23  and  O1_24 
ROOT
HETATM    1  C7  UNL     1      20.877   0.854  51.398  1.00  0.00     0.137 A 
HETATM    2  N2  UNL     1      19.548   0.737  51.255  1.00  0.00    -0.224 NA
HETATM    3  C8  UNL     1      18.744   0.029  52.063  1.00  0.00     0.235 A 
HETATM    4  N3  UNL     1      19.311  -0.617  53.099  1.00  0.00    -0.241 NA
HETATM    5  C9  UNL     1      20.637  -0.558  53.321  1.00  0.00     0.072 A 
HETATM    6  C10 UNL     1      21.155  -1.243  54.400  1.00  0.00     0.035 A 
HETATM    7  C11 UNL     1      22.520  -1.119  54.539  1.00  0.00     0.031 A 
HETATM    8  C12 UNL     1      23.366  -0.399  53.729  1.00  0.00     0.029 A 
HETATM    9  C21 UNL     1      22.782   0.259  52.671  1.00  0.00     0.046 A 
HETATM   10  C22 UNL     1      21.428   0.180  52.468  1.00  0.00     0.041 A 
ENDROOT
BRANCH   8  11
HETATM   11  N4  UNL     1      24.757  -0.272  53.920  1.00  0.00    -0.386 N 
HETATM   12  H14 UNL     1      25.227  -1.015  54.515  1.00  0.00     0.160 HD
BRANCH  11  13
HETATM   13  C13 UNL     1      25.858   0.578  53.554  1.00  0.00     0.161 C 
BRANCH  13  14
HETATM   14  C14 UNL     1      27.129  -0.186  53.545  1.00  0.00    -0.007 A 
HETATM   15  C15 UNL     1      26.924  -1.450  52.954  1.00  0.00     0.011 A 
HETATM   16  C16 UNL     1      27.922  -2.385  52.784  1.00  0.00     0.001 A 
HETATM   17  C17 UNL     1      29.208  -2.109  53.199  1.00  0.00     0.003 A 
HETATM   18  C18 UNL     1      29.422  -0.882  53.776  1.00  0.00     0.037 A 
HETATM   19  C19 UNL     1      28.416   0.031  53.936  1.00  0.00     0.076 A 
BRANCH  19  20
HETATM   20  O1  UNL     1      28.566   1.260  54.502  1.00  0.00    -0.355 OA
HETATM   21  C20 UNL     1      28.838   2.431  53.764  1.00  0.00     0.210 C 
ENDBRANCH  19  20
ENDBRANCH  13  14
ENDBRANCH  11  13
ENDBRANCH   8  11
BRANCH   1  22
HETATM   22  N1  UNL     1      21.588   1.632  50.468  1.00  0.00    -0.371 N 
HETATM   23  H10 UNL     1      22.234   1.275  49.738  1.00  0.00     0.161 HD
BRANCH  22  24
HETATM   24  C6  UNL     1      21.471   3.093  50.449  1.00  0.00     0.148 C 
BRANCH  24  25
HETATM   25  C5  UNL     1      22.037   3.712  51.663  1.00  0.00    -0.007 C 
HETATM   26  C4  UNL     1      23.274   4.110  51.823  1.00  0.00    -0.003 C 
BRANCH  26  27
HETATM   27  C3  UNL     1      24.340   4.021  50.838  1.00  0.00    -0.005 C 
HETATM   28  C2  UNL     1      25.365   3.163  50.866  1.00  0.00    -0.031 C 
HETATM   29  C1  UNL     1      26.428   3.104  49.847  1.00  0.00     0.036 C 
ENDBRANCH  26  27
ENDBRANCH  24  25
ENDBRANCH  22  24
ENDBRANCH   1  22
TORSDOF 8
ENDMDL
MODEL 3
REMARK VINA RESULT:      -7.8      2.064      4.013
REMARK  8 active torsions:
REMARK  status: ('A' for Active; 'I' for Inactive)
REMARK    1  A    between atoms: C3_3  and  C4_4 
REMARK    2  A    between atoms: C5_5  and  C6_6 
REMARK    3  A    between atoms: C6_6  and  N1_7 
REMARK    4  A    between atoms: N1_7  and  C7_8 
REMARK    5  A    between atoms: C12_15  and  N4_16 
REMARK    6  A    between atoms: N4_16  and  C13_17 
REMARK    7  A    between atoms: C13_17  and  C14_18 
REMARK    8  A    between atoms: C19_23  and  O1_24 
ROOT
HETATM    1  C7  UNL     1      27.188   2.198  52.349  1.00  0.00     0.137 A 
HETATM    2  N2  UNL     1      28.414   2.068  52.879  1.00  0.00    -0.224 NA
HETATM    3  C8  UNL     1      28.774   1.133  53.772  1.00  0.00     0.235 A 
HETATM    4  N3  UNL     1      27.835   0.256  54.171  1.00  0.00    -0.241 NA
HETATM    5  C9  UNL     1      26.577   0.309  53.694  1.00  0.00     0.072 A 
HETATM    6  C10 UNL     1      25.663  -0.620  54.144  1.00  0.00     0.035 A 
HETATM    7  C11 UNL     1      24.407  -0.479  53.596  1.00  0.00     0.031 A 
HETATM    8  C12 UNL     1      24.012   0.466  52.679  1.00  0.00     0.029 A 
HETATM    9  C21 UNL     1      24.975   1.362  52.275  1.00  0.00     0.046 A 
HETATM   10  C22 UNL     1      26.248   1.284  52.779  1.00  0.00     0.041 A 
ENDROOT
BRANCH   8  11
HETATM   11  N4  UNL     1      22.722   0.561  52.119  1.00  0.00    -0.386 N 
HETATM   12  H14 UNL     1      22.430  -0.216  51.457  1.00  0.00     0.160 HD
BRANCH  11  13
HETATM   13  C13 UNL     1      21.559   1.408  52.139  1.00  0.00     0.161 C 
BRANCH  13  14
HETATM   14  C14 UNL     1      20.329   0.605  52.338  1.00  0.00    -0.007 A 
HETATM   15  C15 UNL     1      19.439   0.817  51.264  1.00  0.00     0.011 A 
HETATM   16  C16 UNL     1      18.215   0.195  51.151  1.00  0.00     0.001 A 
HETATM   17  C17 UNL     1      17.797  -0.692  52.121  1.00  0.00     0.003 A 
HETATM   18  C18 UNL     1      18.652  -0.908  53.172  1.00  0.00     0.037 A 
HETATM   19  C19 UNL     1      19.864  -0.279  53.265  1.00  0.00     0.076 A 
BRANCH  19  20
HETATM   20  O1  UNL     1      20.752  -0.450  54.282  1.00  0.00    -0.355 OA
HETATM   21  C20 UNL     1      21.311  -1.698  54.628  1.00  0.00     0.210 C 
ENDBRANCH  19  20
ENDBRANCH  13  14
ENDBRANCH  11  13
ENDBRANCH   8  11
BRANCH   1  22
HETATM   22  N1  UNL     1      26.962   3.231  51.423  1.00  0.00    -0.371 N 
HETATM   23  H10 UNL     1      27.134   4.242  51.580  1.00  0.00     0.161 HD
BRANCH  22  24
HETATM   24  C6  UNL     1      26.433   2.952  50.085  1.00  0.00     0.148 C 
BRANCH  24  25
HETATM   25  C5  UNL     1      25.627   4.071  49.560  1.00  0.00    -0.007 C 
HETATM   26  C4  UNL     1      24.381   4.008  49.165  1.00  0.00    -0.003 C 
BRANCH  26  27
HETATM   27  C3  UNL     1      23.539   2.823  49.162  1.00  0.00    -0.005 C 
HETATM   28  C2  UNL     1      22.484   2.612  48.369  1.00  0.00    -0.031 C 
HETATM   29  C1  UNL     1      21.653   1.395  48.395  1.00  0.00     0.036 C 
ENDBRANCH  26  27
ENDBRANCH  24  25
ENDBRANCH  22  24
ENDBRANCH   1  22
TORSDOF 8
ENDMDL
MODEL 4
REMARK VINA RESULT:      -7.7      1.778      3.091
REMARK  8 active torsions:
REMARK  status: ('A' for Active; 'I' for Inactive)
REMARK    1  A    between atoms: C3_3  and  C4_4 
REMARK    2  A    between atoms: C5_5  and  C6_6 
REMARK    3  A    between atoms: C6_6  and  N1_7 
REMARK    4  A    between atoms: N1_7  and  C7_8 
REMARK    5  A    between atoms: C12_15  and  N4_16 
REMARK    6  A    between atoms: N4_16  and  C13_17 
REMARK    7  A    between atoms: C13_17  and  C14_18 
REMARK    8  A    between atoms: C19_23  and  O1_24 
ROOT
HETATM    1  C7  UNL     1      26.608   2.228  52.502  1.00  0.00     0.137 A 
HETATM    2  N2  UNL     1      27.900   2.491  52.754  1.00  0.00    -0.224 NA
HETATM    3  C8  UNL     1      28.652   1.859  53.668  1.00  0.00     0.235 A 
HETATM    4  N3  UNL     1      28.069   0.886  54.393  1.00  0.00    -0.241 NA
HETATM    5  C9  UNL     1      26.777   0.554  54.211  1.00  0.00     0.072 A 
HETATM    6  C10 UNL     1      26.241  -0.452  54.986  1.00  0.00     0.035 A 
HETATM    7  C11 UNL     1      24.915  -0.715  54.722  1.00  0.00     0.031 A 
HETATM    8  C12 UNL     1      24.122  -0.086  53.791  1.00  0.00     0.029 A 
HETATM    9  C21 UNL     1      24.722   0.909  53.054  1.00  0.00     0.046 A 
HETATM   10  C22 UNL     1      26.040   1.227  53.262  1.00  0.00     0.041 A 
ENDROOT
BRANCH   8  11
HETATM   11  N4  UNL     1      22.773  -0.403  53.530  1.00  0.00    -0.386 N 
HETATM   12  H14 UNL     1      22.578  -0.983  52.663  1.00  0.00     0.160 HD
BRANCH  11  13
HETATM   13  C13 UNL     1      21.458  -0.206  54.078  1.00  0.00     0.161 C 
BRANCH  13  14
HETATM   14  C14 UNL     1      20.454  -0.072  52.995  1.00  0.00    -0.007 A 
HETATM   15  C15 UNL     1      19.280  -0.773  53.341  1.00  0.00     0.011 A 
HETATM   16  C16 UNL     1      18.156  -0.822  52.545  1.00  0.00     0.001 A 
HETATM   17  C17 UNL     1      18.136  -0.162  51.334  1.00  0.00     0.003 A 
HETATM   18  C18 UNL     1      19.272   0.524  50.984  1.00  0.00     0.037 A 
HETATM   19  C19 UNL     1      20.377   0.559  51.790  1.00  0.00     0.076 A 
BRANCH  19  20
HETATM   20  O1  UNL     1      21.531   1.218  51.497  1.00  0.00    -0.355 OA
HETATM   21  C20 UNL     1      21.613   2.619  51.344  1.00  0.00     0.210 C 
ENDBRANCH  19  20
ENDBRANCH  13  14
ENDBRANCH  11  13
ENDBRANCH   8  11
BRANCH   1  22
HETATM   22  N1  UNL     1      25.950   2.978  51.512  1.00  0.00    -0.371 N 
HETATM   23  H10 UNL     1      25.060   3.499  51.629  1.00  0.00     0.161 HD
BRANCH  22  24
HETATM   24  C6  UNL     1      26.493   3.091  50.156  1.00  0.00     0.148 C 
BRANCH  24  25
HETATM   25  C5  UNL     1      26.045   4.322  49.477  1.00  0.00    -0.007 C 
HETATM   26  C4  UNL     1      26.796   5.139  48.782  1.00  0.00    -0.003 C 
BRANCH  26  27
HETATM   27  C3  UNL     1      28.222   4.999  48.538  1.00  0.00    -0.005 C 
HETATM   28  C2  UNL     1      29.048   5.968  48.134  1.00  0.00    -0.031 C 
HETATM   29  C1  UNL     1      30.492   5.787  47.897  1.00  0.00     0.036 C 
ENDBRANCH  26  27
ENDBRANCH  24  25
ENDBRANCH  22  24
ENDBRANCH   1  22
TORSDOF 8
ENDMDL
MODEL 5
REMARK VINA RESULT:      -7.6      2.605      6.267
REMARK  8 active torsions:
REMARK  status: ('A' for Active; 'I' for Inactive)
REMARK    1  A    between atoms: C3_3  and  C4_4 
REMARK    2  A    between atoms: C5_5  and  C6_6 
REMARK    3  A    between atoms: C6_6  and  N1_7 
REMARK    4  A    between atoms: N1_7  and  C7_8 
REMARK    5  A    between atoms: C12_15  and  N4_16 
REMARK    6  A    between atoms: N4_16  and  C13_17 
REMARK    7  A    between atoms: C13_17  and  C14_18 
REMARK    8  A    between atoms: C19_23  and  O1_24 
ROOT
HETATM    1  C7  UNL     1      20.195   0.493  51.352  1.00  0.00     0.137 A 
HETATM    2  N2  UNL     1      18.882   0.236  51.454  1.00  0.00    -0.224 NA
HETATM    3  C8  UNL     1      18.303  -0.439  52.459  1.00  0.00     0.235 A 
HETATM    4  N3  UNL     1      19.098  -0.897  53.443  1.00  0.00    -0.241 NA
HETATM    5  C9  UNL     1      20.427  -0.688  53.426  1.00  0.00     0.072 A 
HETATM    6  C10 UNL     1      21.185  -1.184  54.466  1.00  0.00     0.035 A 
HETATM    7  C11 UNL     1      22.532  -0.917  54.354  1.00  0.00     0.031 A 
HETATM    8  C12 UNL     1      23.151  -0.227  53.338  1.00  0.00     0.029 A 
HETATM    9  C21 UNL     1      22.334   0.239  52.333  1.00  0.00     0.046 A 
HETATM   10  C22 UNL     1      20.983   0.009  52.376  1.00  0.00     0.041 A 
ENDROOT
BRANCH   8  11
HETATM   11  N4  UNL     1      24.531   0.051  53.272  1.00  0.00    -0.386 N 
HETATM   12  H14 UNL     1      25.145  -0.400  54.011  1.00  0.00     0.160 HD
BRANCH  11  13
HETATM   13  C13 UNL     1      25.482   0.787  52.483  1.00  0.00     0.161 C 
BRANCH  13  14
HETATM   14  C14 UNL     1      26.828   0.737  53.103  1.00  0.00    -0.007 A 
HETATM   15  C15 UNL     1      27.384   2.032  53.146  1.00  0.00     0.011 A 
HETATM   16  C16 UNL     1      28.621   2.315  53.683  1.00  0.00     0.001 A 
HETATM   17  C17 UNL     1      29.391   1.305  54.219  1.00  0.00     0.003 A 
HETATM   18  C18 UNL     1      28.863   0.039  54.185  1.00  0.00     0.037 A 
HETATM   19  C19 UNL     1      27.632  -0.220  53.645  1.00  0.00     0.076 A 
BRANCH  19  20
HETATM   20  O1  UNL     1      27.057  -1.452  53.579  1.00  0.00    -0.355 OA
HETATM   21  C20 UNL     1      27.336  -2.390  52.563  1.00  0.00     0.210 C 
ENDBRANCH  19  20
ENDBRANCH  13  14
ENDBRANCH  11  13
ENDBRANCH   8  11
BRANCH   1  22
HETATM   22  N1  UNL     1      20.655   1.214  50.237  1.00  0.00    -0.371 N 
HETATM   23  H10 UNL     1      21.245   0.842  49.468  1.00  0.00     0.161 HD
BRANCH  22  24
HETATM   24  C6  UNL     1      20.325   2.630  50.056  1.00  0.00     0.148 C 
BRANCH  24  25
HETATM   25  C5  UNL     1      20.867   3.472  51.140  1.00  0.00    -0.007 C 
HETATM   26  C4  UNL     1      22.128   3.759  51.339  1.00  0.00    -0.003 C 
BRANCH  26  27
HETATM   27  C3  UNL     1      23.251   3.306  50.533  1.00  0.00    -0.005 C 
HETATM   28  C2  UNL     1      24.441   3.907  50.437  1.00  0.00    -0.031 C 
HETATM   29  C1  UNL     1      25.556   3.417  49.608  1.00  0.00     0.036 C 
ENDBRANCH  26  27
ENDBRANCH  24  25
ENDBRANCH  22  24
ENDBRANCH   1  22
TORSDOF 8
ENDMDL
MODEL 6
REMARK VINA RESULT:      -7.6      1.684      3.282
REMARK  8 active torsions:
REMARK  status: ('A' for Active; 'I' for Inactive)
REMARK    1  A    between atoms: C3_3  and  C4_4 
REMARK    2  A    between atoms: C5_5  and  C6_6 
REMARK    3  A    between atoms: C6_6  and  N1_7 
REMARK    4  A    between atoms: N1_7  and  C7_8 
REMARK    5  A    between atoms: C12_15  and  N4_16 
REMARK    6  A    between atoms: N4_16  and  C13_17 
REMARK    7  A    between atoms: C13_17  and  C14_18 
REMARK    8  A    between atoms: C19_23  and  O1_24 
ROOT
HETATM    1  C7  UNL     1      27.027   2.138  52.362  1.00  0.00     0.137 A 
HETATM    2  N2  UNL     1      28.287   1.909  52.764  1.00  0.00    -0.224 NA
HETATM    3  C8  UNL     1      28.669   0.916  53.581  1.00  0.00     0.235 A 
HETATM    4  N3  UNL     1      27.717   0.082  54.038  1.00  0.00    -0.241 NA
HETATM    5  C9  UNL     1      26.426   0.233  53.689  1.00  0.00     0.072 A 
HETATM    6  C10 UNL     1      25.500  -0.656  54.191  1.00  0.00     0.035 A 
HETATM    7  C11 UNL     1      24.209  -0.415  53.775  1.00  0.00     0.031 A 
HETATM    8  C12 UNL     1      23.790   0.592  52.938  1.00  0.00     0.029 A 
HETATM    9  C21 UNL     1      24.767   1.444  52.475  1.00  0.00     0.046 A 
HETATM   10  C22 UNL     1      26.075   1.266  52.848  1.00  0.00     0.041 A 
ENDROOT
BRANCH   8  11
HETATM   11  N4  UNL     1      22.461   0.791  52.511  1.00  0.00    -0.386 N 
HETATM   12  H14 UNL     1      22.244   0.553  51.500  1.00  0.00     0.160 HD
BRANCH  11  13
HETATM   13  C13 UNL     1      21.187   1.231  53.011  1.00  0.00     0.161 C 
BRANCH  13  14
HETATM   14  C14 UNL     1      20.680   2.376  52.215  1.00  0.00    -0.007 A 
HETATM   15  C15 UNL     1      21.622   3.424  52.230  1.00  0.00     0.011 A 
HETATM   16  C16 UNL     1      21.449   4.618  51.564  1.00  0.00     0.001 A 
HETATM   17  C17 UNL     1      20.302   4.841  50.831  1.00  0.00     0.003 A 
HETATM   18  C18 UNL     1      19.376   3.830  50.807  1.00  0.00     0.037 A 
HETATM   19  C19 UNL     1      19.569   2.652  51.477  1.00  0.00     0.076 A 
BRANCH  19  20
HETATM   20  O1  UNL     1      18.687   1.615  51.494  1.00  0.00    -0.355 OA
HETATM   21  C20 UNL     1      18.483   0.746  50.401  1.00  0.00     0.210 C 
ENDBRANCH  19  20
ENDBRANCH  13  14
ENDBRANCH  11  13
ENDBRANCH   8  11
BRANCH   1  22
HETATM   22  N1  UNL     1      26.781   3.222  51.502  1.00  0.00    -0.371 N 
HETATM   23  H10 UNL     1      26.796   4.227  51.764  1.00  0.00     0.161 HD
BRANCH  22  24
HETATM   24  C6  UNL     1      26.464   3.016  50.087  1.00  0.00     0.148 C 
BRANCH  24  25
HETATM   25  C5  UNL     1      25.622   4.097  49.541  1.00  0.00    -0.007 C 
HETATM   26  C4  UNL     1      24.371   3.991  49.171  1.00  0.00    -0.003 C 
BRANCH  26  27
HETATM   27  C3  UNL     1      23.558   2.787  49.222  1.00  0.00    -0.005 C 
HETATM   28  C2  UNL     1      22.424   2.577  48.547  1.00  0.00    -0.031 C 
HETATM   29  C1  UNL     1      21.626   1.340  48.625  1.00  0.00     0.036 C 
ENDBRANCH  26  27
ENDBRANCH  24  25
ENDBRANCH  22  24
ENDBRANCH   1  22
TORSDOF 8
ENDMDL
MODEL 7
REMARK VINA RESULT:      -7.6      2.332      3.301
REMARK  8 active torsions:
REMARK  status: ('A' for Active; 'I' for Inactive)
REMARK    1  A    between atoms: C3_3  and  C4_4 
REMARK    2  A    between atoms: C5_5  and  C6_6 
REMARK    3  A    between atoms: C6_6  and  N1_7 
REMARK    4  A    between atoms: N1_7  and  C7_8 
REMARK    5  A    between atoms: C12_15  and  N4_16 
REMARK    6  A    between atoms: N4_16  and  C13_17 
REMARK    7  A    between atoms: C13_17  and  C14_18 
REMARK    8  A    between atoms: C19_23  and  O1_24 
ROOT
HETATM    1  C7  UNL     1      26.607   0.714  52.695  1.00  0.00     0.137 A 
HETATM    2  N2  UNL     1      27.864   0.716  53.165  1.00  0.00    -0.224 NA
HETATM    3  C8  UNL     1      28.251   0.194  54.339  1.00  0.00     0.235 A 
HETATM    4  N3  UNL     1      27.307  -0.378  55.109  1.00  0.00    -0.241 NA
HETATM    5  C9  UNL     1      26.019  -0.427  54.721  1.00  0.00     0.072 A 
HETATM    6  C10 UNL     1      25.102  -1.028  55.557  1.00  0.00     0.035 A 
HETATM    7  C11 UNL     1      23.814  -1.026  55.068  1.00  0.00     0.031 A 
HETATM    8  C12 UNL     1      23.391  -0.501  53.870  1.00  0.00     0.029 A 
HETATM    9  C21 UNL     1      24.359   0.084  53.086  1.00  0.00     0.046 A 
HETATM   10  C22 UNL     1      25.663   0.121  53.509  1.00  0.00     0.041 A 
ENDROOT
BRANCH   8  11
HETATM   11  N4  UNL     1      22.066  -0.543  53.391  1.00  0.00    -0.386 N 
HETATM   12  H14 UNL     1      21.940  -0.586  52.338  1.00  0.00     0.160 HD
BRANCH  11  13
HETATM   13  C13 UNL     1      20.709  -0.558  53.869  1.00  0.00     0.161 C 
BRANCH  13  14
HETATM   14  C14 UNL     1      19.762  -0.256  52.769  1.00  0.00    -0.007 A 
HETATM   15  C15 UNL     1      20.440   0.398  51.719  1.00  0.00     0.011 A 
HETATM   16  C16 UNL     1      19.835   0.792  50.546  1.00  0.00     0.001 A 
HETATM   17  C17 UNL     1      18.491   0.553  50.346  1.00  0.00     0.003 A 
HETATM   18  C18 UNL     1      17.818  -0.083  51.359  1.00  0.00     0.037 A 
HETATM   19  C19 UNL     1      18.440  -0.465  52.517  1.00  0.00     0.076 A 
BRANCH  19  20
HETATM   20  O1  UNL     1      17.826  -1.095  53.555  1.00  0.00    -0.355 OA
HETATM   21  C20 UNL     1      17.668  -2.495  53.636  1.00  0.00     0.210 C 
ENDBRANCH  19  20
ENDBRANCH  13  14
ENDBRANCH  11  13
ENDBRANCH   8  11
BRANCH   1  22
HETATM   22  N1  UNL     1      26.355   1.303  51.444  1.00  0.00    -0.371 N 
HETATM   23  H10 UNL     1      25.938   0.832  50.619  1.00  0.00     0.161 HD
BRANCH  22  24
HETATM   24  C6  UNL     1      26.679   2.709  51.185  1.00  0.00     0.148 C 
BRANCH  24  25
HETATM   25  C5  UNL     1      25.739   3.331  50.233  1.00  0.00    -0.007 C 
HETATM   26  C4  UNL     1      26.057   4.111  49.231  1.00  0.00    -0.003 C 
BRANCH  26  27
HETATM   27  C3  UNL     1      27.399   4.525  48.855  1.00  0.00    -0.005 C 
HETATM   28  C2  UNL     1      27.756   5.741  48.433  1.00  0.00    -0.031 C 
HETATM   29  C1  UNL     1      29.130   6.123  48.060  1.00  0.00     0.036 C 
ENDBRANCH  26  27
ENDBRANCH  24  25
ENDBRANCH  22  24
ENDBRANCH   1  22
TORSDOF 8
ENDMDL
MODEL 8
REMARK VINA RESULT:      -7.4      2.050      6.107
REMARK  8 active torsions:
REMARK  status: ('A' for Active; 'I' for Inactive)
REMARK    1  A    between atoms: C3_3  and  C4_4 
REMARK    2  A    between atoms: C5_5  and  C6_6 
REMARK    3  A    between atoms: C6_6  and  N1_7 
REMARK    4  A    between atoms: N1_7  and  C7_8 
REMARK    5  A    between atoms: C12_15  and  N4_16 
REMARK    6  A    between atoms: N4_16  and  C13_17 
REMARK    7  A    between atoms: C13_17  and  C14_18 
REMARK    8  A    between atoms: C19_23  and  O1_24 
ROOT
HETATM    1  C7  UNL     1      23.945   0.060  53.466  1.00  0.00     0.137 A 
HETATM    2  N2  UNL     1      23.897  -0.804  54.492  1.00  0.00    -0.224 NA
HETATM    3  C8  UNL     1      24.906  -1.052  55.341  1.00  0.00     0.235 A 
HETATM    4  N3  UNL     1      26.060  -0.386  55.151  1.00  0.00    -0.241 NA
HETATM    5  C9  UNL     1      26.202   0.500  54.148  1.00  0.00     0.072 A 
HETATM    6  C10 UNL     1      27.410   1.150  54.010  1.00  0.00     0.035 A 
HETATM    7  C11 UNL     1      27.452   2.034  52.954  1.00  0.00     0.031 A 
HETATM    8  C12 UNL     1      26.434   2.309  52.072  1.00  0.00     0.029 A 
HETATM    9  C21 UNL     1      25.257   1.624  52.269  1.00  0.00     0.046 A 
HETATM   10  C22 UNL     1      25.142   0.726  53.299  1.00  0.00     0.041 A 
ENDROOT
BRANCH   8  11
HETATM   11  N4  UNL     1      26.507   3.243  51.019  1.00  0.00    -0.386 N 
HETATM   12  H14 UNL     1      26.361   4.264  51.274  1.00  0.00     0.160 HD
BRANCH  11  13
HETATM   13  C13 UNL     1      26.737   3.306  49.600  1.00  0.00     0.161 C 
BRANCH  13  14
HETATM   14  C14 UNL     1      26.705   4.711  49.126  1.00  0.00    -0.007 A 
HETATM   15  C15 UNL     1      27.954   5.058  48.571  1.00  0.00     0.011 A 
HETATM   16  C16 UNL     1      28.232   6.293  48.027  1.00  0.00     0.001 A 
HETATM   17  C17 UNL     1      27.262   7.272  48.002  1.00  0.00     0.003 A 
HETATM   18  C18 UNL     1      26.041   6.949  48.537  1.00  0.00     0.037 A 
HETATM   19  C19 UNL     1      25.787   5.716  49.074  1.00  0.00     0.076 A 
BRANCH  19  20
HETATM   20  O1  UNL     1      24.599   5.338  49.622  1.00  0.00    -0.355 OA
HETATM   21  C20 UNL     1      23.451   5.034  48.861  1.00  0.00     0.210 C 
ENDBRANCH  19  20
ENDBRANCH  13  14
ENDBRANCH  11  13
ENDBRANCH   8  11
BRANCH   1  22
HETATM   22  N1  UNL     1      22.804   0.213  52.660  1.00  0.00    -0.371 N 
HETATM   23  H10 UNL     1      22.671  -0.176  51.707  1.00  0.00     0.161 HD
BRANCH  22  24
HETATM   24  C6  UNL     1      21.642   0.976  53.122  1.00  0.00     0.148 C 
BRANCH  24  25
HETATM   25  C5  UNL     1      20.646   0.121  53.798  1.00  0.00    -0.007 C 
HETATM   26  C4  UNL     1      19.556  -0.367  53.263  1.00  0.00    -0.003 C 
BRANCH  26  27
HETATM   27  C3  UNL     1      19.104  -0.166  51.896  1.00  0.00    -0.005 C 
HETATM   28  C2  UNL     1      17.832  -0.100  51.492  1.00  0.00    -0.031 C 
HETATM   29  C1  UNL     1      17.413   0.105  50.094  1.00  0.00     0.036 C 
ENDBRANCH  26  27
ENDBRANCH  24  25
ENDBRANCH  22  24
ENDBRANCH   1  22
TORSDOF 8
ENDMDL
MODEL 9
REMARK VINA RESULT:      -7.4      1.983      4.431
REMARK  8 active torsions:
REMARK  status: ('A' for Active; 'I' for Inactive)
REMARK    1  A    between atoms: C3_3  and  C4_4 
REMARK    2  A    between atoms: C5_5  and  C6_6 
REMARK    3  A    between atoms: C6_6  and  N1_7 
REMARK    4  A    between atoms: N1_7  and  C7_8 
REMARK    5  A    between atoms: C12_15  and  N4_16 
REMARK    6  A    between atoms: N4_16  and  C13_17 
REMARK    7  A    between atoms: C13_17  and  C14_18 
REMARK    8  A    between atoms: C19_23  and  O1_24 
ROOT
HETATM    1  C7  UNL     1      23.656  -0.498  53.657  1.00  0.00     0.137 A 
HETATM    2  N2  UNL     1      23.571  -1.172  54.814  1.00  0.00    -0.224 NA
HETATM    3  C8  UNL     1      24.552  -1.267  55.726  1.00  0.00     0.235 A 
HETATM    4  N3  UNL     1      25.713  -0.640  55.462  1.00  0.00    -0.241 NA
HETATM    5  C9  UNL     1      25.890   0.060  54.326  1.00  0.00     0.072 A 
HETATM    6  C10 UNL     1      27.104   0.679  54.117  1.00  0.00     0.035 A 
HETATM    7  C11 UNL     1      27.184   1.368  52.927  1.00  0.00     0.031 A 
HETATM    8  C12 UNL     1      26.195   1.484  51.977  1.00  0.00     0.029 A 
HETATM    9  C21 UNL     1      25.010   0.840  52.251  1.00  0.00     0.046 A 
HETATM   10  C22 UNL     1      24.859   0.133  53.416  1.00  0.00     0.041 A 
ENDROOT
BRANCH   8  11
HETATM   11  N4  UNL     1      26.305   2.222  50.782  1.00  0.00    -0.386 N 
HETATM   12  H14 UNL     1      26.206   1.680  49.874  1.00  0.00     0.160 HD
BRANCH  11  13
HETATM   13  C13 UNL     1      26.512   3.569  50.321  1.00  0.00     0.161 C 
BRANCH  13  14
HETATM   14  C14 UNL     1      25.319   4.063  49.591  1.00  0.00    -0.007 A 
HETATM   15  C15 UNL     1      24.431   2.994  49.346  1.00  0.00     0.011 A 
HETATM   16  C16 UNL     1      23.222   3.138  48.702  1.00  0.00     0.001 A 
HETATM   17  C17 UNL     1      22.818   4.379  48.256  1.00  0.00     0.003 A 
HETATM   18  C18 UNL     1      23.671   5.428  48.488  1.00  0.00     0.037 A 
HETATM   19  C19 UNL     1      24.869   5.263  49.129  1.00  0.00     0.076 A 
BRANCH  19  20
HETATM   20  O1  UNL     1      25.757   6.262  49.385  1.00  0.00    -0.355 OA
HETATM   21  C20 UNL     1      25.544   7.267  50.352  1.00  0.00     0.210 C 
ENDBRANCH  19  20
ENDBRANCH  13  14
ENDBRANCH  11  13
ENDBRANCH   8  11
BRANCH   1  22
HETATM   22  N1  UNL     1      22.542  -0.490  52.800  1.00  0.00    -0.371 N 
HETATM   23  H10 UNL     1      22.488  -0.932  51.862  1.00  0.00     0.161 HD
BRANCH  22  24
HETATM   24  C6  UNL     1      21.295   0.180  53.178  1.00  0.00     0.148 C 
BRANCH  24  25
HETATM   25  C5  UNL     1      20.721   0.959  52.064  1.00  0.00    -0.007 C 
HETATM   26  C4  UNL     1      21.079   2.163  51.698  1.00  0.00    -0.003 C 
BRANCH  26  27
HETATM   27  C3  UNL     1      22.114   2.978  52.314  1.00  0.00    -0.005 C 
HETATM   28  C2  UNL     1      22.387   4.253  52.023  1.00  0.00    -0.031 C 
HETATM   29  C1  UNL     1      23.447   5.047  52.671  1.00  0.00     0.036 C 
ENDBRANCH  26  27
ENDBRANCH  24  25
ENDBRANCH  22  24
ENDBRANCH   1  22
TORSDOF 8
ENDMDL
