MODEL 1
REMARK VINA RESULT:      -8.6      0.000      0.000
REMARK  1 active torsions:
REMARK  status: ('A' for Active; 'I' for Inactive)
REMARK    1  A    between atoms: C11_15  and  O2_16 
ROOT
HETATM    1  C1  UNL     1      23.546   5.971  51.445  1.00  0.00     0.051 C 
HETATM    2  C2  UNL     1      23.705   4.534  51.724  1.00  0.00    -0.024 A 
HETATM    3  C3  UNL     1      24.406   3.711  52.475  1.00  0.00     0.054 A 
HETATM    4  C4  UNL     1      23.728   2.505  51.921  1.00  0.00     0.218 A 
HETATM    5  C5  UNL     1      23.023   3.387  51.162  1.00  0.00     0.113 A 
HETATM    6  O1  UNL     1      22.230   2.549  50.466  1.00  0.00    -0.348 OA
HETATM    7  C6  UNL     1      20.927   2.521  50.069  1.00  0.00     0.176 C 
HETATM    8  C7  UNL     1      20.338   1.145  49.947  1.00  0.00     0.033 C 
HETATM    9  C8  UNL     1      20.155   0.382  51.210  1.00  0.00     0.063 C 
HETATM   10  C9  UNL     1      21.336   0.188  52.081  1.00  0.00     0.061 C 
HETATM   11  N1  UNL     1      22.281   0.818  51.608  1.00  0.00    -0.066 NA
HETATM   12  N2  UNL     1      23.600   1.048  51.921  1.00  0.00     0.174 N 
HETATM   13  C10 UNL     1      24.864   0.695  52.226  1.00  0.00     0.334 A 
HETATM   14  N3  UNL     1      26.130   0.395  52.440  1.00  0.00    -0.189 NA
HETATM   15  C11 UNL     1      26.360  -0.281  53.562  1.00  0.00     0.179 A 
HETATM   16  C12 UNL     1      25.316  -0.643  54.452  1.00  0.00     0.058 A 
HETATM   17  S1  UNL     1      23.833   0.046  53.623  1.00  0.00     0.094 SA
HETATM   18  C13 UNL     1      24.423  -1.164  55.569  1.00  0.00     0.106 C 
HETATM   19  C14 UNL     1      23.062  -1.277  55.093  1.00  0.00     0.045 C 
HETATM   20  C15 UNL     1      21.961  -1.356  54.690  1.00  0.00    -0.136 C 
HETATM   21  C16 UNL     1      20.669  -1.437  54.193  1.00  0.00     0.070 C 
HETATM   22  C17 UNL     1      20.936  -0.671  53.175  1.00  0.00     0.057 C 
ENDROOT
BRANCH  15  23
HETATM   23  O2  UNL     1      27.418  -0.840  54.279  1.00  0.00    -0.344 OA
HETATM   24  H11 UNL     1      28.313  -0.329  54.278  1.00  0.00     0.219 HD
ENDBRANCH  15  23
TORSDOF 1
ENDMDL
MODEL 2
REMARK VINA RESULT:      -8.5      1.762      5.195
REMARK  1 active torsions:
REMARK  status: ('A' for Active; 'I' for Inactive)
REMARK    1  A    between atoms: C11_15  and  O2_16 
ROOT
HETATM    1  C1  UNL     1      28.087  -1.855  53.066  1.00  0.00     0.051 C 
HETATM    2  C2  UNL     1      27.046  -0.865  52.747  1.00  0.00    -0.024 A 
HETATM    3  C3  UNL     1      26.739   0.038  51.840  1.00  0.00     0.054 A 
HETATM    4  C4  UNL     1      25.480   0.424  52.539  1.00  0.00     0.218 A 
HETATM    5  C5  UNL     1      25.831  -0.518  53.455  1.00  0.00     0.113 A 
HETATM    6  O1  UNL     1      24.803  -0.427  54.322  1.00  0.00    -0.348 OA
HETATM    7  C6  UNL     1      24.028  -1.294  55.032  1.00  0.00     0.176 C 
HETATM    8  C7  UNL     1      22.628  -0.816  55.289  1.00  0.00     0.033 C 
HETATM    9  C8  UNL     1      21.733  -0.705  54.107  1.00  0.00     0.063 C 
HETATM   10  C9  UNL     1      22.188   0.123  52.967  1.00  0.00     0.061 C 
HETATM   11  N1  UNL     1      23.335   0.506  53.193  1.00  0.00    -0.066 NA
HETATM   12  N2  UNL     1      24.288   1.270  52.562  1.00  0.00     0.174 N 
HETATM   13  C10 UNL     1      24.762   2.372  51.948  1.00  0.00     0.334 A 
HETATM   14  N3  UNL     1      25.292   3.459  51.422  1.00  0.00    -0.189 NA
HETATM   15  C11 UNL     1      24.744   3.847  50.274  1.00  0.00     0.179 A 
HETATM   16  C12 UNL     1      23.675   3.136  49.671  1.00  0.00     0.058 A 
HETATM   17  S1  UNL     1      23.402   1.758  50.849  1.00  0.00     0.094 SA
HETATM   18  C13 UNL     1      22.542   2.595  48.810  1.00  0.00     0.106 C 
HETATM   19  C14 UNL     1      21.678   1.757  49.610  1.00  0.00     0.045 C 
HETATM   20  C15 UNL     1      20.991   1.073  50.275  1.00  0.00    -0.136 C 
HETATM   21  C16 UNL     1      20.198   0.268  51.079  1.00  0.00     0.070 C 
HETATM   22  C17 UNL     1      21.110   0.169  52.003  1.00  0.00     0.057 C 
ENDROOT
BRANCH  15  23
HETATM   23  O2  UNL     1      24.868   4.849  49.312  1.00  0.00    -0.344 OA
HETATM   24  H11 UNL     1      24.037   5.063  48.741  1.00  0.00     0.219 HD
ENDBRANCH  15  23
TORSDOF 1
ENDMDL
MODEL 3
REMARK VINA RESULT:      -8.4      2.274      4.888
REMARK  1 active torsions:
REMARK  status: ('A' for Active; 'I' for Inactive)
REMARK    1  A    between atoms: C11_15  and  O2_16 
ROOT
HETATM    1  C1  UNL     1      26.973   3.901  49.025  1.00  0.00     0.051 C 
HETATM    2  C2  UNL     1      25.851   3.570  49.919  1.00  0.00    -0.024 A 
HETATM    3  C3  UNL     1      24.536   3.575  49.952  1.00  0.00     0.054 A 
HETATM    4  C4  UNL     1      24.491   3.040  51.342  1.00  0.00     0.218 A 
HETATM    5  C5  UNL     1      25.849   3.048  51.270  1.00  0.00     0.113 A 
HETATM    6  O1  UNL     1      26.173   2.572  52.488  1.00  0.00    -0.348 OA
HETATM    7  C6  UNL     1      27.085   1.699  53.000  1.00  0.00     0.176 C 
HETATM    8  C7  UNL     1      26.635   0.975  54.236  1.00  0.00     0.033 C 
HETATM    9  C8  UNL     1      25.528  -0.002  54.071  1.00  0.00     0.063 C 
HETATM   10  C9  UNL     1      24.267   0.474  53.459  1.00  0.00     0.061 C 
HETATM   11  N1  UNL     1      24.423   1.638  53.094  1.00  0.00    -0.066 NA
HETATM   12  N2  UNL     1      23.675   2.613  52.477  1.00  0.00     0.174 N 
HETATM   13  C10 UNL     1      22.605   3.418  52.321  1.00  0.00     0.334 A 
HETATM   14  N3  UNL     1      21.621   4.284  52.181  1.00  0.00    -0.189 NA
HETATM   15  C11 UNL     1      20.427   3.740  51.959  1.00  0.00     0.179 A 
HETATM   16  C12 UNL     1      20.242   2.336  51.881  1.00  0.00     0.058 A 
HETATM   17  S1  UNL     1      21.940   1.697  52.145  1.00  0.00     0.094 SA
HETATM   18  C13 UNL     1      19.746   0.902  51.755  1.00  0.00     0.106 C 
HETATM   19  C14 UNL     1      20.684   0.003  52.391  1.00  0.00     0.045 C 
HETATM   20  C15 UNL     1      21.461  -0.711  52.907  1.00  0.00    -0.136 C 
HETATM   21  C16 UNL     1      22.394  -1.535  53.517  1.00  0.00     0.070 C 
HETATM   22  C17 UNL     1      23.316  -0.615  53.513  1.00  0.00     0.057 C 
ENDROOT
BRANCH  15  23
HETATM   23  O2  UNL     1      19.102   4.115  51.744  1.00  0.00    -0.344 OA
HETATM   24  H11 UNL     1      18.914   4.771  50.972  1.00  0.00     0.219 HD
ENDBRANCH  15  23
TORSDOF 1
ENDMDL
MODEL 4
REMARK VINA RESULT:      -8.4      1.707      2.067
REMARK  1 active torsions:
REMARK  status: ('A' for Active; 'I' for Inactive)
REMARK    1  A    between atoms: C11_15  and  O2_16 
ROOT
HETATM    1  C1  UNL     1      22.097   7.030  50.810  1.00  0.00     0.051 C 
HETATM    2  C2  UNL     1      22.809   5.751  50.966  1.00  0.00    -0.024 A 
HETATM    3  C3  UNL     1      23.850   5.230  51.580  1.00  0.00     0.054 A 
HETATM    4  C4  UNL     1      23.605   3.874  51.010  1.00  0.00     0.218 A 
HETATM    5  C5  UNL     1      22.538   4.449  50.393  1.00  0.00     0.113 A 
HETATM    6  O1  UNL     1      22.033   3.396  49.721  1.00  0.00    -0.348 OA
HETATM    7  C6  UNL     1      20.796   2.891  49.455  1.00  0.00     0.176 C 
HETATM    8  C7  UNL     1      20.749   1.399  49.293  1.00  0.00     0.033 C 
HETATM    9  C8  UNL     1      21.014   0.586  50.508  1.00  0.00     0.063 C 
HETATM   10  C9  UNL     1      22.278   0.825  51.240  1.00  0.00     0.061 C 
HETATM   11  N1  UNL     1      22.859   1.778  50.722  1.00  0.00    -0.066 NA
HETATM   12  N2  UNL     1      24.026   2.477  50.917  1.00  0.00     0.174 N 
HETATM   13  C10 UNL     1      25.358   2.617  51.068  1.00  0.00     0.334 A 
HETATM   14  N3  UNL     1      26.661   2.808  51.131  1.00  0.00    -0.189 NA
HETATM   15  C11 UNL     1      27.258   2.235  52.172  1.00  0.00     0.179 A 
HETATM   16  C12 UNL     1      26.538   1.480  53.133  1.00  0.00     0.058 A 
HETATM   17  S1  UNL     1      24.817   1.586  52.510  1.00  0.00     0.094 SA
HETATM   18  C13 UNL     1      26.041   0.628  54.293  1.00  0.00     0.106 C 
HETATM   19  C14 UNL     1      24.773   0.026  53.949  1.00  0.00     0.045 C 
HETATM   20  C15 UNL     1      23.740  -0.449  53.654  1.00  0.00    -0.136 C 
HETATM   21  C16 UNL     1      22.520  -0.995  53.284  1.00  0.00     0.070 C 
HETATM   22  C17 UNL     1      22.360  -0.154  52.303  1.00  0.00     0.057 C 
ENDROOT
BRANCH  15  23
HETATM   23  O2  UNL     1      28.526   2.094  52.736  1.00  0.00    -0.344 OA
HETATM   24  H11 UNL     1      29.334   2.121  52.099  1.00  0.00     0.219 HD
ENDBRANCH  15  23
TORSDOF 1
ENDMDL
MODEL 5
REMARK VINA RESULT:      -8.3      2.051      4.458
REMARK  1 active torsions:
REMARK  status: ('A' for Active; 'I' for Inactive)
REMARK    1  A    between atoms: C11_15  and  O2_16 
ROOT
HETATM    1  C1  UNL     1      17.504   0.487  50.012  1.00  0.00     0.051 C 
HETATM    2  C2  UNL     1      18.676   0.622  50.894  1.00  0.00    -0.024 A 
HETATM    3  C3  UNL     1      19.503  -0.108  51.610  1.00  0.00     0.054 A 
HETATM    4  C4  UNL     1      20.277   1.080  52.069  1.00  0.00     0.218 A 
HETATM    5  C5  UNL     1      19.403   1.801  51.317  1.00  0.00     0.113 A 
HETATM    6  O1  UNL     1      19.858   3.052  51.522  1.00  0.00    -0.348 OA
HETATM    7  C6  UNL     1      20.061   4.169  50.768  1.00  0.00     0.176 C 
HETATM    8  C7  UNL     1      21.188   5.043  51.234  1.00  0.00     0.033 C 
HETATM    9  C8  UNL     1      22.561   4.490  51.103  1.00  0.00     0.063 C 
HETATM   10  C9  UNL     1      22.845   3.180  51.731  1.00  0.00     0.061 C 
HETATM   11  N1  UNL     1      21.795   2.729  52.189  1.00  0.00    -0.066 NA
HETATM   12  N2  UNL     1      21.389   1.601  52.862  1.00  0.00     0.174 N 
HETATM   13  C10 UNL     1      21.425   0.690  53.855  1.00  0.00     0.334 A 
HETATM   14  N3  UNL     1      21.367  -0.173  54.850  1.00  0.00    -0.189 NA
HETATM   15  C11 UNL     1      22.459  -0.915  55.009  1.00  0.00     0.179 A 
HETATM   16  C12 UNL     1      23.591  -0.779  54.166  1.00  0.00     0.058 A 
HETATM   17  S1  UNL     1      23.067   0.542  53.008  1.00  0.00     0.094 SA
HETATM   18  C13 UNL     1      24.928  -0.852  53.441  1.00  0.00     0.106 C 
HETATM   19  C14 UNL     1      25.165   0.382  52.727  1.00  0.00     0.045 C 
HETATM   20  C15 UNL     1      25.336   1.391  52.148  1.00  0.00    -0.136 C 
HETATM   21  C16 UNL     1      25.514   2.587  51.470  1.00  0.00     0.070 C 
HETATM   22  C17 UNL     1      24.257   2.912  51.568  1.00  0.00     0.057 C 
ENDROOT
BRANCH  15  23
HETATM   23  O2  UNL     1      22.957  -1.926  55.829  1.00  0.00    -0.344 OA
HETATM   24  H11 UNL     1      22.742  -1.871  56.835  1.00  0.00     0.219 HD
ENDBRANCH  15  23
TORSDOF 1
ENDMDL
MODEL 6
REMARK VINA RESULT:      -7.9      2.434      4.269
REMARK  1 active torsions:
REMARK  status: ('A' for Active; 'I' for Inactive)
REMARK    1  A    between atoms: C11_15  and  O2_16 
ROOT
HETATM    1  C1  UNL     1      28.689   2.501  53.844  1.00  0.00     0.051 C 
HETATM    2  C2  UNL     1      27.342   2.022  53.495  1.00  0.00    -0.024 A 
HETATM    3  C3  UNL     1      26.309   1.402  54.025  1.00  0.00     0.054 A 
HETATM    4  C4  UNL     1      25.526   1.460  52.758  1.00  0.00     0.218 A 
HETATM    5  C5  UNL     1      26.612   2.099  52.246  1.00  0.00     0.113 A 
HETATM    6  O1  UNL     1      26.205   2.322  50.981  1.00  0.00    -0.348 OA
HETATM    7  C6  UNL     1      26.281   3.343  50.082  1.00  0.00     0.176 C 
HETATM    8  C7  UNL     1      25.134   3.415  49.117  1.00  0.00     0.033 C 
HETATM    9  C8  UNL     1      23.807   3.775  49.682  1.00  0.00     0.063 C 
HETATM   10  C9  UNL     1      23.282   2.956  50.797  1.00  0.00     0.061 C 
HETATM   11  N1  UNL     1      24.144   2.142  51.126  1.00  0.00    -0.066 NA
HETATM   12  N2  UNL     1      24.285   1.138  52.056  1.00  0.00     0.174 N 
HETATM   13  C10 UNL     1      23.931   0.006  52.697  1.00  0.00     0.334 A 
HETATM   14  N3  UNL     1      23.671  -1.141  53.290  1.00  0.00    -0.189 NA
HETATM   15  C11 UNL     1      22.527  -1.173  53.967  1.00  0.00     0.179 A 
HETATM   16  C12 UNL     1      21.663  -0.050  54.038  1.00  0.00     0.058 A 
HETATM   17  S1  UNL     1      22.558   1.202  53.042  1.00  0.00     0.094 SA
HETATM   18  C13 UNL     1      20.557   0.968  54.283  1.00  0.00     0.106 C 
HETATM   19  C14 UNL     1      20.598   1.989  53.259  1.00  0.00     0.045 C 
HETATM   20  C15 UNL     1      20.652   2.812  52.423  1.00  0.00    -0.136 C 
HETATM   21  C16 UNL     1      20.737   3.775  51.428  1.00  0.00     0.070 C 
HETATM   22  C17 UNL     1      21.945   3.423  51.092  1.00  0.00     0.057 C 
ENDROOT
BRANCH  15  23
HETATM   23  O2  UNL     1      21.766  -2.043  54.746  1.00  0.00    -0.344 OA
HETATM   24  H11 UNL     1      22.121  -2.274  55.685  1.00  0.00     0.219 HD
ENDBRANCH  15  23
TORSDOF 1
ENDMDL
MODEL 7
REMARK VINA RESULT:      -7.7      2.414      4.570
REMARK  1 active torsions:
REMARK  status: ('A' for Active; 'I' for Inactive)
REMARK    1  A    between atoms: C11_15  and  O2_16 
ROOT
HETATM    1  C1  UNL     1      20.397   3.051  47.025  1.00  0.00     0.051 C 
HETATM    2  C2  UNL     1      20.938   2.785  48.368  1.00  0.00    -0.024 A 
HETATM    3  C3  UNL     1      20.756   1.993  49.403  1.00  0.00     0.054 A 
HETATM    4  C4  UNL     1      21.864   2.622  50.177  1.00  0.00     0.218 A 
HETATM    5  C5  UNL     1      22.021   3.421  49.088  1.00  0.00     0.113 A 
HETATM    6  O1  UNL     1      23.050   4.195  49.485  1.00  0.00    -0.348 OA
HETATM    7  C6  UNL     1      24.184   4.700  48.922  1.00  0.00     0.176 C 
HETATM    8  C7  UNL     1      25.325   4.895  49.878  1.00  0.00     0.033 C 
HETATM    9  C8  UNL     1      25.940   3.665  50.442  1.00  0.00     0.063 C 
HETATM   10  C9  UNL     1      25.056   2.702  51.136  1.00  0.00     0.061 C 
HETATM   11  N1  UNL     1      23.892   3.084  51.020  1.00  0.00    -0.066 NA
HETATM   12  N2  UNL     1      22.645   2.658  51.412  1.00  0.00     0.174 N 
HETATM   13  C10 UNL     1      21.713   2.254  52.298  1.00  0.00     0.334 A 
HETATM   14  N3  UNL     1      20.749   1.940  53.140  1.00  0.00    -0.189 NA
HETATM   15  C11 UNL     1      20.946   0.815  53.821  1.00  0.00     0.179 A 
HETATM   16  C12 UNL     1      22.109   0.021  53.643  1.00  0.00     0.058 A 
HETATM   17  S1  UNL     1      23.037   0.959  52.370  1.00  0.00     0.094 SA
HETATM   18  C13 UNL     1      23.230  -1.008  53.671  1.00  0.00     0.106 C 
HETATM   19  C14 UNL     1      24.447  -0.419  53.159  1.00  0.00     0.045 C 
HETATM   20  C15 UNL     1      25.424   0.077  52.734  1.00  0.00    -0.136 C 
HETATM   21  C16 UNL     1      26.564   0.681  52.225  1.00  0.00     0.070 C 
HETATM   22  C17 UNL     1      25.893   1.660  51.690  1.00  0.00     0.057 C 
ENDROOT
BRANCH  15  23
HETATM   23  O2  UNL     1      20.325   0.022  54.785  1.00  0.00    -0.344 OA
HETATM   24  H11 UNL     1      19.471   0.394  55.226  1.00  0.00     0.219 HD
ENDBRANCH  15  23
TORSDOF 1
ENDMDL
MODEL 8
REMARK VINA RESULT:      -7.6      3.000      4.996
REMARK  1 active torsions:
REMARK  status: ('A' for Active; 'I' for Inactive)
REMARK    1  A    between atoms: C11_15  and  O2_16 
ROOT
HETATM    1  C1  UNL     1      15.696   4.101  51.706  1.00  0.00     0.051 C 
HETATM    2  C2  UNL     1      16.920   3.298  51.549  1.00  0.00    -0.024 A 
HETATM    3  C3  UNL     1      18.208   3.434  51.317  1.00  0.00     0.054 A 
HETATM    4  C4  UNL     1      18.453   1.965  51.374  1.00  0.00     0.218 A 
HETATM    5  C5  UNL     1      17.118   1.865  51.612  1.00  0.00     0.113 A 
HETATM    6  O1  UNL     1      16.978   0.530  51.728  1.00  0.00    -0.348 OA
HETATM    7  C6  UNL     1      16.292  -0.328  52.534  1.00  0.00     0.176 C 
HETATM    8  C7  UNL     1      16.959  -1.656  52.749  1.00  0.00     0.033 C 
HETATM    9  C8  UNL     1      18.222  -1.650  53.532  1.00  0.00     0.063 C 
HETATM   10  C9  UNL     1      19.320  -0.770  53.071  1.00  0.00     0.061 C 
HETATM   11  N1  UNL     1      18.914  -0.100  52.123  1.00  0.00    -0.066 NA
HETATM   12  N2  UNL     1      19.413   0.867  51.282  1.00  0.00     0.174 N 
HETATM   13  C10 UNL     1      20.292   1.388  50.402  1.00  0.00     0.334 A 
HETATM   14  N3  UNL     1      21.076   1.901  49.475  1.00  0.00    -0.189 NA
HETATM   15  C11 UNL     1      22.334   2.100  49.856  1.00  0.00     0.179 A 
HETATM   16  C12 UNL     1      22.784   1.782  51.163  1.00  0.00     0.058 A 
HETATM   17  S1  UNL     1      21.266   1.129  51.957  1.00  0.00     0.094 SA
HETATM   18  C13 UNL     1      23.541   1.540  52.462  1.00  0.00     0.106 C 
HETATM   19  C14 UNL     1      22.844   0.554  53.257  1.00  0.00     0.045 C 
HETATM   20  C15 UNL     1      22.259  -0.244  53.890  1.00  0.00    -0.136 C 
HETATM   21  C16 UNL     1      21.549  -1.184  54.623  1.00  0.00     0.070 C 
HETATM   22  C17 UNL     1      20.467  -1.023  53.916  1.00  0.00     0.057 C 
ENDROOT
BRANCH  15  23
HETATM   23  O2  UNL     1      23.542   2.581  49.354  1.00  0.00    -0.344 OA
HETATM   24  H11 UNL     1      23.956   2.083  48.553  1.00  0.00     0.219 HD
ENDBRANCH  15  23
TORSDOF 1
ENDMDL
MODEL 9
REMARK VINA RESULT:      -7.5      2.652      5.769
REMARK  1 active torsions:
REMARK  status: ('A' for Active; 'I' for Inactive)
REMARK    1  A    between atoms: C11_15  and  O2_16 
ROOT
HETATM    1  C1  UNL     1      16.572   0.670  51.963  1.00  0.00     0.051 C 
HETATM    2  C2  UNL     1      17.965   0.786  51.500  1.00  0.00    -0.024 A 
HETATM    3  C3  UNL     1      18.698   1.436  50.621  1.00  0.00     0.054 A 
HETATM    4  C4  UNL     1      19.953   0.756  51.050  1.00  0.00     0.218 A 
HETATM    5  C5  UNL     1      19.163   0.105  51.945  1.00  0.00     0.113 A 
HETATM    6  O1  UNL     1      20.069  -0.675  52.567  1.00  0.00    -0.348 OA
HETATM    7  C6  UNL     1      20.327  -1.064  53.847  1.00  0.00     0.176 C 
HETATM    8  C7  UNL     1      21.775  -1.334  54.139  1.00  0.00     0.033 C 
HETATM    9  C8  UNL     1      22.690  -0.163  54.122  1.00  0.00     0.063 C 
HETATM   10  C9  UNL     1      22.724   0.674  52.902  1.00  0.00     0.061 C 
HETATM   11  N1  UNL     1      21.862   0.267  52.123  1.00  0.00    -0.066 NA
HETATM   12  N2  UNL     1      21.395   0.595  50.872  1.00  0.00     0.174 N 
HETATM   13  C10 UNL     1      21.505   0.851  49.553  1.00  0.00     0.334 A 
HETATM   14  N3  UNL     1      21.555   1.022  48.247  1.00  0.00    -0.189 NA
HETATM   15  C11 UNL     1      22.283   2.061  47.848  1.00  0.00     0.179 A 
HETATM   16  C12 UNL     1      22.949   2.912  48.767  1.00  0.00     0.058 A 
HETATM   17  S1  UNL     1      22.502   2.174  50.385  1.00  0.00     0.094 SA
HETATM   18  C13 UNL     1      23.763   3.970  49.499  1.00  0.00     0.106 C 
HETATM   19  C14 UNL     1      24.108   3.493  50.820  1.00  0.00     0.045 C 
HETATM   20  C15 UNL     1      24.373   3.091  51.892  1.00  0.00    -0.136 C 
HETATM   21  C16 UNL     1      24.669   2.597  53.153  1.00  0.00     0.070 C 
HETATM   22  C17 UNL     1      23.759   1.668  53.081  1.00  0.00     0.057 C 
ENDROOT
BRANCH  15  23
HETATM   23  O2  UNL     1      22.681   2.704  46.676  1.00  0.00    -0.344 OA
HETATM   24  H11 UNL     1      22.435   3.699  46.575  1.00  0.00     0.219 HD
ENDBRANCH  15  23
TORSDOF 1
ENDMDL
