MODEL 1
REMARK VINA RESULT:      -7.8      0.000      0.000
REMARK  4 active torsions:
REMARK  status: ('A' for Active; 'I' for Inactive)
REMARK    1  A    between atoms: O1_2  and  O2_3 
REMARK    2  A    between atoms: O2_3  and  C2_4 
REMARK    3  A    between atoms: C7_11  and  N3_12 
REMARK    4  A    between atoms: N3_12  and  C8_13 
ROOT
HETATM    1  C2  UNL     1      24.414  -0.302  53.513  1.00  0.00     0.107 A 
HETATM    2  C3  UNL     1      25.005  -0.645  54.696  1.00  0.00     0.042 A 
HETATM    3  C4  UNL     1      26.233  -0.085  54.968  1.00  0.00     0.035 A 
HETATM    4  C5  UNL     1      26.818   0.782  54.071  1.00  0.00     0.072 A 
HETATM    5  N1  UNL     1      28.005   1.271  54.424  1.00  0.00    -0.241 NA
HETATM    6  C6  UNL     1      28.658   2.125  53.616  1.00  0.00     0.236 A 
HETATM    7  N2  UNL     1      28.062   2.448  52.464  1.00  0.00    -0.224 NA
HETATM    8  C7  UNL     1      26.880   2.012  52.023  1.00  0.00     0.142 A 
HETATM    9  C14 UNL     1      26.237   1.139  52.871  1.00  0.00     0.041 A 
HETATM   10  C15 UNL     1      25.021   0.561  52.644  1.00  0.00     0.057 A 
ENDROOT
BRANCH   8  11
HETATM   11  N3  UNL     1      26.259   2.355  50.812  1.00  0.00    -0.340 N 
HETATM   12  H7  UNL     1      25.763   1.665  50.235  1.00  0.00     0.167 HD
BRANCH  11  13
HETATM   13  C8  UNL     1      26.178   3.616  50.165  1.00  0.00     0.035 A 
HETATM   14  C9  UNL     1      27.106   4.127  49.267  1.00  0.00     0.029 A 
HETATM   15  C10 UNL     1      26.997   5.350  48.656  1.00  0.00     0.004 A 
HETATM   16  C11 UNL     1      25.916   6.162  48.918  1.00  0.00     0.019 A 
HETATM   17  C12 UNL     1      24.963   5.686  49.812  1.00  0.00     0.013 A 
HETATM   18 BR1  UNL     1      23.500   6.868  50.118  1.00  0.00    -0.051 Br
HETATM   19  C13 UNL     1      25.124   4.458  50.393  1.00  0.00     0.048 A 
ENDBRANCH  11  13
ENDBRANCH   8  11
BRANCH   1  20
HETATM   20  O2  UNL     1      23.178  -0.862  53.232  1.00  0.00    -0.198 OA
BRANCH  20  21
HETATM   21  O1  UNL     1      22.345  -1.286  54.188  1.00  0.00    -0.240 OA
HETATM   22  C1  UNL     1      21.395  -0.274  54.378  1.00  0.00     0.247 C 
ENDBRANCH  20  21
ENDBRANCH   1  20
TORSDOF 4
ENDMDL
MODEL 2
REMARK VINA RESULT:      -7.6      2.498      3.754
REMARK  4 active torsions:
REMARK  status: ('A' for Active; 'I' for Inactive)
REMARK    1  A    between atoms: O1_2  and  O2_3 
REMARK    2  A    between atoms: O2_3  and  C2_4 
REMARK    3  A    between atoms: C7_11  and  N3_12 
REMARK    4  A    between atoms: N3_12  and  C8_13 
ROOT
HETATM    1  C2  UNL     1      25.965   0.790  54.102  1.00  0.00     0.107 A 
HETATM    2  C3  UNL     1      25.275  -0.385  54.212  1.00  0.00     0.042 A 
HETATM    3  C4  UNL     1      24.088  -0.480  53.520  1.00  0.00     0.035 A 
HETATM    4  C5  UNL     1      23.639   0.574  52.757  1.00  0.00     0.072 A 
HETATM    5  N1  UNL     1      22.482   0.385  52.126  1.00  0.00    -0.241 NA
HETATM    6  C6  UNL     1      21.960   1.354  51.355  1.00  0.00     0.236 A 
HETATM    7  N2  UNL     1      22.651   2.494  51.260  1.00  0.00    -0.224 NA
HETATM    8  C7  UNL     1      23.813   2.779  51.851  1.00  0.00     0.142 A 
HETATM    9  C14 UNL     1      24.322   1.767  52.633  1.00  0.00     0.041 A 
HETATM   10  C15 UNL     1      25.493   1.817  53.336  1.00  0.00     0.057 A 
ENDROOT
BRANCH   8  11
HETATM   11  N3  UNL     1      24.535   3.979  51.748  1.00  0.00    -0.340 N 
HETATM   12  H7  UNL     1      24.525   4.691  52.487  1.00  0.00     0.167 HD
BRANCH  11  13
HETATM   13  C8  UNL     1      25.370   4.440  50.697  1.00  0.00     0.035 A 
HETATM   14  C9  UNL     1      26.366   3.704  50.070  1.00  0.00     0.029 A 
HETATM   15  C10 UNL     1      27.155   4.180  49.053  1.00  0.00     0.004 A 
HETATM   16  C11 UNL     1      26.987   5.465  48.589  1.00  0.00     0.019 A 
HETATM   17  C12 UNL     1      25.997   6.236  49.190  1.00  0.00     0.013 A 
HETATM   18 BR1  UNL     1      25.828   7.999  48.489  1.00  0.00    -0.051 Br
HETATM   19  C13 UNL     1      25.241   5.710  50.201  1.00  0.00     0.048 A 
ENDBRANCH  11  13
ENDBRANCH   8  11
BRANCH   1  20
HETATM   20  O2  UNL     1      27.160   0.894  54.795  1.00  0.00    -0.198 OA
BRANCH  20  21
HETATM   21  O1  UNL     1      27.936  -0.164  55.057  1.00  0.00    -0.240 OA
HETATM   22  C1  UNL     1      29.040  -0.080  54.198  1.00  0.00     0.247 C 
ENDBRANCH  20  21
ENDBRANCH   1  20
TORSDOF 4
ENDMDL
MODEL 3
REMARK VINA RESULT:      -7.5      3.028      4.621
REMARK  4 active torsions:
REMARK  status: ('A' for Active; 'I' for Inactive)
REMARK    1  A    between atoms: O1_2  and  O2_3 
REMARK    2  A    between atoms: O2_3  and  C2_4 
REMARK    3  A    between atoms: C7_11  and  N3_12 
REMARK    4  A    between atoms: N3_12  and  C8_13 
ROOT
HETATM    1  C2  UNL     1      25.140  -0.630  54.552  1.00  0.00     0.107 A 
HETATM    2  C3  UNL     1      24.505  -1.321  55.545  1.00  0.00     0.042 A 
HETATM    3  C4  UNL     1      23.132  -1.397  55.476  1.00  0.00     0.035 A 
HETATM    4  C5  UNL     1      22.451  -0.795  54.441  1.00  0.00     0.072 A 
HETATM    5  N1  UNL     1      21.127  -0.924  54.462  1.00  0.00    -0.241 NA
HETATM    6  C6  UNL     1      20.373  -0.373  53.495  1.00  0.00     0.236 A 
HETATM    7  N2  UNL     1      21.013   0.298  52.533  1.00  0.00    -0.224 NA
HETATM    8  C7  UNL     1      22.330   0.484  52.425  1.00  0.00     0.142 A 
HETATM    9  C14 UNL     1      23.075  -0.092  53.429  1.00  0.00     0.041 A 
HETATM   10  C15 UNL     1      24.436  -0.043  53.538  1.00  0.00     0.057 A 
ENDROOT
BRANCH   8  11
HETATM   11  N3  UNL     1      22.998   1.190  51.412  1.00  0.00    -0.340 N 
HETATM   12  H7  UNL     1      23.328   0.736  50.553  1.00  0.00     0.167 HD
BRANCH  11  13
HETATM   13  C8  UNL     1      23.338   2.567  51.347  1.00  0.00     0.035 A 
HETATM   14  C9  UNL     1      22.735   3.586  52.073  1.00  0.00     0.029 A 
HETATM   15  C10 UNL     1      23.090   4.909  51.990  1.00  0.00     0.004 A 
HETATM   16  C11 UNL     1      24.103   5.302  51.145  1.00  0.00     0.019 A 
HETATM   17  C12 UNL     1      24.733   4.311  50.399  1.00  0.00     0.013 A 
HETATM   18 BR1  UNL     1      26.124   4.938  49.257  1.00  0.00    -0.051 Br
HETATM   19  C13 UNL     1      24.338   3.007  50.523  1.00  0.00     0.048 A 
ENDBRANCH  11  13
ENDBRANCH   8  11
BRANCH   1  20
HETATM   20  O2  UNL     1      26.522  -0.548  54.614  1.00  0.00    -0.198 OA
BRANCH  20  21
HETATM   21  O1  UNL     1      27.161   0.558  55.009  1.00  0.00    -0.240 OA
HETATM   22  C1  UNL     1      28.533   0.297  54.894  1.00  0.00     0.247 C 
ENDBRANCH  20  21
ENDBRANCH   1  20
TORSDOF 4
ENDMDL
MODEL 4
REMARK VINA RESULT:      -7.2      3.073      5.245
REMARK  4 active torsions:
REMARK  status: ('A' for Active; 'I' for Inactive)
REMARK    1  A    between atoms: O1_2  and  O2_3 
REMARK    2  A    between atoms: O2_3  and  C2_4 
REMARK    3  A    between atoms: C7_11  and  N3_12 
REMARK    4  A    between atoms: N3_12  and  C8_13 
ROOT
HETATM    1  C2  UNL     1      22.274   1.016  52.422  1.00  0.00     0.107 A 
HETATM    2  C3  UNL     1      21.545   1.167  51.276  1.00  0.00     0.042 A 
HETATM    3  C4  UNL     1      22.128   1.881  50.253  1.00  0.00     0.035 A 
HETATM    4  C5  UNL     1      23.392   2.410  50.404  1.00  0.00     0.072 A 
HETATM    5  N1  UNL     1      23.868   3.084  49.360  1.00  0.00    -0.241 NA
HETATM    6  C6  UNL     1      25.093   3.637  49.407  1.00  0.00     0.236 A 
HETATM    7  N2  UNL     1      25.788   3.478  50.537  1.00  0.00    -0.224 NA
HETATM    8  C7  UNL     1      25.399   2.824  51.634  1.00  0.00     0.142 A 
HETATM    9  C14 UNL     1      24.141   2.268  51.554  1.00  0.00     0.041 A 
HETATM   10  C15 UNL     1      23.524   1.553  52.540  1.00  0.00     0.057 A 
ENDROOT
BRANCH   8  11
HETATM   11  N3  UNL     1      26.134   2.659  52.818  1.00  0.00    -0.340 N 
HETATM   12  H7  UNL     1      25.973   3.240  53.649  1.00  0.00     0.167 HD
BRANCH  11  13
HETATM   13  C8  UNL     1      27.170   1.736  53.114  1.00  0.00     0.035 A 
HETATM   14  C9  UNL     1      28.403   2.052  53.670  1.00  0.00     0.029 A 
HETATM   15  C10 UNL     1      29.384   1.134  53.947  1.00  0.00     0.004 A 
HETATM   16  C11 UNL     1      29.182  -0.200  53.675  1.00  0.00     0.019 A 
HETATM   17  C12 UNL     1      27.959  -0.559  53.118  1.00  0.00     0.013 A 
HETATM   18 BR1  UNL     1      27.758  -2.422  52.774  1.00  0.00    -0.051 Br
HETATM   19  C13 UNL     1      27.017   0.400  52.862  1.00  0.00     0.048 A 
ENDBRANCH  11  13
ENDBRANCH   8  11
BRANCH   1  20
HETATM   20  O2  UNL     1      21.694   0.298  53.456  1.00  0.00    -0.198 OA
BRANCH  20  21
HETATM   21  O1  UNL     1      22.240  -0.817  53.954  1.00  0.00    -0.240 OA
HETATM   22  C1  UNL     1      21.183  -1.620  54.404  1.00  0.00     0.247 C 
ENDBRANCH  20  21
ENDBRANCH   1  20
TORSDOF 4
ENDMDL
MODEL 5
REMARK VINA RESULT:      -7.2      1.707      2.371
REMARK  4 active torsions:
REMARK  status: ('A' for Active; 'I' for Inactive)
REMARK    1  A    between atoms: O1_2  and  O2_3 
REMARK    2  A    between atoms: O2_3  and  C2_4 
REMARK    3  A    between atoms: C7_11  and  N3_12 
REMARK    4  A    between atoms: N3_12  and  C8_13 
ROOT
HETATM    1  C2  UNL     1      22.848  -0.889  53.872  1.00  0.00     0.107 A 
HETATM    2  C3  UNL     1      23.103  -1.335  55.138  1.00  0.00     0.042 A 
HETATM    3  C4  UNL     1      24.374  -1.135  55.628  1.00  0.00     0.035 A 
HETATM    4  C5  UNL     1      25.329  -0.510  54.855  1.00  0.00     0.072 A 
HETATM    5  N1  UNL     1      26.527  -0.364  55.417  1.00  0.00    -0.241 NA
HETATM    6  C6  UNL     1      27.526   0.235  54.745  1.00  0.00     0.236 A 
HETATM    7  N2  UNL     1      27.255   0.664  53.508  1.00  0.00    -0.224 NA
HETATM    8  C7  UNL     1      26.092   0.563  52.861  1.00  0.00     0.142 A 
HETATM    9  C14 UNL     1      25.090  -0.054  53.575  1.00  0.00     0.041 A 
HETATM   10  C15 UNL     1      23.816  -0.273  53.131  1.00  0.00     0.057 A 
ENDROOT
BRANCH   8  11
HETATM   11  N3  UNL     1      25.813   1.015  51.562  1.00  0.00    -0.340 N 
HETATM   12  H7  UNL     1      25.737   0.375  50.762  1.00  0.00     0.167 HD
BRANCH  11  13
HETATM   13  C8  UNL     1      25.591   2.337  51.096  1.00  0.00     0.035 A 
HETATM   14  C9  UNL     1      24.492   3.130  51.401  1.00  0.00     0.029 A 
HETATM   15  C10 UNL     1      24.308   4.408  50.937  1.00  0.00     0.004 A 
HETATM   16  C11 UNL     1      25.244   4.986  50.110  1.00  0.00     0.019 A 
HETATM   17  C12 UNL     1      26.361   4.224  49.780  1.00  0.00     0.013 A 
HETATM   18 BR1  UNL     1      27.609   5.098  48.635  1.00  0.00    -0.051 Br
HETATM   19  C13 UNL     1      26.493   2.955  50.273  1.00  0.00     0.048 A 
ENDBRANCH  11  13
ENDBRANCH   8  11
BRANCH   1  20
HETATM   20  O2  UNL     1      21.571  -1.087  53.372  1.00  0.00    -0.198 OA
BRANCH  20  21
HETATM   21  O1  UNL     1      20.884  -0.123  52.749  1.00  0.00    -0.240 OA
HETATM   22  C1  UNL     1      20.430   0.757  53.741  1.00  0.00     0.247 C 
ENDBRANCH  20  21
ENDBRANCH   1  20
TORSDOF 4
ENDMDL
MODEL 6
REMARK VINA RESULT:      -7.1      1.899      2.656
REMARK  4 active torsions:
REMARK  status: ('A' for Active; 'I' for Inactive)
REMARK    1  A    between atoms: O1_2  and  O2_3 
REMARK    2  A    between atoms: O2_3  and  C2_4 
REMARK    3  A    between atoms: C7_11  and  N3_12 
REMARK    4  A    between atoms: N3_12  and  C8_13 
ROOT
HETATM    1  C2  UNL     1      21.323  -0.448  53.519  1.00  0.00     0.107 A 
HETATM    2  C3  UNL     1      21.703  -1.223  54.578  1.00  0.00     0.042 A 
HETATM    3  C4  UNL     1      23.045  -1.247  54.886  1.00  0.00     0.035 A 
HETATM    4  C5  UNL     1      23.944  -0.512  54.145  1.00  0.00     0.072 A 
HETATM    5  N1  UNL     1      25.218  -0.600  54.521  1.00  0.00    -0.241 NA
HETATM    6  C6  UNL     1      26.172   0.080  53.862  1.00  0.00     0.236 A 
HETATM    7  N2  UNL     1      25.779   0.832  52.830  1.00  0.00    -0.224 NA
HETATM    8  C7  UNL     1      24.532   0.984  52.377  1.00  0.00     0.142 A 
HETATM    9  C14 UNL     1      23.579   0.276  53.073  1.00  0.00     0.041 A 
HETATM   10  C15 UNL     1      22.240   0.269  52.804  1.00  0.00     0.057 A 
ENDROOT
BRANCH   8  11
HETATM   11  N3  UNL     1      24.125   1.776  51.292  1.00  0.00    -0.340 N 
HETATM   12  H7  UNL     1      23.275   1.574  50.754  1.00  0.00     0.167 HD
BRANCH  11  13
HETATM   13  C8  UNL     1      24.735   2.933  50.741  1.00  0.00     0.035 A 
HETATM   14  C9  UNL     1      25.869   2.948  49.940  1.00  0.00     0.029 A 
HETATM   15  C10 UNL     1      26.433   4.085  49.419  1.00  0.00     0.004 A 
HETATM   16  C11 UNL     1      25.877   5.316  49.681  1.00  0.00     0.019 A 
HETATM   17  C12 UNL     1      24.739   5.345  50.480  1.00  0.00     0.013 A 
HETATM   18 BR1  UNL     1      24.031   7.087  50.793  1.00  0.00    -0.051 Br
HETATM   19  C13 UNL     1      24.220   4.180  50.972  1.00  0.00     0.048 A 
ENDBRANCH  11  13
ENDBRANCH   8  11
BRANCH   1  20
HETATM   20  O2  UNL     1      19.974  -0.419  53.202  1.00  0.00    -0.198 OA
BRANCH  20  21
HETATM   21  O1  UNL     1      19.129  -1.391  53.563  1.00  0.00    -0.240 OA
HETATM   22  C1  UNL     1      17.875  -1.054  53.034  1.00  0.00     0.247 C 
ENDBRANCH  20  21
ENDBRANCH   1  20
TORSDOF 4
ENDMDL
MODEL 7
REMARK VINA RESULT:      -7.0      2.314      2.777
REMARK  4 active torsions:
REMARK  status: ('A' for Active; 'I' for Inactive)
REMARK    1  A    between atoms: O1_2  and  O2_3 
REMARK    2  A    between atoms: O2_3  and  C2_4 
REMARK    3  A    between atoms: C7_11  and  N3_12 
REMARK    4  A    between atoms: N3_12  and  C8_13 
ROOT
HETATM    1  C2  UNL     1      21.723   1.380  52.756  1.00  0.00     0.107 A 
HETATM    2  C3  UNL     1      22.013   0.364  53.622  1.00  0.00     0.042 A 
HETATM    3  C4  UNL     1      23.330  -0.028  53.708  1.00  0.00     0.035 A 
HETATM    4  C5  UNL     1      24.294   0.593  52.945  1.00  0.00     0.072 A 
HETATM    5  N1  UNL     1      25.538   0.144  53.099  1.00  0.00    -0.241 NA
HETATM    6  C6  UNL     1      26.550   0.686  52.400  1.00  0.00     0.236 A 
HETATM    7  N2  UNL     1      26.245   1.678  51.559  1.00  0.00    -0.224 NA
HETATM    8  C7  UNL     1      25.035   2.196  51.334  1.00  0.00     0.142 A 
HETATM    9  C14 UNL     1      24.020   1.621  52.065  1.00  0.00     0.041 A 
HETATM   10  C15 UNL     1      22.702   1.976  52.013  1.00  0.00     0.057 A 
ENDROOT
BRANCH   8  11
HETATM   11  N3  UNL     1      24.720   3.239  50.450  1.00  0.00    -0.340 N 
HETATM   12  H7  UNL     1      23.769   3.390  50.095  1.00  0.00     0.167 HD
BRANCH  11  13
HETATM   13  C8  UNL     1      25.565   4.235  49.894  1.00  0.00     0.035 A 
HETATM   14  C9  UNL     1      26.719   4.002  49.159  1.00  0.00     0.029 A 
HETATM   15  C10 UNL     1      27.513   4.989  48.632  1.00  0.00     0.004 A 
HETATM   16  C11 UNL     1      27.187   6.313  48.816  1.00  0.00     0.019 A 
HETATM   17  C12 UNL     1      26.036   6.590  49.547  1.00  0.00     0.013 A 
HETATM   18 BR1  UNL     1      25.654   8.445  49.755  1.00  0.00    -0.051 Br
HETATM   19  C13 UNL     1      25.282   5.566  50.050  1.00  0.00     0.048 A 
ENDBRANCH  11  13
ENDBRANCH   8  11
BRANCH   1  20
HETATM   20  O2  UNL     1      20.399   1.781  52.663  1.00  0.00    -0.198 OA
BRANCH  20  21
HETATM   21  O1  UNL     1      20.018   3.052  52.827  1.00  0.00    -0.240 OA
HETATM   22  C1  UNL     1      19.176   3.365  51.752  1.00  0.00     0.247 C 
ENDBRANCH  20  21
ENDBRANCH   1  20
TORSDOF 4
ENDMDL
MODEL 8
REMARK VINA RESULT:      -6.7      4.082      6.464
REMARK  4 active torsions:
REMARK  status: ('A' for Active; 'I' for Inactive)
REMARK    1  A    between atoms: O1_2  and  O2_3 
REMARK    2  A    between atoms: O2_3  and  C2_4 
REMARK    3  A    between atoms: C7_11  and  N3_12 
REMARK    4  A    between atoms: N3_12  and  C8_13 
ROOT
HETATM    1  C2  UNL     1      24.990   3.386  50.812  1.00  0.00     0.107 A 
HETATM    2  C3  UNL     1      26.273   2.938  50.674  1.00  0.00     0.042 A 
HETATM    3  C4  UNL     1      26.602   1.771  51.327  1.00  0.00     0.035 A 
HETATM    4  C5  UNL     1      25.660   1.104  52.080  1.00  0.00     0.072 A 
HETATM    5  N1  UNL     1      26.074  -0.014  52.672  1.00  0.00    -0.241 NA
HETATM    6  C6  UNL     1      25.230  -0.738  53.428  1.00  0.00     0.236 A 
HETATM    7  N2  UNL     1      23.980  -0.282  53.550  1.00  0.00    -0.224 NA
HETATM    8  C7  UNL     1      23.472   0.823  52.999  1.00  0.00     0.142 A 
HETATM    9  C14 UNL     1      24.360   1.542  52.231  1.00  0.00     0.041 A 
HETATM   10  C15 UNL     1      24.079   2.702  51.566  1.00  0.00     0.057 A 
ENDROOT
BRANCH   8  11
HETATM   11  N3  UNL     1      22.157   1.298  53.130  1.00  0.00    -0.340 N 
HETATM   12  H7  UNL     1      21.908   2.051  53.781  1.00  0.00     0.167 HD
BRANCH  11  13
HETATM   13  C8  UNL     1      20.979   0.886  52.454  1.00  0.00     0.035 A 
HETATM   14  C9  UNL     1      20.601   1.271  51.175  1.00  0.00     0.029 A 
HETATM   15  C10 UNL     1      19.455   0.852  50.548  1.00  0.00     0.004 A 
HETATM   16  C11 UNL     1      18.590  -0.006  51.187  1.00  0.00     0.019 A 
HETATM   17  C12 UNL     1      18.932  -0.417  52.472  1.00  0.00     0.013 A 
HETATM   18 BR1  UNL     1      17.684  -1.604  53.286  1.00  0.00    -0.051 Br
HETATM   19  C13 UNL     1      20.088   0.034  53.048  1.00  0.00     0.048 A 
ENDBRANCH  11  13
ENDBRANCH   8  11
BRANCH   1  20
HETATM   20  O2  UNL     1      24.651   4.560  50.158  1.00  0.00    -0.198 OA
BRANCH  20  21
HETATM   21  O1  UNL     1      25.325   5.702  50.332  1.00  0.00    -0.240 OA
HETATM   22  C1  UNL     1      24.442   6.605  50.941  1.00  0.00     0.247 C 
ENDBRANCH  20  21
ENDBRANCH   1  20
TORSDOF 4
ENDMDL
MODEL 9
REMARK VINA RESULT:      -6.7      3.516      4.847
REMARK  4 active torsions:
REMARK  status: ('A' for Active; 'I' for Inactive)
REMARK    1  A    between atoms: O1_2  and  O2_3 
REMARK    2  A    between atoms: O2_3  and  C2_4 
REMARK    3  A    between atoms: C7_11  and  N3_12 
REMARK    4  A    between atoms: N3_12  and  C8_13 
ROOT
HETATM    1  C2  UNL     1      26.404   1.732  51.976  1.00  0.00     0.107 A 
HETATM    2  C3  UNL     1      27.115   0.818  52.702  1.00  0.00     0.042 A 
HETATM    3  C4  UNL     1      26.395  -0.041  53.502  1.00  0.00     0.035 A 
HETATM    4  C5  UNL     1      25.021   0.037  53.550  1.00  0.00     0.072 A 
HETATM    5  N1  UNL     1      24.416  -0.836  54.353  1.00  0.00    -0.241 NA
HETATM    6  C6  UNL     1      23.077  -0.841  54.469  1.00  0.00     0.236 A 
HETATM    7  N2  UNL     1      22.401   0.060  53.750  1.00  0.00    -0.224 NA
HETATM    8  C7  UNL     1      22.914   0.974  52.922  1.00  0.00     0.142 A 
HETATM    9  C14 UNL     1      24.287   0.953  52.825  1.00  0.00     0.041 A 
HETATM   10  C15 UNL     1      25.041   1.784  52.046  1.00  0.00     0.057 A 
ENDROOT
BRANCH   8  11
HETATM   11  N3  UNL     1      22.199   1.918  52.169  1.00  0.00    -0.340 N 
HETATM   12  H7  UNL     1      21.663   2.676  52.607  1.00  0.00     0.167 HD
BRANCH  11  13
HETATM   13  C8  UNL     1      22.067   2.035  50.761  1.00  0.00     0.035 A 
HETATM   14  C9  UNL     1      21.658   1.027  49.899  1.00  0.00     0.029 A 
HETATM   15  C10 UNL     1      21.537   1.173  48.540  1.00  0.00     0.004 A 
HETATM   16  C11 UNL     1      21.830   2.379  47.944  1.00  0.00     0.019 A 
HETATM   17  C12 UNL     1      22.243   3.416  48.774  1.00  0.00     0.013 A 
HETATM   18 BR1  UNL     1      22.627   5.050  47.872  1.00  0.00    -0.051 Br
HETATM   19  C13 UNL     1      22.346   3.213  50.123  1.00  0.00     0.048 A 
ENDBRANCH  11  13
ENDBRANCH   8  11
BRANCH   1  20
HETATM   20  O2  UNL     1      27.121   2.600  51.168  1.00  0.00    -0.198 OA
BRANCH  20  21
HETATM   21  O1  UNL     1      26.863   2.750  49.864  1.00  0.00    -0.240 OA
HETATM   22  C1  UNL     1      26.617   4.113  49.653  1.00  0.00     0.247 C 
ENDBRANCH  20  21
ENDBRANCH   1  20
TORSDOF 4
ENDMDL
