MODEL 1
REMARK VINA RESULT:      -9.5      0.000      0.000
REMARK  3 active torsions:
REMARK  status: ('A' for Active; 'I' for Inactive)
REMARK    1  A    between atoms: C2_3  and  C23_25 
REMARK    2  A    between atoms: C7_8  and  C8_9 
REMARK    3  A    between atoms: C14_15  and  O1_16 
REMARK       I    between atoms: C23_25  and  N2_26 
ROOT
HETATM    1  N1  UNL     1      25.033   8.410  48.252  1.00  0.00    -0.191 NA
HETATM    2  C1  UNL     1      25.345   7.346  48.510  1.00  0.00     0.101 C 
HETATM    3  C2  UNL     1      25.715   5.997  48.833  1.00  0.00     0.093 C 
HETATM    4  C3  UNL     1      25.195   4.874  49.209  1.00  0.00     0.072 A 
HETATM    5  C4  UNL     1      24.540   3.637  49.631  1.00  0.00    -0.068 A 
HETATM    6  C5  UNL     1      23.372   3.157  49.911  1.00  0.00    -0.018 C 
HETATM    7  C6  UNL     1      23.326   1.753  50.275  1.00  0.00     0.070 C 
HETATM    8  C7  UNL     1      22.706   1.375  51.525  1.00  0.00    -0.011 C 
HETATM    9  C14 UNL     1      22.767   0.761  52.745  1.00  0.00     0.073 C 
HETATM   10  C15 UNL     1      23.672   0.025  53.644  1.00  0.00     0.037 C 
HETATM   11  C16 UNL     1      24.862  -0.463  53.904  1.00  0.00     0.002 C 
HETATM   12  C17 UNL     1      26.257  -0.797  53.768  1.00  0.00    -0.004 C 
HETATM   13  C18 UNL     1      27.131  -0.523  52.846  1.00  0.00    -0.027 C 
HETATM   14  C19 UNL     1      26.473   0.265  51.808  1.00  0.00     0.027 C 
HETATM   15  C20 UNL     1      27.015   1.676  51.904  1.00  0.00     0.005 C 
HETATM   16  C21 UNL     1      26.429   2.607  50.889  1.00  0.00    -0.018 C 
HETATM   17  C22 UNL     1      25.967   3.483  49.942  1.00  0.00     0.055 A 
ENDROOT
BRANCH   3  18
HETATM   18  C23 UNL     1      27.167   5.736  48.707  1.00  0.00     0.235 C 
HETATM   19  N2  UNL     1      28.483   5.232  48.809  1.00  0.00    -0.268 NA
HETATM   20  H21 UNL     1      28.635   4.209  49.047  1.00  0.00     0.127 HD
HETATM   21  H22 UNL     1      28.690   4.231  49.041  1.00  0.00     0.127 HD
HETATM   22  O2  UNL     1      27.951   6.430  47.969  1.00  0.00    -0.274 OA
ENDBRANCH   3  18
BRANCH   8  23
HETATM   23  C8  UNL     1      21.399   2.057  51.365  1.00  0.00    -0.027 A 
HETATM   24  C9  UNL     1      20.923   3.209  51.907  1.00  0.00     0.012 A 
HETATM   25  C10 UNL     1      19.664   3.726  51.700  1.00  0.00     0.001 A 
HETATM   26  C11 UNL     1      18.783   3.032  50.873  1.00  0.00     0.000 A 
HETATM   27  C12 UNL     1      19.212   1.860  50.299  1.00  0.00     0.001 A 
HETATM   28  C13 UNL     1      20.491   1.390  50.543  1.00  0.00     0.012 A 
ENDBRANCH   8  23
BRANCH   9  29
HETATM   29  O1  UNL     1      21.513   0.873  53.419  1.00  0.00    -0.360 OA
HETATM   30  H10 UNL     1      20.708   0.521  52.918  1.00  0.00     0.217 HD
ENDBRANCH   9  29
TORSDOF 3
ENDMDL
MODEL 2
REMARK VINA RESULT:      -9.1      3.172      6.102
REMARK  3 active torsions:
REMARK  status: ('A' for Active; 'I' for Inactive)
REMARK    1  A    between atoms: C2_3  and  C23_25 
REMARK    2  A    between atoms: C7_8  and  C8_9 
REMARK    3  A    between atoms: C14_15  and  O1_16 
REMARK       I    between atoms: C23_25  and  N2_26 
ROOT
HETATM    1  N1  UNL     1      29.340   2.393  54.325  1.00  0.00    -0.191 NA
HETATM    2  C1  UNL     1      28.390   1.951  53.881  1.00  0.00     0.101 C 
HETATM    3  C2  UNL     1      27.190   1.414  53.305  1.00  0.00     0.093 C 
HETATM    4  C3  UNL     1      26.208   1.748  52.532  1.00  0.00     0.072 A 
HETATM    5  C4  UNL     1      25.129   2.193  51.652  1.00  0.00    -0.068 A 
HETATM    6  C5  UNL     1      24.730   3.228  50.987  1.00  0.00    -0.018 C 
HETATM    7  C6  UNL     1      23.510   3.064  50.218  1.00  0.00     0.070 C 
HETATM    8  C7  UNL     1      22.422   3.993  50.427  1.00  0.00    -0.011 C 
HETATM    9  C14 UNL     1      21.117   4.243  50.750  1.00  0.00     0.073 C 
HETATM   10  C15 UNL     1      19.865   3.588  51.162  1.00  0.00     0.037 C 
HETATM   11  C16 UNL     1      19.209   2.500  51.491  1.00  0.00     0.002 C 
HETATM   12  C17 UNL     1      18.920   1.118  51.780  1.00  0.00    -0.004 C 
HETATM   13  C18 UNL     1      19.673   0.059  51.801  1.00  0.00    -0.027 C 
HETATM   14  C19 UNL     1      21.033   0.453  51.448  1.00  0.00     0.027 C 
HETATM   15  C20 UNL     1      21.871   0.345  52.705  1.00  0.00     0.005 C 
HETATM   16  C21 UNL     1      23.306   0.717  52.496  1.00  0.00    -0.018 C 
HETATM   17  C22 UNL     1      24.640   0.992  52.341  1.00  0.00     0.055 A 
ENDROOT
BRANCH   3  18
HETATM   18  C23 UNL     1      26.938   0.002  53.674  1.00  0.00     0.235 C 
HETATM   19  N2  UNL     1      26.673  -1.385  53.685  1.00  0.00    -0.268 NA
HETATM   20  H21 UNL     1      26.951  -1.978  52.850  1.00  0.00     0.127 HD
HETATM   21  H22 UNL     1      26.926  -2.017  52.888  1.00  0.00     0.127 HD
HETATM   22  O2  UNL     1      26.911  -0.421  54.884  1.00  0.00    -0.274 OA
ENDBRANCH   3  18
BRANCH   8  23
HETATM   23  C8  UNL     1      23.153   5.270  50.241  1.00  0.00    -0.027 A 
HETATM   24  C9  UNL     1      23.545   6.212  51.139  1.00  0.00     0.012 A 
HETATM   25  C10 UNL     1      24.198   7.384  50.830  1.00  0.00     0.001 A 
HETATM   26  C11 UNL     1      24.494   7.653  49.496  1.00  0.00     0.000 A 
HETATM   27  C12 UNL     1      24.120   6.735  48.545  1.00  0.00     0.001 A 
HETATM   28  C13 UNL     1      23.465   5.573  48.916  1.00  0.00     0.012 A 
ENDBRANCH   8  23
BRANCH   9  29
HETATM   29  O1  UNL     1      20.851   5.645  50.686  1.00  0.00    -0.360 OA
HETATM   30  H10 UNL     1      21.249   6.135  49.896  1.00  0.00     0.217 HD
ENDBRANCH   9  29
TORSDOF 3
ENDMDL
MODEL 3
REMARK VINA RESULT:      -8.8      3.778      6.688
REMARK  3 active torsions:
REMARK  status: ('A' for Active; 'I' for Inactive)
REMARK    1  A    between atoms: C2_3  and  C23_25 
REMARK    2  A    between atoms: C7_8  and  C8_9 
REMARK    3  A    between atoms: C14_15  and  O1_16 
REMARK       I    between atoms: C23_25  and  N2_26 
ROOT
HETATM    1  N1  UNL     1      17.401   0.059  50.465  1.00  0.00    -0.191 NA
HETATM    2  C1  UNL     1      18.303   0.117  51.156  1.00  0.00     0.101 C 
HETATM    3  C2  UNL     1      19.447   0.214  52.019  1.00  0.00     0.093 C 
HETATM    4  C3  UNL     1      20.525   0.908  52.186  1.00  0.00     0.072 A 
HETATM    5  C4  UNL     1      21.724   1.734  52.315  1.00  0.00    -0.068 A 
HETATM    6  C5  UNL     1      22.328   2.732  51.757  1.00  0.00    -0.018 C 
HETATM    7  C6  UNL     1      23.564   3.164  52.383  1.00  0.00     0.070 C 
HETATM    8  C7  UNL     1      24.763   3.248  51.580  1.00  0.00    -0.011 C 
HETATM    9  C14 UNL     1      26.062   2.893  51.341  1.00  0.00     0.073 C 
HETATM   10  C15 UNL     1      27.163   2.059  51.852  1.00  0.00     0.037 C 
HETATM   11  C16 UNL     1      27.615   1.186  52.721  1.00  0.00     0.002 C 
HETATM   12  C17 UNL     1      27.664   0.266  53.829  1.00  0.00    -0.004 C 
HETATM   13  C18 UNL     1      26.757  -0.126  54.673  1.00  0.00    -0.027 C 
HETATM   14  C19 UNL     1      25.505   0.554  54.354  1.00  0.00     0.027 C 
HETATM   15  C20 UNL     1      24.566  -0.485  53.777  1.00  0.00     0.005 C 
HETATM   16  C21 UNL     1      23.227   0.068  53.402  1.00  0.00    -0.018 C 
HETATM   17  C22 UNL     1      21.967   0.515  53.098  1.00  0.00     0.055 A 
ENDROOT
BRANCH   3  18
HETATM   18  C23 UNL     1      19.448  -0.785  53.112  1.00  0.00     0.235 C 
HETATM   19  N2  UNL     1      19.780  -1.642  54.184  1.00  0.00    -0.268 NA
HETATM   20  H21 UNL     1      20.558  -1.370  54.852  1.00  0.00     0.127 HD
HETATM   21  H22 UNL     1      20.539  -1.422  54.873  1.00  0.00     0.127 HD
HETATM   22  O2  UNL     1      18.420  -1.475  53.444  1.00  0.00    -0.274 OA
ENDBRANCH   3  18
BRANCH   8  23
HETATM   23  C8  UNL     1      24.255   4.091  50.471  1.00  0.00    -0.027 A 
HETATM   24  C9  UNL     1      23.788   3.757  49.239  1.00  0.00     0.012 A 
HETATM   25  C10 UNL     1      23.370   4.650  48.277  1.00  0.00     0.001 A 
HETATM   26  C11 UNL     1      23.419   6.012  48.562  1.00  0.00     0.000 A 
HETATM   27  C12 UNL     1      23.884   6.407  49.794  1.00  0.00     0.001 A 
HETATM   28  C13 UNL     1      24.290   5.463  50.721  1.00  0.00     0.012 A 
ENDBRANCH   8  23
BRANCH   9  29
HETATM   29  O1  UNL     1      26.546   3.547  50.167  1.00  0.00    -0.360 OA
HETATM   30  H10 UNL     1      26.302   4.523  50.072  1.00  0.00     0.217 HD
ENDBRANCH   9  29
TORSDOF 3
ENDMDL
MODEL 4
REMARK VINA RESULT:      -8.8      1.523      5.103
REMARK  3 active torsions:
REMARK  status: ('A' for Active; 'I' for Inactive)
REMARK    1  A    between atoms: C2_3  and  C23_25 
REMARK    2  A    between atoms: C7_8  and  C8_9 
REMARK    3  A    between atoms: C14_15  and  O1_16 
REMARK       I    between atoms: C23_25  and  N2_26 
ROOT
HETATM    1  N1  UNL     1      28.572   5.511  48.113  1.00  0.00    -0.191 NA
HETATM    2  C1  UNL     1      27.540   5.411  48.582  1.00  0.00     0.101 C 
HETATM    3  C2  UNL     1      26.248   5.273  49.194  1.00  0.00     0.093 C 
HETATM    4  C3  UNL     1      25.644   4.618  50.131  1.00  0.00     0.072 A 
HETATM    5  C4  UNL     1      25.027   3.846  51.207  1.00  0.00    -0.068 A 
HETATM    6  C5  UNL     1      25.308   2.952  52.099  1.00  0.00    -0.018 C 
HETATM    7  C6  UNL     1      24.219   2.551  52.971  1.00  0.00     0.070 C 
HETATM    8  C7  UNL     1      23.889   1.148  53.077  1.00  0.00    -0.011 C 
HETATM    9  C14 UNL     1      22.985   0.127  52.972  1.00  0.00     0.073 C 
HETATM   10  C15 UNL     1      21.590  -0.171  52.606  1.00  0.00     0.037 C 
HETATM   11  C16 UNL     1      20.422   0.232  52.164  1.00  0.00     0.002 C 
HETATM   12  C17 UNL     1      19.378   1.087  51.660  1.00  0.00    -0.004 C 
HETATM   13  C18 UNL     1      19.362   2.349  51.347  1.00  0.00    -0.027 C 
HETATM   14  C19 UNL     1      20.691   2.901  51.594  1.00  0.00     0.027 C 
HETATM   15  C20 UNL     1      21.315   3.186  50.244  1.00  0.00     0.005 C 
HETATM   16  C21 UNL     1      22.692   3.766  50.338  1.00  0.00    -0.018 C 
HETATM   17  C22 UNL     1      23.930   4.353  50.373  1.00  0.00     0.055 A 
ENDROOT
BRANCH   3  18
HETATM   18  C23 UNL     1      25.216   6.154  48.601  1.00  0.00     0.235 C 
HETATM   19  N2  UNL     1      24.175   6.722  47.833  1.00  0.00    -0.268 NA
HETATM   20  H21 UNL     1      23.443   6.091  47.396  1.00  0.00     0.127 HD
HETATM   21  H22 UNL     1      23.427   6.145  47.379  1.00  0.00     0.127 HD
HETATM   22  O2  UNL     1      24.993   7.352  48.999  1.00  0.00    -0.274 OA
ENDBRANCH   3  18
BRANCH   8  23
HETATM   23  C8  UNL     1      25.229   0.606  53.405  1.00  0.00    -0.027 A 
HETATM   24  C9  UNL     1      25.934   0.615  54.568  1.00  0.00     0.012 A 
HETATM   25  C10 UNL     1      27.199   0.099  54.736  1.00  0.00     0.001 A 
HETATM   26  C11 UNL     1      27.834  -0.487  53.644  1.00  0.00     0.000 A 
HETATM   27  C12 UNL     1      27.167  -0.524  52.442  1.00  0.00     0.001 A 
HETATM   28  C13 UNL     1      25.896   0.012  52.334  1.00  0.00     0.012 A 
ENDBRANCH   8  23
BRANCH   9  29
HETATM   29  O1  UNL     1      23.595  -1.114  53.330  1.00  0.00    -0.360 OA
HETATM   30  H10 UNL     1      24.591  -1.084  53.503  1.00  0.00     0.217 HD
ENDBRANCH   9  29
TORSDOF 3
ENDMDL
MODEL 5
REMARK VINA RESULT:      -8.8      4.404      7.434
REMARK  3 active torsions:
REMARK  status: ('A' for Active; 'I' for Inactive)
REMARK    1  A    between atoms: C2_3  and  C23_25 
REMARK    2  A    between atoms: C7_8  and  C8_9 
REMARK    3  A    between atoms: C14_15  and  O1_16 
REMARK       I    between atoms: C23_25  and  N2_26 
ROOT
HETATM    1  N1  UNL     1      15.818  -0.190  48.905  1.00  0.00    -0.191 NA
HETATM    2  C1  UNL     1      16.476  -0.211  49.833  1.00  0.00     0.101 C 
HETATM    3  C2  UNL     1      17.318  -0.215  50.996  1.00  0.00     0.093 C 
HETATM    4  C3  UNL     1      18.406   0.314  51.452  1.00  0.00     0.072 A 
HETATM    5  C4  UNL     1      19.642   0.950  51.903  1.00  0.00    -0.068 A 
HETATM    6  C5  UNL     1      20.549   1.787  51.513  1.00  0.00    -0.018 C 
HETATM    7  C6  UNL     1      21.605   2.076  52.465  1.00  0.00     0.070 C 
HETATM    8  C7  UNL     1      22.981   1.897  52.058  1.00  0.00    -0.011 C 
HETATM    9  C14 UNL     1      24.210   1.324  52.237  1.00  0.00     0.073 C 
HETATM   10  C15 UNL     1      24.950   0.379  53.089  1.00  0.00     0.037 C 
HETATM   11  C16 UNL     1      24.969  -0.472  54.088  1.00  0.00     0.002 C 
HETATM   12  C17 UNL     1      24.531  -1.283  55.195  1.00  0.00    -0.004 C 
HETATM   13  C18 UNL     1      23.364  -1.450  55.742  1.00  0.00    -0.027 C 
HETATM   14  C19 UNL     1      22.399  -0.615  55.033  1.00  0.00     0.027 C 
HETATM   15  C20 UNL     1      21.500  -1.543  54.243  1.00  0.00     0.005 C 
HETATM   16  C21 UNL     1      20.447  -0.823  53.459  1.00  0.00    -0.018 C 
HETATM   17  C22 UNL     1      19.429  -0.215  52.771  1.00  0.00     0.055 A 
ENDROOT
BRANCH   3  18
HETATM   18  C23 UNL     1      16.826  -1.098  52.078  1.00  0.00     0.235 C 
HETATM   19  N2  UNL     1      16.608  -1.789  53.291  1.00  0.00    -0.268 NA
HETATM   20  H21 UNL     1      16.876  -1.331  54.210  1.00  0.00     0.127 HD
HETATM   21  H22 UNL     1      16.854  -1.384  54.226  1.00  0.00     0.127 HD
HETATM   22  O2  UNL     1      15.852  -1.918  51.937  1.00  0.00    -0.274 OA
ENDBRANCH   3  18
BRANCH   8  23
HETATM   23  C8  UNL     1      22.974   2.705  50.815  1.00  0.00    -0.027 A 
HETATM   24  C9  UNL     1      22.885   2.333  49.510  1.00  0.00     0.012 A 
HETATM   25  C10 UNL     1      22.921   3.190  48.433  1.00  0.00     0.001 A 
HETATM   26  C11 UNL     1      23.062   4.556  48.669  1.00  0.00     0.000 A 
HETATM   27  C12 UNL     1      23.157   4.988  49.970  1.00  0.00     0.001 A 
HETATM   28  C13 UNL     1      23.113   4.079  51.012  1.00  0.00     0.012 A 
ENDBRANCH   8  23
BRANCH   9  29
HETATM   29  O1  UNL     1      25.121   1.784  51.238  1.00  0.00    -0.360 OA
HETATM   30  H10 UNL     1      24.735   1.909  50.311  1.00  0.00     0.217 HD
ENDBRANCH   9  29
TORSDOF 3
ENDMDL
MODEL 6
REMARK VINA RESULT:      -8.2      3.915     10.009
REMARK  3 active torsions:
REMARK  status: ('A' for Active; 'I' for Inactive)
REMARK    1  A    between atoms: C2_3  and  C23_25 
REMARK    2  A    between atoms: C7_8  and  C8_9 
REMARK    3  A    between atoms: C14_15  and  O1_16 
REMARK       I    between atoms: C23_25  and  N2_26 
ROOT
HETATM    1  N1  UNL     1      26.630   1.389  51.346  1.00  0.00    -0.191 NA
HETATM    2  C1  UNL     1      26.417   2.347  50.770  1.00  0.00     0.101 C 
HETATM    3  C2  UNL     1      26.172   3.555  50.032  1.00  0.00     0.093 C 
HETATM    4  C3  UNL     1      26.793   4.458  49.347  1.00  0.00     0.072 A 
HETATM    5  C4  UNL     1      27.558   5.443  48.584  1.00  0.00    -0.068 A 
HETATM    6  C5  UNL     1      28.766   5.712  48.207  1.00  0.00    -0.018 C 
HETATM    7  C6  UNL     1      28.932   6.895  47.384  1.00  0.00     0.070 C 
HETATM    8  C7  UNL     1      29.876   7.909  47.800  1.00  0.00    -0.011 C 
HETATM    9  C14 UNL     1      30.159   9.204  48.137  1.00  0.00     0.073 C 
HETATM   10  C15 UNL     1      29.545  10.530  48.317  1.00  0.00     0.037 C 
HETATM   11  C16 UNL     1      28.479  11.295  48.322  1.00  0.00     0.002 C 
HETATM   12  C17 UNL     1      27.106  11.719  48.221  1.00  0.00    -0.004 C 
HETATM   13  C18 UNL     1      26.010  11.063  47.981  1.00  0.00    -0.027 C 
HETATM   14  C19 UNL     1      26.347   9.655  47.791  1.00  0.00     0.027 C 
HETATM   15  C20 UNL     1      25.829   8.903  48.999  1.00  0.00     0.005 C 
HETATM   16  C21 UNL     1      26.100   7.432  48.943  1.00  0.00    -0.018 C 
HETATM   17  C22 UNL     1      26.273   6.073  48.910  1.00  0.00     0.055 A 
ENDROOT
BRANCH   3  18
HETATM   18  C23 UNL     1      24.745   3.949  50.002  1.00  0.00     0.235 C 
HETATM   19  N2  UNL     1      23.479   4.533  50.230  1.00  0.00    -0.268 NA
HETATM   20  H21 UNL     1      23.420   5.512  50.634  1.00  0.00     0.127 HD
HETATM   21  H22 UNL     1      23.363   5.496  50.627  1.00  0.00     0.127 HD
HETATM   22  O2  UNL     1      23.888   3.449  49.191  1.00  0.00    -0.274 OA
ENDBRANCH   3  18
BRANCH   8  23
HETATM   23  C8  UNL     1      31.078   7.062  47.986  1.00  0.00    -0.027 A 
HETATM   24  C9  UNL     1      31.694   6.624  49.116  1.00  0.00     0.012 A 
HETATM   25  C10 UNL     1      32.837   5.858  49.154  1.00  0.00     0.001 A 
HETATM   26  C11 UNL     1      33.434   5.485  47.952  1.00  0.00     0.000 A 
HETATM   27  C12 UNL     1      32.852   5.900  46.777  1.00  0.00     0.001 A 
HETATM   28  C13 UNL     1      31.702   6.670  46.802  1.00  0.00     0.012 A 
ENDBRANCH   8  23
BRANCH   9  29
HETATM   29  O1  UNL     1      31.547   9.343  48.442  1.00  0.00    -0.360 OA
HETATM   30  H10 UNL     1      32.184   8.826  47.851  1.00  0.00     0.217 HD
ENDBRANCH   9  29
TORSDOF 3
ENDMDL
MODEL 7
REMARK VINA RESULT:      -7.9      4.189      9.321
REMARK  3 active torsions:
REMARK  status: ('A' for Active; 'I' for Inactive)
REMARK    1  A    between atoms: C2_3  and  C23_25 
REMARK    2  A    between atoms: C7_8  and  C8_9 
REMARK    3  A    between atoms: C14_15  and  O1_16 
REMARK       I    between atoms: C23_25  and  N2_26 
ROOT
HETATM    1  N1  UNL     1      23.043   3.749  49.175  1.00  0.00    -0.191 NA
HETATM    2  C1  UNL     1      24.128   4.091  49.219  1.00  0.00     0.101 C 
HETATM    3  C2  UNL     1      25.489   4.545  49.265  1.00  0.00     0.093 C 
HETATM    4  C3  UNL     1      26.257   5.472  48.793  1.00  0.00     0.072 A 
HETATM    5  C4  UNL     1      27.065   6.549  48.223  1.00  0.00    -0.068 A 
HETATM    6  C5  UNL     1      26.975   7.574  47.440  1.00  0.00    -0.018 C 
HETATM    7  C6  UNL     1      28.191   8.342  47.247  1.00  0.00     0.070 C 
HETATM    8  C7  UNL     1      28.661   8.580  45.900  1.00  0.00    -0.011 C 
HETATM    9  C14 UNL     1      29.637   8.489  44.947  1.00  0.00     0.073 C 
HETATM   10  C15 UNL     1      31.001   7.987  44.711  1.00  0.00     0.037 C 
HETATM   11  C16 UNL     1      32.067   7.353  45.139  1.00  0.00     0.002 C 
HETATM   12  C17 UNL     1      32.961   6.615  45.996  1.00  0.00    -0.004 C 
HETATM   13  C18 UNL     1      32.823   6.148  47.201  1.00  0.00    -0.027 C 
HETATM   14  C19 UNL     1      31.486   6.492  47.677  1.00  0.00     0.027 C 
HETATM   15  C20 UNL     1      30.684   5.208  47.727  1.00  0.00     0.005 C 
HETATM   16  C21 UNL     1      29.280   5.405  48.207  1.00  0.00    -0.018 C 
HETATM   17  C22 UNL     1      28.005   5.524  48.695  1.00  0.00     0.055 A 
ENDROOT
BRANCH   3  18
HETATM   18  C23 UNL     1      26.358   3.719  50.135  1.00  0.00     0.235 C 
HETATM   19  N2  UNL     1      27.147   3.196  51.183  1.00  0.00    -0.268 NA
HETATM   20  H21 UNL     1      26.945   3.483  52.184  1.00  0.00     0.127 HD
HETATM   21  H22 UNL     1      26.991   3.446  52.189  1.00  0.00     0.127 HD
HETATM   22  O2  UNL     1      26.825   2.577  49.791  1.00  0.00    -0.274 OA
ENDBRANCH   3  18
BRANCH   8  23
HETATM   23  C8  UNL     1      27.424   9.143  45.307  1.00  0.00    -0.027 A 
HETATM   24  C9  UNL     1      26.533   8.609  44.430  1.00  0.00     0.012 A 
HETATM   25  C10 UNL     1      25.427   9.255  43.926  1.00  0.00     0.001 A 
HETATM   26  C11 UNL     1      25.176  10.565  44.328  1.00  0.00     0.000 A 
HETATM   27  C12 UNL     1      26.045  11.155  45.213  1.00  0.00     0.001 A 
HETATM   28  C13 UNL     1      27.141  10.454  45.687  1.00  0.00     0.012 A 
ENDBRANCH   8  23
BRANCH   9  29
HETATM   29  O1  UNL     1      29.192   9.075  43.724  1.00  0.00    -0.360 OA
HETATM   30  H10 UNL     1      29.771   8.901  42.913  1.00  0.00     0.217 HD
ENDBRANCH   9  29
TORSDOF 3
ENDMDL
MODEL 8
REMARK VINA RESULT:      -7.6      2.331      5.778
REMARK  3 active torsions:
REMARK  status: ('A' for Active; 'I' for Inactive)
REMARK    1  A    between atoms: C2_3  and  C23_25 
REMARK    2  A    between atoms: C7_8  and  C8_9 
REMARK    3  A    between atoms: C14_15  and  O1_16 
REMARK       I    between atoms: C23_25  and  N2_26 
ROOT
HETATM    1  N1  UNL     1      27.220   4.047  49.302  1.00  0.00    -0.191 NA
HETATM    2  C1  UNL     1      26.122   4.318  49.432  1.00  0.00     0.101 C 
HETATM    3  C2  UNL     1      24.736   4.644  49.617  1.00  0.00     0.093 C 
HETATM    4  C3  UNL     1      23.688   4.251  50.264  1.00  0.00     0.072 A 
HETATM    5  C4  UNL     1      22.544   3.753  51.026  1.00  0.00    -0.068 A 
HETATM    6  C5  UNL     1      22.217   2.826  51.867  1.00  0.00    -0.018 C 
HETATM    7  C6  UNL     1      20.843   2.839  52.333  1.00  0.00     0.070 C 
HETATM    8  C7  UNL     1      20.047   1.640  52.195  1.00  0.00    -0.011 C 
HETATM    9  C14 UNL     1      18.935   0.997  51.727  1.00  0.00     0.073 C 
HETATM   10  C15 UNL     1      17.709   1.200  50.936  1.00  0.00     0.037 C 
HETATM   11  C16 UNL     1      16.944   1.981  50.211  1.00  0.00     0.002 C 
HETATM   12  C17 UNL     1      16.458   3.142  49.508  1.00  0.00    -0.004 C 
HETATM   13  C18 UNL     1      16.963   4.326  49.333  1.00  0.00    -0.027 C 
HETATM   14  C19 UNL     1      18.252   4.383  50.016  1.00  0.00     0.027 C 
HETATM   15  C20 UNL     1      19.324   4.419  48.947  1.00  0.00     0.005 C 
HETATM   16  C21 UNL     1      20.713   4.483  49.502  1.00  0.00    -0.018 C 
HETATM   17  C22 UNL     1      21.999   4.602  49.959  1.00  0.00     0.055 A 
ENDROOT
BRANCH   3  18
HETATM   18  C23 UNL     1      24.298   5.824  48.837  1.00  0.00     0.235 C 
HETATM   19  N2  UNL     1      23.805   6.712  47.855  1.00  0.00    -0.268 NA
HETATM   20  H21 UNL     1      23.088   6.369  47.152  1.00  0.00     0.127 HD
HETATM   21  H22 UNL     1      23.097   6.426  47.137  1.00  0.00     0.127 HD
HETATM   22  O2  UNL     1      24.364   7.028  49.273  1.00  0.00    -0.274 OA
ENDBRANCH   3  18
BRANCH   8  23
HETATM   23  C8  UNL     1      20.956   0.668  52.850  1.00  0.00    -0.027 A 
HETATM   24  C9  UNL     1      21.903  -0.157  52.331  1.00  0.00     0.012 A 
HETATM   25  C10 UNL     1      22.668  -1.046  53.052  1.00  0.00     0.001 A 
HETATM   26  C11 UNL     1      22.477  -1.128  54.430  1.00  0.00     0.000 A 
HETATM   27  C12 UNL     1      21.532  -0.316  55.009  1.00  0.00     0.001 A 
HETATM   28  C13 UNL     1      20.793   0.559  54.231  1.00  0.00     0.012 A 
ENDBRANCH   8  23
BRANCH   9  29
HETATM   29  O1  UNL     1      18.951  -0.375  52.124  1.00  0.00    -0.360 OA
HETATM   30  H10 UNL     1      19.804  -0.881  51.929  1.00  0.00     0.217 HD
ENDBRANCH   9  29
TORSDOF 3
ENDMDL
MODEL 9
REMARK VINA RESULT:      -7.5      3.368      6.341
REMARK  3 active torsions:
REMARK  status: ('A' for Active; 'I' for Inactive)
REMARK    1  A    between atoms: C2_3  and  C23_25 
REMARK    2  A    between atoms: C7_8  and  C8_9 
REMARK    3  A    between atoms: C14_15  and  O1_16 
REMARK       I    between atoms: C23_25  and  N2_26 
ROOT
HETATM    1  N1  UNL     1      17.993   4.518  46.111  1.00  0.00    -0.191 NA
HETATM    2  C1  UNL     1      18.364   4.056  47.082  1.00  0.00     0.101 C 
HETATM    3  C2  UNL     1      18.849   3.492  48.311  1.00  0.00     0.093 C 
HETATM    4  C3  UNL     1      19.826   3.599  49.150  1.00  0.00     0.072 A 
HETATM    5  C4  UNL     1      20.959   3.775  50.056  1.00  0.00    -0.068 A 
HETATM    6  C5  UNL     1      22.033   4.481  50.206  1.00  0.00    -0.018 C 
HETATM    7  C6  UNL     1      22.816   4.211  51.398  1.00  0.00     0.070 C 
HETATM    8  C7  UNL     1      24.218   3.889  51.255  1.00  0.00    -0.011 C 
HETATM    9  C14 UNL     1      25.271   3.043  51.465  1.00  0.00     0.073 C 
HETATM   10  C15 UNL     1      25.629   1.736  52.041  1.00  0.00     0.037 C 
HETATM   11  C16 UNL     1      25.270   0.621  52.633  1.00  0.00     0.002 C 
HETATM   12  C17 UNL     1      24.450  -0.397  53.240  1.00  0.00    -0.004 C 
HETATM   13  C18 UNL     1      23.167  -0.483  53.425  1.00  0.00    -0.027 C 
HETATM   14  C19 UNL     1      22.542   0.723  52.889  1.00  0.00     0.027 C 
HETATM   15  C20 UNL     1      21.788   0.319  51.640  1.00  0.00     0.005 C 
HETATM   16  C21 UNL     1      21.085   1.461  50.975  1.00  0.00    -0.018 C 
HETATM   17  C22 UNL     1      20.377   2.462  50.363  1.00  0.00     0.055 A 
ENDROOT
BRANCH   3  18
HETATM   18  C23 UNL     1      17.975   2.428  48.857  1.00  0.00     0.235 C 
HETATM   19  N2  UNL     1      17.357   1.206  49.205  1.00  0.00    -0.268 NA
HETATM   20  H21 UNL     1      17.936   0.317  49.236  1.00  0.00     0.127 HD
HETATM   21  H22 UNL     1      17.881   0.299  49.251  1.00  0.00     0.127 HD
HETATM   22  O2  UNL     1      16.961   2.657  49.606  1.00  0.00    -0.274 OA
ENDBRANCH   3  18
BRANCH   8  23
HETATM   23  C8  UNL     1      24.650   5.042  50.430  1.00  0.00    -0.027 A 
HETATM   24  C9  UNL     1      25.121   5.100  49.156  1.00  0.00     0.012 A 
HETATM   25  C10 UNL     1      25.522   6.245  48.506  1.00  0.00     0.001 A 
HETATM   26  C11 UNL     1      25.452   7.460  49.185  1.00  0.00     0.000 A 
HETATM   27  C12 UNL     1      24.983   7.460  50.477  1.00  0.00     0.001 A 
HETATM   28  C13 UNL     1      24.593   6.276  51.078  1.00  0.00     0.012 A 
ENDBRANCH   8  23
BRANCH   9  29
HETATM   29  O1  UNL     1      26.470   3.601  50.925  1.00  0.00    -0.360 OA
HETATM   30  H10 UNL     1      26.757   4.490  51.311  1.00  0.00     0.217 HD
ENDBRANCH   9  29
TORSDOF 3
ENDMDL
