MODEL 1
REMARK VINA RESULT:      -9.0      0.000      0.000
REMARK  3 active torsions:
REMARK  status: ('A' for Active; 'I' for Inactive)
REMARK    1  A    between atoms: O1_2  and  C2_3 
REMARK    2  A    between atoms: C10_11  and  N1_12 
REMARK    3  A    between atoms: N1_12  and  C11_13 
ROOT
HETATM    1  C2  UNL     1      22.094  -1.284  54.115  1.00  0.00     0.068 A 
HETATM    2  C3  UNL     1      22.636  -1.623  55.338  1.00  0.00     0.039 A 
HETATM    3  C4  UNL     1      23.915  -1.285  55.726  1.00  0.00     0.040 A 
HETATM    4  C5  UNL     1      24.676  -0.563  54.816  1.00  0.00     0.084 A 
HETATM    5  C6  UNL     1      24.173  -0.204  53.584  1.00  0.00    -0.017 A 
HETATM    6  C7  UNL     1      22.887  -0.566  53.243  1.00  0.00     0.047 A 
HETATM    7  C8  UNL     1      24.929   0.556  52.586  1.00  0.00     0.088 A 
HETATM    8  C9  UNL     1      26.299   0.912  53.016  1.00  0.00     0.045 A 
HETATM    9  C10 UNL     1      27.106   1.625  52.162  1.00  0.00     0.140 A 
HETATM   10  N2  UNL     1      28.327   1.898  52.643  1.00  0.00    -0.224 NA
HETATM   11  C17 UNL     1      28.800   1.541  53.842  1.00  0.00     0.238 A 
HETATM   12  N3  UNL     1      27.978   0.844  54.646  1.00  0.00    -0.217 NA
HETATM   13  C18 UNL     1      26.742   0.523  54.256  1.00  0.00     0.181 A 
HETATM   14  O2  UNL     1      25.971  -0.196  55.154  1.00  0.00    -0.291 OA
ENDROOT
BRANCH   9  15
HETATM   15  N1  UNL     1      26.625   2.011  50.891  1.00  0.00    -0.340 N 
HETATM   16  H9  UNL     1      26.568   1.251  50.147  1.00  0.00     0.167 HD
BRANCH  15  17
HETATM   17  C11 UNL     1      26.193   3.277  50.427  1.00  0.00     0.035 A 
HETATM   18  C12 UNL     1      26.882   3.980  49.431  1.00  0.00     0.029 A 
HETATM   19  C13 UNL     1      26.459   5.208  48.984  1.00  0.00     0.004 A 
HETATM   20  C14 UNL     1      25.331   5.810  49.496  1.00  0.00     0.019 A 
HETATM   21  C15 UNL     1      24.622   5.169  50.467  1.00  0.00     0.013 A 
HETATM   22 BR1  UNL     1      23.071   6.003  51.167  1.00  0.00    -0.051 Br
HETATM   23  C16 UNL     1      25.077   3.939  50.889  1.00  0.00     0.048 A 
ENDBRANCH  15  17
ENDBRANCH   9  15
BRANCH   1  24
HETATM   24  O1  UNL     1      20.806  -1.620  53.716  1.00  0.00    -0.356 OA
HETATM   25  C1  UNL     1      19.800  -0.676  53.467  1.00  0.00     0.210 C 
ENDBRANCH   1  24
TORSDOF 3
ENDMDL
MODEL 2
REMARK VINA RESULT:      -8.9      1.345      1.614
REMARK  3 active torsions:
REMARK  status: ('A' for Active; 'I' for Inactive)
REMARK    1  A    between atoms: O1_2  and  C2_3 
REMARK    2  A    between atoms: C10_11  and  N1_12 
REMARK    3  A    between atoms: N1_12  and  C11_13 
ROOT
HETATM    1  C2  UNL     1      20.674  -0.534  53.590  1.00  0.00     0.068 A 
HETATM    2  C3  UNL     1      21.291  -1.288  54.567  1.00  0.00     0.039 A 
HETATM    3  C4  UNL     1      22.649  -1.262  54.806  1.00  0.00     0.040 A 
HETATM    4  C5  UNL     1      23.411  -0.421  54.005  1.00  0.00     0.084 A 
HETATM    5  C6  UNL     1      22.833   0.348  53.018  1.00  0.00    -0.017 A 
HETATM    6  C7  UNL     1      21.470   0.286  52.818  1.00  0.00     0.047 A 
HETATM    7  C8  UNL     1      23.586   1.251  52.144  1.00  0.00     0.088 A 
HETATM    8  C9  UNL     1      25.041   1.269  52.413  1.00  0.00     0.045 A 
HETATM    9  C10 UNL     1      25.853   2.078  51.655  1.00  0.00     0.140 A 
HETATM   10  N2  UNL     1      27.154   2.024  51.975  1.00  0.00    -0.224 NA
HETATM   11  C17 UNL     1      27.698   1.271  52.937  1.00  0.00     0.238 A 
HETATM   12  N3  UNL     1      26.867   0.493  53.654  1.00  0.00    -0.217 NA
HETATM   13  C18 UNL     1      25.555   0.477  53.411  1.00  0.00     0.181 A 
HETATM   14  O2  UNL     1      24.783  -0.355  54.202  1.00  0.00    -0.291 OA
ENDROOT
BRANCH   9  15
HETATM   15  N1  UNL     1      25.297   2.881  50.634  1.00  0.00    -0.340 N 
HETATM   16  H9  UNL     1      24.358   2.572  50.237  1.00  0.00     0.167 HD
BRANCH  15  17
HETATM   17  C11 UNL     1      25.795   4.062  50.032  1.00  0.00     0.035 A 
HETATM   18  C12 UNL     1      26.912   4.053  49.188  1.00  0.00     0.029 A 
HETATM   19  C13 UNL     1      27.392   5.201  48.606  1.00  0.00     0.004 A 
HETATM   20  C14 UNL     1      26.793   6.422  48.825  1.00  0.00     0.019 A 
HETATM   21  C15 UNL     1      25.702   6.487  49.638  1.00  0.00     0.013 A 
HETATM   22 BR1  UNL     1      24.883   8.171  49.935  1.00  0.00    -0.051 Br
HETATM   23  C16 UNL     1      25.250   5.315  50.203  1.00  0.00     0.048 A 
ENDBRANCH  15  17
ENDBRANCH   9  15
BRANCH   1  24
HETATM   24  O1  UNL     1      19.307  -0.555  53.341  1.00  0.00    -0.356 OA
HETATM   25  C1  UNL     1      18.732  -0.147  52.129  1.00  0.00     0.210 C 
ENDBRANCH   1  24
TORSDOF 3
ENDMDL
MODEL 3
REMARK VINA RESULT:      -8.3      3.314      5.229
REMARK  3 active torsions:
REMARK  status: ('A' for Active; 'I' for Inactive)
REMARK    1  A    between atoms: O1_2  and  C2_3 
REMARK    2  A    between atoms: C10_11  and  N1_12 
REMARK    3  A    between atoms: N1_12  and  C11_13 
ROOT
HETATM    1  C2  UNL     1      27.009  -0.252  53.640  1.00  0.00     0.068 A 
HETATM    2  C3  UNL     1      25.684  -0.556  53.878  1.00  0.00     0.039 A 
HETATM    3  C4  UNL     1      24.631   0.081  53.256  1.00  0.00     0.040 A 
HETATM    4  C5  UNL     1      24.952   1.077  52.343  1.00  0.00     0.084 A 
HETATM    5  C6  UNL     1      26.263   1.412  52.076  1.00  0.00    -0.017 A 
HETATM    6  C7  UNL     1      27.280   0.745  52.726  1.00  0.00     0.047 A 
HETATM    7  C8  UNL     1      26.660   2.453  51.125  1.00  0.00     0.088 A 
HETATM    8  C9  UNL     1      25.520   3.127  50.465  1.00  0.00     0.045 A 
HETATM    9  C10 UNL     1      25.768   4.123  49.552  1.00  0.00     0.140 A 
HETATM   10  N2  UNL     1      24.671   4.671  49.010  1.00  0.00    -0.224 NA
HETATM   11  C17 UNL     1      23.405   4.334  49.280  1.00  0.00     0.238 A 
HETATM   12  N3  UNL     1      23.208   3.355  50.180  1.00  0.00    -0.217 NA
HETATM   13  C18 UNL     1      24.237   2.748  50.776  1.00  0.00     0.181 A 
HETATM   14  O2  UNL     1      23.932   1.751  51.687  1.00  0.00    -0.291 OA
ENDROOT
BRANCH   9  15
HETATM   15  N1  UNL     1      27.098   4.493  49.253  1.00  0.00    -0.340 N 
HETATM   16  H9  UNL     1      27.867   3.845  49.601  1.00  0.00     0.167 HD
BRANCH  15  17
HETATM   17  C11 UNL     1      27.593   5.616  48.547  1.00  0.00     0.035 A 
HETATM   18  C12 UNL     1      26.770   6.689  48.183  1.00  0.00     0.029 A 
HETATM   19  C13 UNL     1      27.255   7.777  47.498  1.00  0.00     0.004 A 
HETATM   20  C14 UNL     1      28.580   7.866  47.135  1.00  0.00     0.019 A 
HETATM   21  C15 UNL     1      29.426   6.849  47.465  1.00  0.00     0.013 A 
HETATM   22 BR1  UNL     1      31.248   6.978  46.963  1.00  0.00    -0.051 Br
HETATM   23  C16 UNL     1      28.903   5.776  48.152  1.00  0.00     0.048 A 
ENDBRANCH  15  17
ENDBRANCH   9  15
BRANCH   1  24
HETATM   24  O1  UNL     1      28.076  -0.888  54.263  1.00  0.00    -0.356 OA
HETATM   25  C1  UNL     1      29.386  -0.874  53.763  1.00  0.00     0.210 C 
ENDBRANCH   1  24
TORSDOF 3
ENDMDL
MODEL 4
REMARK VINA RESULT:      -8.2      3.102      5.092
REMARK  3 active torsions:
REMARK  status: ('A' for Active; 'I' for Inactive)
REMARK    1  A    between atoms: O1_2  and  C2_3 
REMARK    2  A    between atoms: C10_11  and  N1_12 
REMARK    3  A    between atoms: N1_12  and  C11_13 
ROOT
HETATM    1  C2  UNL     1      26.344   0.563  54.318  1.00  0.00     0.068 A 
HETATM    2  C3  UNL     1      25.527  -0.528  54.101  1.00  0.00     0.039 A 
HETATM    3  C4  UNL     1      24.289  -0.446  53.500  1.00  0.00     0.040 A 
HETATM    4  C5  UNL     1      23.867   0.816  53.102  1.00  0.00     0.084 A 
HETATM    5  C6  UNL     1      24.652   1.931  53.301  1.00  0.00    -0.017 A 
HETATM    6  C7  UNL     1      25.884   1.796  53.906  1.00  0.00     0.047 A 
HETATM    7  C8  UNL     1      24.260   3.285  52.902  1.00  0.00     0.088 A 
HETATM    8  C9  UNL     1      22.929   3.358  52.259  1.00  0.00     0.045 A 
HETATM    9  C10 UNL     1      22.452   4.577  51.842  1.00  0.00     0.140 A 
HETATM   10  N2  UNL     1      21.239   4.537  51.272  1.00  0.00    -0.224 NA
HETATM   11  C17 UNL     1      20.490   3.445  51.087  1.00  0.00     0.238 A 
HETATM   12  N3  UNL     1      20.995   2.273  51.510  1.00  0.00    -0.217 NA
HETATM   13  C18 UNL     1      22.195   2.209  52.091  1.00  0.00     0.181 A 
HETATM   14  O2  UNL     1      22.629   0.957  52.492  1.00  0.00    -0.291 OA
ENDROOT
BRANCH   9  15
HETATM   15  N1  UNL     1      23.229   5.742  52.029  1.00  0.00    -0.340 N 
HETATM   16  H9  UNL     1      23.197   6.191  52.994  1.00  0.00     0.167 HD
BRANCH  15  17
HETATM   17  C11 UNL     1      24.065   6.433  51.120  1.00  0.00     0.035 A 
HETATM   18  C12 UNL     1      23.917   7.802  50.864  1.00  0.00     0.029 A 
HETATM   19  C13 UNL     1      24.732   8.468  49.981  1.00  0.00     0.004 A 
HETATM   20  C14 UNL     1      25.740   7.819  49.302  1.00  0.00     0.019 A 
HETATM   21  C15 UNL     1      25.928   6.486  49.515  1.00  0.00     0.013 A 
HETATM   22 BR1  UNL     1      27.315   5.599  48.577  1.00  0.00    -0.051 Br
HETATM   23  C16 UNL     1      25.091   5.853  50.407  1.00  0.00     0.048 A 
ENDBRANCH  15  17
ENDBRANCH   9  15
BRANCH   1  24
HETATM   24  O1  UNL     1      27.593   0.489  54.923  1.00  0.00    -0.356 OA
HETATM   25  C1  UNL     1      28.802   0.569  54.217  1.00  0.00     0.210 C 
ENDBRANCH   1  24
TORSDOF 3
ENDMDL
MODEL 5
REMARK VINA RESULT:      -8.1      3.836      8.131
REMARK  3 active torsions:
REMARK  status: ('A' for Active; 'I' for Inactive)
REMARK    1  A    between atoms: O1_2  and  C2_3 
REMARK    2  A    between atoms: C10_11  and  N1_12 
REMARK    3  A    between atoms: N1_12  and  C11_13 
ROOT
HETATM    1  C2  UNL     1      28.309   5.451  48.388  1.00  0.00     0.068 A 
HETATM    2  C3  UNL     1      27.886   6.764  48.401  1.00  0.00     0.039 A 
HETATM    3  C4  UNL     1      26.656   7.165  48.878  1.00  0.00     0.040 A 
HETATM    4  C5  UNL     1      25.819   6.170  49.366  1.00  0.00     0.084 A 
HETATM    5  C6  UNL     1      26.202   4.846  49.371  1.00  0.00    -0.017 A 
HETATM    6  C7  UNL     1      27.444   4.497  48.883  1.00  0.00     0.047 A 
HETATM    7  C8  UNL     1      25.362   3.757  49.872  1.00  0.00     0.088 A 
HETATM    8  C9  UNL     1      24.046   4.201  50.381  1.00  0.00     0.045 A 
HETATM    9  C10 UNL     1      23.168   3.268  50.878  1.00  0.00     0.140 A 
HETATM   10  N2  UNL     1      22.004   3.769  51.314  1.00  0.00    -0.224 NA
HETATM   11  C17 UNL     1      21.647   5.058  51.301  1.00  0.00     0.238 A 
HETATM   12  N3  UNL     1      22.536   5.938  50.807  1.00  0.00    -0.217 NA
HETATM   13  C18 UNL     1      23.723   5.536  50.347  1.00  0.00     0.181 A 
HETATM   14  O2  UNL     1      24.569   6.517  49.859  1.00  0.00    -0.291 OA
ENDROOT
BRANCH   9  15
HETATM   15  N1  UNL     1      23.527   1.901  50.898  1.00  0.00    -0.340 N 
HETATM   16  H9  UNL     1      23.478   1.377  49.973  1.00  0.00     0.167 HD
BRANCH  15  17
HETATM   17  C11 UNL     1      23.952   1.088  51.977  1.00  0.00     0.035 A 
HETATM   18  C12 UNL     1      23.049   0.359  52.761  1.00  0.00     0.029 A 
HETATM   19  C13 UNL     1      23.467  -0.428  53.806  1.00  0.00     0.004 A 
HETATM   20  C14 UNL     1      24.800  -0.540  54.135  1.00  0.00     0.019 A 
HETATM   21  C15 UNL     1      25.721   0.148  53.404  1.00  0.00     0.013 A 
HETATM   22 BR1  UNL     1      27.553  -0.010  53.862  1.00  0.00    -0.051 Br
HETATM   23  C16 UNL     1      25.264   0.927  52.364  1.00  0.00     0.048 A 
ENDBRANCH  15  17
ENDBRANCH   9  15
BRANCH   1  24
HETATM   24  O1  UNL     1      29.547   5.038  47.909  1.00  0.00    -0.356 OA
HETATM   25  C1  UNL     1      30.758   5.647  48.266  1.00  0.00     0.210 C 
ENDBRANCH   1  24
TORSDOF 3
ENDMDL
MODEL 6
REMARK VINA RESULT:      -8.1      3.856      6.892
REMARK  3 active torsions:
REMARK  status: ('A' for Active; 'I' for Inactive)
REMARK    1  A    between atoms: O1_2  and  C2_3 
REMARK    2  A    between atoms: C10_11  and  N1_12 
REMARK    3  A    between atoms: N1_12  and  C11_13 
ROOT
HETATM    1  C2  UNL     1      27.536  -0.298  53.624  1.00  0.00     0.068 A 
HETATM    2  C3  UNL     1      28.044   0.984  53.682  1.00  0.00     0.039 A 
HETATM    3  C4  UNL     1      27.285   2.116  53.472  1.00  0.00     0.040 A 
HETATM    4  C5  UNL     1      25.938   1.924  53.191  1.00  0.00     0.084 A 
HETATM    5  C6  UNL     1      25.391   0.660  53.125  1.00  0.00    -0.017 A 
HETATM    6  C7  UNL     1      26.194  -0.440  53.342  1.00  0.00     0.047 A 
HETATM    7  C8  UNL     1      23.980   0.398  52.832  1.00  0.00     0.088 A 
HETATM    8  C9  UNL     1      23.177   1.621  52.610  1.00  0.00     0.045 A 
HETATM    9  C10 UNL     1      21.838   1.502  52.327  1.00  0.00     0.140 A 
HETATM   10  N2  UNL     1      21.199   2.666  52.142  1.00  0.00    -0.224 NA
HETATM   11  C17 UNL     1      21.746   3.884  52.210  1.00  0.00     0.238 A 
HETATM   12  N3  UNL     1      23.059   3.955  52.490  1.00  0.00    -0.217 NA
HETATM   13  C18 UNL     1      23.783   2.851  52.689  1.00  0.00     0.181 A 
HETATM   14  O2  UNL     1      25.126   3.027  52.972  1.00  0.00    -0.291 OA
ENDROOT
BRANCH   9  15
HETATM   15  N1  UNL     1      21.242   0.223  52.250  1.00  0.00    -0.340 N 
HETATM   16  H9  UNL     1      21.901  -0.611  52.175  1.00  0.00     0.167 HD
BRANCH  15  17
HETATM   17  C11 UNL     1      19.875  -0.146  52.256  1.00  0.00     0.035 A 
HETATM   18  C12 UNL     1      19.295  -0.836  53.327  1.00  0.00     0.029 A 
HETATM   19  C13 UNL     1      17.968  -1.191  53.328  1.00  0.00     0.004 A 
HETATM   20  C14 UNL     1      17.140  -0.884  52.271  1.00  0.00     0.019 A 
HETATM   21  C15 UNL     1      17.654  -0.212  51.202  1.00  0.00     0.013 A 
HETATM   22 BR1  UNL     1      16.510   0.207  49.751  1.00  0.00    -0.051 Br
HETATM   23  C16 UNL     1      18.989   0.126  51.238  1.00  0.00     0.048 A 
ENDBRANCH  15  17
ENDBRANCH   9  15
BRANCH   1  24
HETATM   24  O1  UNL     1      28.294  -1.443  53.834  1.00  0.00    -0.356 OA
HETATM   25  C1  UNL     1      29.645  -1.555  53.476  1.00  0.00     0.210 C 
ENDBRANCH   1  24
TORSDOF 3
ENDMDL
MODEL 7
REMARK VINA RESULT:      -7.7      3.076      6.780
REMARK  3 active torsions:
REMARK  status: ('A' for Active; 'I' for Inactive)
REMARK    1  A    between atoms: O1_2  and  C2_3 
REMARK    2  A    between atoms: C10_11  and  N1_12 
REMARK    3  A    between atoms: N1_12  and  C11_13 
ROOT
HETATM    1  C2  UNL     1      25.000   5.642  49.465  1.00  0.00     0.068 A 
HETATM    2  C3  UNL     1      26.239   5.258  48.994  1.00  0.00     0.039 A 
HETATM    3  C4  UNL     1      26.871   4.092  49.370  1.00  0.00     0.040 A 
HETATM    4  C5  UNL     1      26.198   3.278  50.273  1.00  0.00     0.084 A 
HETATM    5  C6  UNL     1      24.959   3.625  50.767  1.00  0.00    -0.017 A 
HETATM    6  C7  UNL     1      24.370   4.803  50.360  1.00  0.00     0.047 A 
HETATM    7  C8  UNL     1      24.205   2.807  51.720  1.00  0.00     0.088 A 
HETATM    8  C9  UNL     1      24.894   1.558  52.115  1.00  0.00     0.045 A 
HETATM    9  C10 UNL     1      24.284   0.708  53.006  1.00  0.00     0.140 A 
HETATM   10  N2  UNL     1      24.987  -0.394  53.299  1.00  0.00    -0.224 NA
HETATM   11  C17 UNL     1      26.190  -0.715  52.810  1.00  0.00     0.238 A 
HETATM   12  N3  UNL     1      26.751   0.144  51.941  1.00  0.00    -0.217 NA
HETATM   13  C18 UNL     1      26.129   1.271  51.586  1.00  0.00     0.181 A 
HETATM   14  O2  UNL     1      26.786   2.091  50.686  1.00  0.00    -0.291 OA
ENDROOT
BRANCH   9  15
HETATM   15  N1  UNL     1      23.014   1.031  53.534  1.00  0.00    -0.340 N 
HETATM   16  H9  UNL     1      22.983   1.785  54.285  1.00  0.00     0.167 HD
BRANCH  15  17
HETATM   17  C11 UNL     1      21.738   0.501  53.223  1.00  0.00     0.035 A 
HETATM   18  C12 UNL     1      21.120  -0.469  54.022  1.00  0.00     0.029 A 
HETATM   19  C13 UNL     1      19.882  -0.979  53.716  1.00  0.00     0.004 A 
HETATM   20  C14 UNL     1      19.185  -0.559  52.604  1.00  0.00     0.019 A 
HETATM   21  C15 UNL     1      19.741   0.384  51.793  1.00  0.00     0.013 A 
HETATM   22 BR1  UNL     1      18.777   0.957  50.266  1.00  0.00    -0.051 Br
HETATM   23  C16 UNL     1      20.983   0.872  52.132  1.00  0.00     0.048 A 
ENDBRANCH  15  17
ENDBRANCH   9  15
BRANCH   1  24
HETATM   24  O1  UNL     1      24.357   6.816  49.091  1.00  0.00    -0.356 OA
HETATM   25  C1  UNL     1      24.211   7.924  49.938  1.00  0.00     0.210 C 
ENDBRANCH   1  24
TORSDOF 3
ENDMDL
MODEL 8
REMARK VINA RESULT:      -7.5      3.251      5.262
REMARK  3 active torsions:
REMARK  status: ('A' for Active; 'I' for Inactive)
REMARK    1  A    between atoms: O1_2  and  C2_3 
REMARK    2  A    between atoms: C10_11  and  N1_12 
REMARK    3  A    between atoms: N1_12  and  C11_13 
ROOT
HETATM    1  C2  UNL     1      17.351   0.205  50.571  1.00  0.00     0.068 A 
HETATM    2  C3  UNL     1      16.751  -0.502  51.592  1.00  0.00     0.039 A 
HETATM    3  C4  UNL     1      17.433  -0.987  52.688  1.00  0.00     0.040 A 
HETATM    4  C5  UNL     1      18.797  -0.733  52.741  1.00  0.00     0.084 A 
HETATM    5  C6  UNL     1      19.436  -0.030  51.742  1.00  0.00    -0.017 A 
HETATM    6  C7  UNL     1      18.708   0.434  50.666  1.00  0.00     0.047 A 
HETATM    7  C8  UNL     1      20.870   0.267  51.744  1.00  0.00     0.088 A 
HETATM    8  C9  UNL     1      21.588  -0.259  52.926  1.00  0.00     0.045 A 
HETATM    9  C10 UNL     1      22.941  -0.043  53.039  1.00  0.00     0.140 A 
HETATM   10  N2  UNL     1      23.499  -0.558  54.144  1.00  0.00    -0.224 NA
HETATM   11  C17 UNL     1      22.864  -1.239  55.104  1.00  0.00     0.238 A 
HETATM   12  N3  UNL     1      21.541  -1.427  54.953  1.00  0.00    -0.217 NA
HETATM   13  C18 UNL     1      20.894  -0.953  53.886  1.00  0.00     0.181 A 
HETATM   14  O2  UNL     1      19.533  -1.198  53.821  1.00  0.00    -0.291 OA
ENDROOT
BRANCH   9  15
HETATM   15  N1  UNL     1      23.630   0.673  52.035  1.00  0.00    -0.340 N 
HETATM   16  H9  UNL     1      24.121   0.098  51.286  1.00  0.00     0.167 HD
BRANCH  15  17
HETATM   17  C11 UNL     1      23.779   2.069  51.853  1.00  0.00     0.035 A 
HETATM   18  C12 UNL     1      23.079   3.000  52.630  1.00  0.00     0.029 A 
HETATM   19  C13 UNL     1      23.228   4.354  52.451  1.00  0.00     0.004 A 
HETATM   20  C14 UNL     1      24.078   4.863  51.494  1.00  0.00     0.019 A 
HETATM   21  C15 UNL     1      24.784   4.001  50.710  1.00  0.00     0.013 A 
HETATM   22 BR1  UNL     1      25.950   4.708  49.395  1.00  0.00    -0.051 Br
HETATM   23  C16 UNL     1      24.608   2.651  50.920  1.00  0.00     0.048 A 
ENDBRANCH  15  17
ENDBRANCH   9  15
BRANCH   1  24
HETATM   24  O1  UNL     1      16.672   0.697  49.463  1.00  0.00    -0.356 OA
HETATM   25  C1  UNL     1      16.190   2.010  49.369  1.00  0.00     0.210 C 
ENDBRANCH   1  24
TORSDOF 3
ENDMDL
MODEL 9
REMARK VINA RESULT:      -7.5      3.887      7.523
REMARK  3 active torsions:
REMARK  status: ('A' for Active; 'I' for Inactive)
REMARK    1  A    between atoms: O1_2  and  C2_3 
REMARK    2  A    between atoms: C10_11  and  N1_12 
REMARK    3  A    between atoms: N1_12  and  C11_13 
ROOT
HETATM    1  C2  UNL     1      24.401   7.156  49.962  1.00  0.00     0.068 A 
HETATM    2  C3  UNL     1      23.198   7.793  50.183  1.00  0.00     0.039 A 
HETATM    3  C4  UNL     1      22.095   7.172  50.732  1.00  0.00     0.040 A 
HETATM    4  C5  UNL     1      22.235   5.832  51.072  1.00  0.00     0.084 A 
HETATM    5  C6  UNL     1      23.421   5.159  50.867  1.00  0.00    -0.017 A 
HETATM    6  C7  UNL     1      24.494   5.826  50.315  1.00  0.00     0.047 A 
HETATM    7  C8  UNL     1      23.625   3.749  51.205  1.00  0.00     0.088 A 
HETATM    8  C9  UNL     1      22.434   3.096  51.793  1.00  0.00     0.045 A 
HETATM    9  C10 UNL     1      22.505   1.771  52.151  1.00  0.00     0.140 A 
HETATM   10  N2  UNL     1      21.376   1.272  52.674  1.00  0.00    -0.224 NA
HETATM   11  C17 UNL     1      20.233   1.939  52.865  1.00  0.00     0.238 A 
HETATM   12  N3  UNL     1      20.208   3.233  52.501  1.00  0.00    -0.217 NA
HETATM   13  C18 UNL     1      21.282   3.822  51.970  1.00  0.00     0.181 A 
HETATM   14  O2  UNL     1      21.158   5.157  51.628  1.00  0.00    -0.291 OA
ENDROOT
BRANCH   9  15
HETATM   15  N1  UNL     1      23.703   1.048  51.956  1.00  0.00    -0.340 N 
HETATM   16  H9  UNL     1      23.852   0.614  50.995  1.00  0.00     0.167 HD
BRANCH  15  17
HETATM   17  C11 UNL     1      24.770   0.797  52.852  1.00  0.00     0.035 A 
HETATM   18  C12 UNL     1      24.716  -0.226  53.806  1.00  0.00     0.029 A 
HETATM   19  C13 UNL     1      25.754  -0.466  54.673  1.00  0.00     0.004 A 
HETATM   20  C14 UNL     1      26.904   0.291  54.645  1.00  0.00     0.019 A 
HETATM   21  C15 UNL     1      27.010   1.299  53.735  1.00  0.00     0.013 A 
HETATM   22 BR1  UNL     1      28.595   2.337  53.701  1.00  0.00    -0.051 Br
HETATM   23  C16 UNL     1      25.948   1.510  52.882  1.00  0.00     0.048 A 
ENDBRANCH  15  17
ENDBRANCH   9  15
BRANCH   1  24
HETATM   24  O1  UNL     1      25.517   7.774  49.409  1.00  0.00    -0.356 OA
HETATM   25  C1  UNL     1      26.658   7.079  48.984  1.00  0.00     0.210 C 
ENDBRANCH   1  24
TORSDOF 3
ENDMDL
