MODEL 1
REMARK VINA RESULT:      -8.3      0.000      0.000
REMARK  10 active torsions:
REMARK  status: ('A' for Active; 'I' for Inactive)
REMARK    1  A    between atoms: C2_2  and  N1_3 
REMARK    2  A    between atoms: N1_3  and  C4_5 
REMARK    3  A    between atoms: C4_5  and  C5_6 
REMARK    4  A    between atoms: C5_6  and  C6_7 
REMARK    5  A    between atoms: C6_7  and  N2_8 
REMARK    6  A    between atoms: C8_10  and  C9_11 
REMARK    7  A    between atoms: C12_16  and  C13_17 
REMARK    8  A    between atoms: C13_17  and  N5_18 
REMARK    9  A    between atoms: N5_18  and  C14_19 
REMARK   10  A    between atoms: C18_23  and  C19_24 
ROOT
HETATM    1  C9  UNL     1      27.402   1.136  52.999  1.00  0.00     0.043 A 
HETATM    2  C10 UNL     1      28.620   1.586  53.458  1.00  0.00     0.134 A 
HETATM    3  N3  UNL     1      29.526   0.860  54.077  1.00  0.00    -0.253 NA
HETATM    4  C11 UNL     1      29.300  -0.430  54.308  1.00  0.00     0.232 A 
HETATM    5  N4  UNL     1      28.125  -0.879  53.870  1.00  0.00    -0.244 NA
HETATM    6  C12 UNL     1      27.180  -0.182  53.240  1.00  0.00     0.068 A 
ENDROOT
BRANCH   1   7
HETATM    7  C8  UNL     1      26.510   2.069  52.388  1.00  0.00     0.098 C 
HETATM    8  C7  UNL     1      26.385   2.602  51.212  1.00  0.00     0.131 C 
HETATM    9  N2  UNL     1      25.428   3.524  50.743  1.00  0.00    -0.324 N 
HETATM   10  C23 UNL     1      24.400   3.988  51.653  1.00  0.00     0.248 C 
HETATM   11  C22 UNL     1      24.208   2.945  52.728  1.00  0.00     0.279 C 
HETATM   12  O2  UNL     1      23.807   5.086  51.518  1.00  0.00    -0.271 OA
HETATM   13  O1  UNL     1      25.502   2.569  53.193  1.00  0.00    -0.340 OA
BRANCH   9  14
HETATM   14  C6  UNL     1      25.378   4.073  49.418  1.00  0.00     0.133 C 
BRANCH  14  15
HETATM   15  C5  UNL     1      26.726   4.674  49.004  1.00  0.00     0.040 C 
BRANCH  15  16
HETATM   16  C4  UNL     1      26.603   6.169  48.881  1.00  0.00     0.123 C 
BRANCH  16  17
HETATM   17  N1  UNL     1      27.885   6.817  48.565  1.00  0.00    -0.395 N 
HETATM   18  C3  UNL     1      28.061   8.258  48.815  1.00  0.00     0.148 C 
BRANCH  17  19
HETATM   19  C2  UNL     1      28.953   6.057  48.031  1.00  0.00     0.075 C 
HETATM   20  C1  UNL     1      30.237   5.628  47.982  1.00  0.00     0.029 C 
ENDBRANCH  17  19
ENDBRANCH  16  17
ENDBRANCH  15  16
ENDBRANCH  14  15
ENDBRANCH   9  14
ENDBRANCH   1   7
BRANCH   6  21
HETATM   21  C13 UNL     1      25.955  -0.901  52.861  1.00  0.00     0.180 C 
BRANCH  21  22
HETATM   22  N5  UNL     1      24.852  -0.508  53.700  1.00  0.00    -0.384 N 
HETATM   23  H18 UNL     1      25.185  -0.002  54.559  1.00  0.00     0.160 HD
BRANCH  22  24
HETATM   24  C14 UNL     1      23.443  -0.589  53.708  1.00  0.00     0.028 A 
HETATM   25  C15 UNL     1      22.707  -1.150  54.754  1.00  0.00     0.029 A 
HETATM   26  C16 UNL     1      21.348  -1.217  54.735  1.00  0.00     0.003 A 
HETATM   27  C17 UNL     1      20.660  -0.715  53.654  1.00  0.00     0.007 A 
HETATM   28  C18 UNL     1      21.284  -0.138  52.569  1.00  0.00    -0.056 A 
HETATM   29  C21 UNL     1      22.678  -0.114  52.676  1.00  0.00     0.036 A 
BRANCH  28  30
HETATM   30  C19 UNL     1      20.479   0.362  51.451  1.00  0.00     0.034 C 
HETATM   31  C20 UNL     1      21.377   0.738  50.294  1.00  0.00     0.010 C 
ENDBRANCH  28  30
ENDBRANCH  22  24
ENDBRANCH  21  22
ENDBRANCH   6  21
TORSDOF 10
ENDMDL
MODEL 2
REMARK VINA RESULT:      -8.2      1.938      2.744
REMARK  10 active torsions:
REMARK  status: ('A' for Active; 'I' for Inactive)
REMARK    1  A    between atoms: C2_2  and  N1_3 
REMARK    2  A    between atoms: N1_3  and  C4_5 
REMARK    3  A    between atoms: C4_5  and  C5_6 
REMARK    4  A    between atoms: C5_6  and  C6_7 
REMARK    5  A    between atoms: C6_7  and  N2_8 
REMARK    6  A    between atoms: C8_10  and  C9_11 
REMARK    7  A    between atoms: C12_16  and  C13_17 
REMARK    8  A    between atoms: C13_17  and  N5_18 
REMARK    9  A    between atoms: N5_18  and  C14_19 
REMARK   10  A    between atoms: C18_23  and  C19_24 
ROOT
HETATM    1  C9  UNL     1      27.118   1.441  53.051  1.00  0.00     0.043 A 
HETATM    2  C10 UNL     1      28.193   2.097  53.608  1.00  0.00     0.134 A 
HETATM    3  N3  UNL     1      29.039   1.588  54.479  1.00  0.00    -0.253 NA
HETATM    4  C11 UNL     1      28.891   0.334  54.895  1.00  0.00     0.232 A 
HETATM    5  N4  UNL     1      27.854  -0.312  54.365  1.00  0.00    -0.244 NA
HETATM    6  C12 UNL     1      26.975   0.162  53.483  1.00  0.00     0.068 A 
ENDROOT
BRANCH   1   7
HETATM    7  C8  UNL     1      26.266   2.155  52.155  1.00  0.00     0.098 C 
HETATM    8  C7  UNL     1      25.058   2.627  52.199  1.00  0.00     0.131 C 
HETATM    9  N2  UNL     1      24.336   3.333  51.216  1.00  0.00    -0.324 N 
HETATM   10  C23 UNL     1      24.974   3.610  49.944  1.00  0.00     0.248 C 
HETATM   11  C22 UNL     1      26.470   3.613  50.152  1.00  0.00     0.279 C 
HETATM   12  O2  UNL     1      24.335   3.805  48.882  1.00  0.00    -0.271 OA
HETATM   13  O1  UNL     1      26.797   2.454  50.913  1.00  0.00    -0.340 OA
BRANCH   9  14
HETATM   14  C6  UNL     1      22.988   3.806  51.350  1.00  0.00     0.133 C 
BRANCH  14  15
HETATM   15  C5  UNL     1      22.942   5.213  51.957  1.00  0.00     0.040 C 
BRANCH  15  16
HETATM   16  C4  UNL     1      22.079   6.109  51.107  1.00  0.00     0.123 C 
BRANCH  16  17
HETATM   17  N1  UNL     1      22.832   7.231  50.527  1.00  0.00    -0.395 N 
HETATM   18  C3  UNL     1      22.134   8.240  49.712  1.00  0.00     0.148 C 
BRANCH  17  19
HETATM   19  C2  UNL     1      24.223   7.351  50.759  1.00  0.00     0.075 C 
HETATM   20  C1  UNL     1      25.528   7.272  50.405  1.00  0.00     0.029 C 
ENDBRANCH  17  19
ENDBRANCH  16  17
ENDBRANCH  15  16
ENDBRANCH  14  15
ENDBRANCH   9  14
ENDBRANCH   1   7
BRANCH   6  21
HETATM   21  C13 UNL     1      25.902  -0.747  53.050  1.00  0.00     0.180 C 
BRANCH  21  22
HETATM   22  N5  UNL     1      24.749  -0.617  53.902  1.00  0.00    -0.384 N 
HETATM   23  H18 UNL     1      25.027  -0.473  54.905  1.00  0.00     0.160 HD
BRANCH  22  24
HETATM   24  C14 UNL     1      23.341  -0.611  53.790  1.00  0.00     0.028 A 
HETATM   25  C15 UNL     1      22.490  -1.240  54.703  1.00  0.00     0.029 A 
HETATM   26  C16 UNL     1      21.137  -1.220  54.569  1.00  0.00     0.003 A 
HETATM   27  C17 UNL     1      20.570  -0.560  53.504  1.00  0.00     0.007 A 
HETATM   28  C18 UNL     1      21.313   0.096  52.546  1.00  0.00    -0.056 A 
HETATM   29  C21 UNL     1      22.692   0.022  52.764  1.00  0.00     0.036 A 
BRANCH  28  30
HETATM   30  C19 UNL     1      20.633   0.767  51.434  1.00  0.00     0.034 C 
HETATM   31  C20 UNL     1      21.468   0.663  50.178  1.00  0.00     0.010 C 
ENDBRANCH  28  30
ENDBRANCH  22  24
ENDBRANCH  21  22
ENDBRANCH   6  21
TORSDOF 10
ENDMDL
MODEL 3
REMARK VINA RESULT:      -8.1      2.082      3.670
REMARK  10 active torsions:
REMARK  status: ('A' for Active; 'I' for Inactive)
REMARK    1  A    between atoms: C2_2  and  N1_3 
REMARK    2  A    between atoms: N1_3  and  C4_5 
REMARK    3  A    between atoms: C4_5  and  C5_6 
REMARK    4  A    between atoms: C5_6  and  C6_7 
REMARK    5  A    between atoms: C6_7  and  N2_8 
REMARK    6  A    between atoms: C8_10  and  C9_11 
REMARK    7  A    between atoms: C12_16  and  C13_17 
REMARK    8  A    between atoms: C13_17  and  N5_18 
REMARK    9  A    between atoms: N5_18  and  C14_19 
REMARK   10  A    between atoms: C18_23  and  C19_24 
ROOT
HETATM    1  C9  UNL     1      27.108   1.495  53.027  1.00  0.00     0.043 A 
HETATM    2  C10 UNL     1      28.216   2.071  53.608  1.00  0.00     0.134 A 
HETATM    3  N3  UNL     1      29.010   1.498  54.488  1.00  0.00    -0.253 NA
HETATM    4  C11 UNL     1      28.770   0.254  54.889  1.00  0.00     0.232 A 
HETATM    5  N4  UNL     1      27.701  -0.315  54.335  1.00  0.00    -0.244 NA
HETATM    6  C12 UNL     1      26.871   0.225  53.444  1.00  0.00     0.068 A 
ENDROOT
BRANCH   1   7
HETATM    7  C8  UNL     1      26.322   2.274  52.124  1.00  0.00     0.098 C 
HETATM    8  C7  UNL     1      25.213   2.943  52.197  1.00  0.00     0.131 C 
HETATM    9  N2  UNL     1      24.547   3.685  51.201  1.00  0.00    -0.324 N 
HETATM   10  C23 UNL     1      25.131   3.757  49.876  1.00  0.00     0.248 C 
HETATM   11  C22 UNL     1      26.618   3.526  49.997  1.00  0.00     0.279 C 
HETATM   12  O2  UNL     1      24.458   3.978  48.839  1.00  0.00    -0.271 OA
HETATM   13  O1  UNL     1      26.806   2.387  50.833  1.00  0.00    -0.340 OA
BRANCH   9  14
HETATM   14  C6  UNL     1      23.307   4.386  51.372  1.00  0.00     0.133 C 
BRANCH  14  15
HETATM   15  C5  UNL     1      22.137   3.418  51.587  1.00  0.00     0.040 C 
BRANCH  15  16
HETATM   16  C4  UNL     1      20.912   3.932  50.876  1.00  0.00     0.123 C 
BRANCH  16  17
HETATM   17  N1  UNL     1      21.049   3.888  49.413  1.00  0.00    -0.395 N 
HETATM   18  C3  UNL     1      21.069   5.141  48.639  1.00  0.00     0.148 C 
BRANCH  17  19
HETATM   19  C2  UNL     1      21.173   2.645  48.746  1.00  0.00     0.075 C 
HETATM   20  C1  UNL     1      21.846   1.541  48.344  1.00  0.00     0.029 C 
ENDBRANCH  17  19
ENDBRANCH  16  17
ENDBRANCH  15  16
ENDBRANCH  14  15
ENDBRANCH   9  14
ENDBRANCH   1   7
BRANCH   6  21
HETATM   21  C13 UNL     1      25.746  -0.605  52.984  1.00  0.00     0.180 C 
BRANCH  21  22
HETATM   22  N5  UNL     1      24.605  -0.440  53.847  1.00  0.00    -0.384 N 
HETATM   23  H18 UNL     1      24.889  -0.089  54.796  1.00  0.00     0.160 HD
BRANCH  22  24
HETATM   24  C14 UNL     1      23.203  -0.598  53.795  1.00  0.00     0.028 A 
HETATM   25  C15 UNL     1      22.462  -1.255  54.780  1.00  0.00     0.029 A 
HETATM   26  C16 UNL     1      21.111  -1.395  54.703  1.00  0.00     0.003 A 
HETATM   27  C17 UNL     1      20.435  -0.873  53.624  1.00  0.00     0.007 A 
HETATM   28  C18 UNL     1      21.065  -0.205  52.596  1.00  0.00    -0.056 A 
HETATM   29  C21 UNL     1      22.450  -0.110  52.759  1.00  0.00     0.036 A 
BRANCH  28  30
HETATM   30  C19 UNL     1      20.275   0.312  51.475  1.00  0.00     0.034 C 
HETATM   31  C20 UNL     1      18.801   0.104  51.742  1.00  0.00     0.010 C 
ENDBRANCH  28  30
ENDBRANCH  22  24
ENDBRANCH  21  22
ENDBRANCH   6  21
TORSDOF 10
ENDMDL
MODEL 4
REMARK VINA RESULT:      -7.8      1.066      1.720
REMARK  10 active torsions:
REMARK  status: ('A' for Active; 'I' for Inactive)
REMARK    1  A    between atoms: C2_2  and  N1_3 
REMARK    2  A    between atoms: N1_3  and  C4_5 
REMARK    3  A    between atoms: C4_5  and  C5_6 
REMARK    4  A    between atoms: C5_6  and  C6_7 
REMARK    5  A    between atoms: C6_7  and  N2_8 
REMARK    6  A    between atoms: C8_10  and  C9_11 
REMARK    7  A    between atoms: C12_16  and  C13_17 
REMARK    8  A    between atoms: C13_17  and  N5_18 
REMARK    9  A    between atoms: N5_18  and  C14_19 
REMARK   10  A    between atoms: C18_23  and  C19_24 
ROOT
HETATM    1  C9  UNL     1      27.204   1.429  53.140  1.00  0.00     0.043 A 
HETATM    2  C10 UNL     1      28.326   1.944  53.749  1.00  0.00     0.134 A 
HETATM    3  N3  UNL     1      29.133   1.290  54.558  1.00  0.00    -0.253 NA
HETATM    4  C11 UNL     1      28.893   0.015  54.847  1.00  0.00     0.232 A 
HETATM    5  N4  UNL     1      27.811  -0.497  54.264  1.00  0.00    -0.244 NA
HETATM    6  C12 UNL     1      26.968   0.126  53.443  1.00  0.00     0.068 A 
ENDROOT
BRANCH   1   7
HETATM    7  C8  UNL     1      26.406   2.289  52.327  1.00  0.00     0.098 C 
HETATM    8  C7  UNL     1      26.510   2.808  51.142  1.00  0.00     0.131 C 
HETATM    9  N2  UNL     1      25.618   3.654  50.453  1.00  0.00    -0.324 N 
HETATM   10  C23 UNL     1      24.381   4.042  51.101  1.00  0.00     0.248 C 
HETATM   11  C22 UNL     1      24.029   2.989  52.126  1.00  0.00     0.279 C 
HETATM   12  O2  UNL     1      23.754   5.091  50.815  1.00  0.00    -0.271 OA
HETATM   13  O1  UNL     1      25.209   2.714  52.876  1.00  0.00    -0.340 OA
BRANCH   9  14
HETATM   14  C6  UNL     1      25.826   4.194  49.140  1.00  0.00     0.133 C 
BRANCH  14  15
HETATM   15  C5  UNL     1      27.123   5.008  49.063  1.00  0.00     0.040 C 
BRANCH  15  16
HETATM   16  C4  UNL     1      26.883   6.279  48.291  1.00  0.00     0.123 C 
BRANCH  16  17
HETATM   17  N1  UNL     1      25.845   7.122  48.902  1.00  0.00    -0.395 N 
HETATM   18  C3  UNL     1      26.084   7.746  50.215  1.00  0.00     0.148 C 
BRANCH  17  19
HETATM   19  C2  UNL     1      24.620   7.344  48.228  1.00  0.00     0.075 C 
HETATM   20  C1  UNL     1      23.703   7.109  47.259  1.00  0.00     0.029 C 
ENDBRANCH  17  19
ENDBRANCH  16  17
ENDBRANCH  15  16
ENDBRANCH  14  15
ENDBRANCH   9  14
ENDBRANCH   1   7
BRANCH   6  21
HETATM   21  C13 UNL     1      25.830  -0.653  52.930  1.00  0.00     0.180 C 
BRANCH  21  22
HETATM   22  N5  UNL     1      24.697  -0.541  53.812  1.00  0.00    -0.384 N 
HETATM   23  H18 UNL     1      24.999  -0.400  54.809  1.00  0.00     0.160 HD
BRANCH  22  24
HETATM   24  C14 UNL     1      23.287  -0.551  53.736  1.00  0.00     0.028 A 
HETATM   25  C15 UNL     1      22.461  -1.021  54.760  1.00  0.00     0.029 A 
HETATM   26  C16 UNL     1      21.104  -1.021  54.659  1.00  0.00     0.003 A 
HETATM   27  C17 UNL     1      20.510  -0.542  53.514  1.00  0.00     0.007 A 
HETATM   28  C18 UNL     1      21.227  -0.054  52.443  1.00  0.00    -0.056 A 
HETATM   29  C21 UNL     1      22.611  -0.093  52.636  1.00  0.00     0.036 A 
BRANCH  28  30
HETATM   30  C19 UNL     1      20.518   0.427  51.254  1.00  0.00     0.034 C 
HETATM   31  C20 UNL     1      19.036   0.159  51.391  1.00  0.00     0.010 C 
ENDBRANCH  28  30
ENDBRANCH  22  24
ENDBRANCH  21  22
ENDBRANCH   6  21
TORSDOF 10
ENDMDL
MODEL 5
REMARK VINA RESULT:      -7.7      2.508      6.486
REMARK  10 active torsions:
REMARK  status: ('A' for Active; 'I' for Inactive)
REMARK    1  A    between atoms: C2_2  and  N1_3 
REMARK    2  A    between atoms: N1_3  and  C4_5 
REMARK    3  A    between atoms: C4_5  and  C5_6 
REMARK    4  A    between atoms: C5_6  and  C6_7 
REMARK    5  A    between atoms: C6_7  and  N2_8 
REMARK    6  A    between atoms: C8_10  and  C9_11 
REMARK    7  A    between atoms: C12_16  and  C13_17 
REMARK    8  A    between atoms: C13_17  and  N5_18 
REMARK    9  A    between atoms: N5_18  and  C14_19 
REMARK   10  A    between atoms: C18_23  and  C19_24 
ROOT
HETATM    1  C9  UNL     1      26.104   5.747  49.189  1.00  0.00     0.043 A 
HETATM    2  C10 UNL     1      26.853   6.729  48.581  1.00  0.00     0.134 A 
HETATM    3  N3  UNL     1      28.073   6.584  48.108  1.00  0.00    -0.253 NA
HETATM    4  C11 UNL     1      28.686   5.408  48.197  1.00  0.00     0.232 A 
HETATM    5  N4  UNL     1      27.972   4.449  48.784  1.00  0.00    -0.244 NA
HETATM    6  C12 UNL     1      26.739   4.550  49.276  1.00  0.00     0.068 A 
ENDROOT
BRANCH   1   7
HETATM    7  C8  UNL     1      24.810   6.082  49.693  1.00  0.00     0.098 C 
HETATM    8  C7  UNL     1      23.803   5.424  50.178  1.00  0.00     0.131 C 
HETATM    9  N2  UNL     1      22.565   5.902  50.652  1.00  0.00    -0.324 N 
HETATM   10  C23 UNL     1      22.310   7.329  50.626  1.00  0.00     0.248 C 
HETATM   11  C22 UNL     1      23.637   8.050  50.657  1.00  0.00     0.279 C 
HETATM   12  O2  UNL     1      21.156   7.821  50.584  1.00  0.00    -0.271 OA
HETATM   13  O1  UNL     1      24.483   7.426  49.695  1.00  0.00    -0.340 OA
BRANCH   9  14
HETATM   14  C6  UNL     1      21.497   5.090  51.161  1.00  0.00     0.133 C 
BRANCH  14  15
HETATM   15  C5  UNL     1      21.966   4.202  52.320  1.00  0.00     0.040 C 
BRANCH  15  16
HETATM   16  C4  UNL     1      21.374   2.824  52.179  1.00  0.00     0.123 C 
BRANCH  16  17
HETATM   17  N1  UNL     1      22.347   1.842  51.677  1.00  0.00    -0.395 N 
HETATM   18  C3  UNL     1      23.091   0.995  52.625  1.00  0.00     0.148 C 
BRANCH  17  19
HETATM   19  C2  UNL     1      22.564   1.702  50.285  1.00  0.00     0.075 C 
HETATM   20  C1  UNL     1      22.524   2.121  48.998  1.00  0.00     0.029 C 
ENDBRANCH  17  19
ENDBRANCH  16  17
ENDBRANCH  15  16
ENDBRANCH  14  15
ENDBRANCH   9  14
ENDBRANCH   1   7
BRANCH   6  21
HETATM   21  C13 UNL     1      26.160   3.344  49.891  1.00  0.00     0.180 C 
BRANCH  21  22
HETATM   22  N5  UNL     1      26.642   3.177  51.237  1.00  0.00    -0.384 N 
HETATM   23  H18 UNL     1      26.632   4.085  51.765  1.00  0.00     0.160 HD
BRANCH  22  24
HETATM   24  C14 UNL     1      27.118   2.143  52.073  1.00  0.00     0.028 A 
HETATM   25  C15 UNL     1      28.026   2.348  53.115  1.00  0.00     0.029 A 
HETATM   26  C16 UNL     1      28.470   1.332  53.904  1.00  0.00     0.003 A 
HETATM   27  C17 UNL     1      28.015   0.053  53.682  1.00  0.00     0.007 A 
HETATM   28  C18 UNL     1      27.118  -0.262  52.684  1.00  0.00    -0.056 A 
HETATM   29  C21 UNL     1      26.719   0.841  51.925  1.00  0.00     0.036 A 
BRANCH  28  30
HETATM   30  C19 UNL     1      26.692  -1.653  52.506  1.00  0.00     0.034 C 
HETATM   31  C20 UNL     1      27.855  -2.587  52.754  1.00  0.00     0.010 C 
ENDBRANCH  28  30
ENDBRANCH  22  24
ENDBRANCH  21  22
ENDBRANCH   6  21
TORSDOF 10
ENDMDL
MODEL 6
REMARK VINA RESULT:      -7.6      3.142      6.502
REMARK  10 active torsions:
REMARK  status: ('A' for Active; 'I' for Inactive)
REMARK    1  A    between atoms: C2_2  and  N1_3 
REMARK    2  A    between atoms: N1_3  and  C4_5 
REMARK    3  A    between atoms: C4_5  and  C5_6 
REMARK    4  A    between atoms: C5_6  and  C6_7 
REMARK    5  A    between atoms: C6_7  and  N2_8 
REMARK    6  A    between atoms: C8_10  and  C9_11 
REMARK    7  A    between atoms: C12_16  and  C13_17 
REMARK    8  A    between atoms: C13_17  and  N5_18 
REMARK    9  A    between atoms: N5_18  and  C14_19 
REMARK   10  A    between atoms: C18_23  and  C19_24 
ROOT
HETATM    1  C9  UNL     1      25.662   5.661  48.966  1.00  0.00     0.043 A 
HETATM    2  C10 UNL     1      24.450   6.182  48.573  1.00  0.00     0.134 A 
HETATM    3  N3  UNL     1      23.299   5.541  48.576  1.00  0.00    -0.253 NA
HETATM    4  C11 UNL     1      23.244   4.277  48.984  1.00  0.00     0.232 A 
HETATM    5  N4  UNL     1      24.410   3.761  49.367  1.00  0.00    -0.244 NA
HETATM    6  C12 UNL     1      25.595   4.369  49.380  1.00  0.00     0.068 A 
ENDROOT
BRANCH   1   7
HETATM    7  C8  UNL     1      26.829   6.477  48.855  1.00  0.00     0.098 C 
HETATM    8  C7  UNL     1      27.955   6.406  48.214  1.00  0.00     0.131 C 
HETATM    9  N2  UNL     1      29.035   7.311  48.196  1.00  0.00    -0.324 N 
HETATM   10  C23 UNL     1      28.942   8.525  48.983  1.00  0.00     0.248 C 
HETATM   11  C22 UNL     1      27.481   8.853  49.183  1.00  0.00     0.279 C 
HETATM   12  O2  UNL     1      29.945   9.152  49.401  1.00  0.00    -0.271 OA
HETATM   13  O1  UNL     1      26.826   7.653  49.583  1.00  0.00    -0.340 OA
BRANCH   9  14
HETATM   14  C6  UNL     1      30.256   7.139  47.463  1.00  0.00     0.133 C 
BRANCH  14  15
HETATM   15  C5  UNL     1      30.867   5.754  47.702  1.00  0.00     0.040 C 
BRANCH  15  16
HETATM   16  C4  UNL     1      31.953   5.847  48.742  1.00  0.00     0.123 C 
BRANCH  16  17
HETATM   17  N1  UNL     1      33.177   5.137  48.344  1.00  0.00    -0.395 N 
HETATM   18  C3  UNL     1      34.495   5.683  48.708  1.00  0.00     0.148 C 
BRANCH  17  19
HETATM   19  C2  UNL     1      33.093   3.923  47.619  1.00  0.00     0.075 C 
HETATM   20  C1  UNL     1      33.035   2.575  47.504  1.00  0.00     0.029 C 
ENDBRANCH  17  19
ENDBRANCH  16  17
ENDBRANCH  15  16
ENDBRANCH  14  15
ENDBRANCH   9  14
ENDBRANCH   1   7
BRANCH   6  21
HETATM   21  C13 UNL     1      26.750   3.582  49.839  1.00  0.00     0.180 C 
BRANCH  21  22
HETATM   22  N5  UNL     1      26.574   3.169  51.207  1.00  0.00    -0.384 N 
HETATM   23  H18 UNL     1      26.337   3.984  51.827  1.00  0.00     0.160 HD
BRANCH  22  24
HETATM   24  C14 UNL     1      26.612   1.982  51.971  1.00  0.00     0.028 A 
HETATM   25  C15 UNL     1      25.557   1.068  52.032  1.00  0.00     0.029 A 
HETATM   26  C16 UNL     1      25.620  -0.068  52.778  1.00  0.00     0.003 A 
HETATM   27  C17 UNL     1      26.758  -0.341  53.502  1.00  0.00     0.007 A 
HETATM   28  C18 UNL     1      27.858   0.489  53.513  1.00  0.00    -0.056 A 
HETATM   29  C21 UNL     1      27.703   1.629  52.720  1.00  0.00     0.036 A 
BRANCH  28  30
HETATM   30  C19 UNL     1      29.028   0.131  54.320  1.00  0.00     0.034 C 
HETATM   31  C20 UNL     1      29.789  -0.996  53.658  1.00  0.00     0.010 C 
ENDBRANCH  28  30
ENDBRANCH  22  24
ENDBRANCH  21  22
ENDBRANCH   6  21
TORSDOF 10
ENDMDL
MODEL 7
REMARK VINA RESULT:      -7.5      2.269      6.870
REMARK  10 active torsions:
REMARK  status: ('A' for Active; 'I' for Inactive)
REMARK    1  A    between atoms: C2_2  and  N1_3 
REMARK    2  A    between atoms: N1_3  and  C4_5 
REMARK    3  A    between atoms: C4_5  and  C5_6 
REMARK    4  A    between atoms: C5_6  and  C6_7 
REMARK    5  A    between atoms: C6_7  and  N2_8 
REMARK    6  A    between atoms: C8_10  and  C9_11 
REMARK    7  A    between atoms: C12_16  and  C13_17 
REMARK    8  A    between atoms: C13_17  and  N5_18 
REMARK    9  A    between atoms: N5_18  and  C14_19 
REMARK   10  A    between atoms: C18_23  and  C19_24 
ROOT
HETATM    1  C9  UNL     1      26.217   5.803  49.117  1.00  0.00     0.043 A 
HETATM    2  C10 UNL     1      26.906   6.886  48.618  1.00  0.00     0.134 A 
HETATM    3  N3  UNL     1      28.138   6.868  48.155  1.00  0.00    -0.253 NA
HETATM    4  C11 UNL     1      28.827   5.731  48.143  1.00  0.00     0.232 A 
HETATM    5  N4  UNL     1      28.173   4.675  48.624  1.00  0.00    -0.244 NA
HETATM    6  C12 UNL     1      26.930   4.647  49.102  1.00  0.00     0.068 A 
ENDROOT
BRANCH   1   7
HETATM    7  C8  UNL     1      24.898   6.003  49.627  1.00  0.00     0.098 C 
HETATM    8  C7  UNL     1      23.910   5.237  49.975  1.00  0.00     0.131 C 
HETATM    9  N2  UNL     1      22.641   5.585  50.480  1.00  0.00    -0.324 N 
HETATM   10  C23 UNL     1      22.324   6.987  50.666  1.00  0.00     0.248 C 
HETATM   11  C22 UNL     1      23.616   7.748  50.848  1.00  0.00     0.279 C 
HETATM   12  O2  UNL     1      21.150   7.432  50.666  1.00  0.00    -0.271 OA
HETATM   13  O1  UNL     1      24.511   7.316  49.827  1.00  0.00    -0.340 OA
BRANCH   9  14
HETATM   14  C6  UNL     1      21.599   4.661  50.825  1.00  0.00     0.133 C 
BRANCH  14  15
HETATM   15  C5  UNL     1      22.079   3.626  51.849  1.00  0.00     0.040 C 
BRANCH  15  16
HETATM   16  C4  UNL     1      20.907   2.830  52.359  1.00  0.00     0.123 C 
BRANCH  16  17
HETATM   17  N1  UNL     1      21.051   1.389  52.106  1.00  0.00    -0.395 N 
HETATM   18  C3  UNL     1      21.194   0.896  50.725  1.00  0.00     0.148 C 
BRANCH  17  19
HETATM   19  C2  UNL     1      21.063   0.474  53.186  1.00  0.00     0.075 C 
HETATM   20  C1  UNL     1      21.483   0.015  54.389  1.00  0.00     0.029 C 
ENDBRANCH  17  19
ENDBRANCH  16  17
ENDBRANCH  15  16
ENDBRANCH  14  15
ENDBRANCH   9  14
ENDBRANCH   1   7
BRANCH   6  21
HETATM   21  C13 UNL     1      26.426   3.354  49.589  1.00  0.00     0.180 C 
BRANCH  21  22
HETATM   22  N5  UNL     1      26.749   3.172  50.980  1.00  0.00    -0.384 N 
HETATM   23  H18 UNL     1      27.309   3.980  51.353  1.00  0.00     0.160 HD
BRANCH  22  24
HETATM   24  C14 UNL     1      26.525   2.230  52.008  1.00  0.00     0.028 A 
HETATM   25  C15 UNL     1      25.262   1.733  52.340  1.00  0.00     0.029 A 
HETATM   26  C16 UNL     1      25.075   0.827  53.337  1.00  0.00     0.003 A 
HETATM   27  C17 UNL     1      26.159   0.371  54.051  1.00  0.00     0.007 A 
HETATM   28  C18 UNL     1      27.449   0.791  53.807  1.00  0.00    -0.056 A 
HETATM   29  C21 UNL     1      27.545   1.721  52.768  1.00  0.00     0.036 A 
BRANCH  28  30
HETATM   30  C19 UNL     1      28.549   0.266  54.621  1.00  0.00     0.034 C 
HETATM   31  C20 UNL     1      29.402  -0.672  53.796  1.00  0.00     0.010 C 
ENDBRANCH  28  30
ENDBRANCH  22  24
ENDBRANCH  21  22
ENDBRANCH   6  21
TORSDOF 10
ENDMDL
MODEL 8
REMARK VINA RESULT:      -7.4      2.829      5.965
REMARK  10 active torsions:
REMARK  status: ('A' for Active; 'I' for Inactive)
REMARK    1  A    between atoms: C2_2  and  N1_3 
REMARK    2  A    between atoms: N1_3  and  C4_5 
REMARK    3  A    between atoms: C4_5  and  C5_6 
REMARK    4  A    between atoms: C5_6  and  C6_7 
REMARK    5  A    between atoms: C6_7  and  N2_8 
REMARK    6  A    between atoms: C8_10  and  C9_11 
REMARK    7  A    between atoms: C12_16  and  C13_17 
REMARK    8  A    between atoms: C13_17  and  N5_18 
REMARK    9  A    between atoms: N5_18  and  C14_19 
REMARK   10  A    between atoms: C18_23  and  C19_24 
ROOT
HETATM    1  C9  UNL     1      21.829  -0.107  53.137  1.00  0.00     0.043 A 
HETATM    2  C10 UNL     1      21.109  -1.042  53.846  1.00  0.00     0.134 A 
HETATM    3  N3  UNL     1      21.564  -1.770  54.844  1.00  0.00    -0.253 NA
HETATM    4  C11 UNL     1      22.823  -1.634  55.246  1.00  0.00     0.232 A 
HETATM    5  N4  UNL     1      23.532  -0.733  54.568  1.00  0.00    -0.244 NA
HETATM    6  C12 UNL     1      23.115   0.024  53.555  1.00  0.00     0.068 A 
ENDROOT
BRANCH   1   7
HETATM    7  C8  UNL     1      21.198   0.566  52.047  1.00  0.00     0.098 C 
HETATM    8  C7  UNL     1      21.469   0.761  50.793  1.00  0.00     0.131 C 
HETATM    9  N2  UNL     1      20.731   1.455  49.814  1.00  0.00    -0.324 N 
HETATM   10  C23 UNL     1      19.471   2.066  50.191  1.00  0.00     0.248 C 
HETATM   11  C22 UNL     1      18.925   1.329  51.391  1.00  0.00     0.279 C 
HETATM   12  O2  UNL     1      18.971   3.043  49.583  1.00  0.00    -0.271 OA
HETATM   13  O1  UNL     1      19.992   1.183  52.324  1.00  0.00    -0.340 OA
BRANCH   9  14
HETATM   14  C6  UNL     1      21.121   1.633  48.445  1.00  0.00     0.133 C 
BRANCH  14  15
HETATM   15  C5  UNL     1      22.563   2.144  48.330  1.00  0.00     0.040 C 
BRANCH  15  16
HETATM   16  C4  UNL     1      22.619   3.601  48.708  1.00  0.00     0.123 C 
BRANCH  16  17
HETATM   17  N1  UNL     1      23.554   3.860  49.813  1.00  0.00    -0.395 N 
HETATM   18  C3  UNL     1      23.038   4.106  51.170  1.00  0.00     0.148 C 
BRANCH  17  19
HETATM   19  C2  UNL     1      24.950   3.864  49.578  1.00  0.00     0.075 C 
HETATM   20  C1  UNL     1      26.190   3.320  49.597  1.00  0.00     0.029 C 
ENDBRANCH  17  19
ENDBRANCH  16  17
ENDBRANCH  15  16
ENDBRANCH  14  15
ENDBRANCH   9  14
ENDBRANCH   1   7
BRANCH   6  21
HETATM   21  C13 UNL     1      24.094   0.945  52.956  1.00  0.00     0.180 C 
BRANCH  21  22
HETATM   22  N5  UNL     1      25.133   0.214  52.278  1.00  0.00    -0.384 N 
HETATM   23  H18 UNL     1      24.936   0.132  51.249  1.00  0.00     0.160 HD
BRANCH  22  24
HETATM   24  C14 UNL     1      26.357  -0.420  52.583  1.00  0.00     0.028 A 
HETATM   25  C15 UNL     1      26.559  -1.799  52.484  1.00  0.00     0.029 A 
HETATM   26  C16 UNL     1      27.749  -2.384  52.786  1.00  0.00     0.003 A 
HETATM   27  C17 UNL     1      28.802  -1.603  53.204  1.00  0.00     0.007 A 
HETATM   28  C18 UNL     1      28.714  -0.234  53.336  1.00  0.00    -0.056 A 
HETATM   29  C21 UNL     1      27.457   0.279  53.005  1.00  0.00     0.036 A 
BRANCH  28  30
HETATM   30  C19 UNL     1      29.880   0.525  53.799  1.00  0.00     0.034 C 
HETATM   31  C20 UNL     1      29.431   1.806  54.466  1.00  0.00     0.010 C 
ENDBRANCH  28  30
ENDBRANCH  22  24
ENDBRANCH  21  22
ENDBRANCH   6  21
TORSDOF 10
ENDMDL
MODEL 9
REMARK VINA RESULT:      -7.4      2.367      6.473
REMARK  10 active torsions:
REMARK  status: ('A' for Active; 'I' for Inactive)
REMARK    1  A    between atoms: C2_2  and  N1_3 
REMARK    2  A    between atoms: N1_3  and  C4_5 
REMARK    3  A    between atoms: C4_5  and  C5_6 
REMARK    4  A    between atoms: C5_6  and  C6_7 
REMARK    5  A    between atoms: C6_7  and  N2_8 
REMARK    6  A    between atoms: C8_10  and  C9_11 
REMARK    7  A    between atoms: C12_16  and  C13_17 
REMARK    8  A    between atoms: C13_17  and  N5_18 
REMARK    9  A    between atoms: N5_18  and  C14_19 
REMARK   10  A    between atoms: C18_23  and  C19_24 
ROOT
HETATM    1  C9  UNL     1      25.709   1.497  53.088  1.00  0.00     0.043 A 
HETATM    2  C10 UNL     1      26.446   1.143  54.195  1.00  0.00     0.134 A 
HETATM    3  N3  UNL     1      27.730   1.375  54.373  1.00  0.00    -0.253 NA
HETATM    4  C11 UNL     1      28.427   2.004  53.433  1.00  0.00     0.232 A 
HETATM    5  N4  UNL     1      27.727   2.353  52.355  1.00  0.00    -0.244 NA
HETATM    6  C12 UNL     1      26.431   2.138  52.133  1.00  0.00     0.068 A 
ENDROOT
BRANCH   1   7
HETATM    7  C8  UNL     1      24.331   1.126  53.031  1.00  0.00     0.098 C 
HETATM    8  C7  UNL     1      23.264   1.598  52.462  1.00  0.00     0.131 C 
HETATM    9  N2  UNL     1      21.943   1.110  52.491  1.00  0.00    -0.324 N 
HETATM   10  C23 UNL     1      21.660  -0.096  53.245  1.00  0.00     0.248 C 
HETATM   11  C22 UNL     1      22.932  -0.904  53.348  1.00  0.00     0.279 C 
HETATM   12  O2  UNL     1      20.526  -0.365  53.710  1.00  0.00    -0.271 OA
HETATM   13  O1  UNL     1      23.974  -0.011  53.732  1.00  0.00    -0.340 OA
BRANCH   9  14
HETATM   14  C6  UNL     1      20.816   1.712  51.838  1.00  0.00     0.133 C 
BRANCH  14  15
HETATM   15  C5  UNL     1      20.512   3.104  52.407  1.00  0.00     0.040 C 
BRANCH  15  16
HETATM   16  C4  UNL     1      20.487   4.116  51.293  1.00  0.00     0.123 C 
BRANCH  16  17
HETATM   17  N1  UNL     1      21.836   4.488  50.839  1.00  0.00    -0.395 N 
HETATM   18  C3  UNL     1      22.734   5.233  51.737  1.00  0.00     0.148 C 
BRANCH  17  19
HETATM   19  C2  UNL     1      22.278   4.122  49.544  1.00  0.00     0.075 C 
HETATM   20  C1  UNL     1      22.801   3.269  48.632  1.00  0.00     0.029 C 
ENDBRANCH  17  19
ENDBRANCH  16  17
ENDBRANCH  15  16
ENDBRANCH  14  15
ENDBRANCH   9  14
ENDBRANCH   1   7
BRANCH   6  21
HETATM   21  C13 UNL     1      25.882   2.611  50.852  1.00  0.00     0.180 C 
BRANCH  21  22
HETATM   22  N5  UNL     1      26.813   3.488  50.191  1.00  0.00    -0.384 N 
HETATM   23  H18 UNL     1      27.803   3.151  50.301  1.00  0.00     0.160 HD
BRANCH  22  24
HETATM   24  C14 UNL     1      26.793   4.670  49.420  1.00  0.00     0.028 A 
HETATM   25  C15 UNL     1      27.904   5.162  48.730  1.00  0.00     0.029 A 
HETATM   26  C16 UNL     1      27.857   6.306  47.996  1.00  0.00     0.003 A 
HETATM   27  C17 UNL     1      26.680   7.015  47.918  1.00  0.00     0.007 A 
HETATM   28  C18 UNL     1      25.524   6.620  48.556  1.00  0.00    -0.056 A 
HETATM   29  C21 UNL     1      25.666   5.437  49.285  1.00  0.00     0.036 A 
BRANCH  28  30
HETATM   30  C19 UNL     1      24.313   7.437  48.432  1.00  0.00     0.034 C 
HETATM   31  C20 UNL     1      23.589   7.099  47.148  1.00  0.00     0.010 C 
ENDBRANCH  28  30
ENDBRANCH  22  24
ENDBRANCH  21  22
ENDBRANCH   6  21
TORSDOF 10
ENDMDL
