MODEL 1
REMARK VINA RESULT:      -7.7      0.000      0.000
REMARK  4 active torsions:
REMARK  status: ('A' for Active; 'I' for Inactive)
REMARK    1  A    between atoms: C4_4  and  S1_5 
REMARK    2  A    between atoms: S1_5  and  C5_6 
REMARK    3  A    between atoms: C6_9  and  C7_10 
REMARK    4  A    between atoms: C7_10  and  C8_11 
ROOT
HETATM    1  C5  UNL     1      25.190   2.552  52.469  1.00  0.00     0.235 A 
HETATM    2  N1  UNL     1      25.860   2.817  51.311  1.00  0.00    -0.114 NA
HETATM    3  N2  UNL     1      27.137   2.586  51.535  1.00  0.00    -0.126 NA
HETATM    4  C6  UNL     1      27.276   2.183  52.807  1.00  0.00     0.175 A 
HETATM    5  O1  UNL     1      26.085   2.174  53.336  1.00  0.00    -0.268 OA
ENDROOT
BRANCH   1   6
HETATM    6  S1  UNL     1      23.418   2.778  52.471  1.00  0.00    -0.046 SA
BRANCH   6   7
HETATM    7  C4  UNL     1      22.551   1.233  52.761  1.00  0.00     0.004 C 
HETATM    8  C3  UNL     1      21.240   1.431  52.654  1.00  0.00     0.016 C 
HETATM    9  C2  UNL     1      20.085   0.571  52.782  1.00  0.00     0.001 C 
HETATM   10  C1  UNL     1      19.843  -0.558  53.416  1.00  0.00     0.001 C 
HETATM   11  C15 UNL     1      20.645  -1.425  54.263  1.00  0.00     0.017 C 
HETATM   12  C14 UNL     1      21.958  -1.549  54.504  1.00  0.00     0.083 C 
HETATM   13  N4  UNL     1      23.082  -0.843  53.990  1.00  0.00    -0.394 N 
HETATM   14  C13 UNL     1      23.467   0.129  53.043  1.00  0.00     0.165 C 
HETATM   15  H14 UNL     1      23.914  -1.207  54.546  1.00  0.00     0.159 HD
ENDBRANCH   6   7
ENDBRANCH   1   6
BRANCH   4  16
HETATM   16  C7  UNL     1      28.550   1.816  53.478  1.00  0.00     0.145 C 
BRANCH  16  17
HETATM   17  C8  UNL     1      28.719   0.329  53.382  1.00  0.00     0.013 A 
HETATM   18  C9  UNL     1      29.800  -0.371  53.647  1.00  0.00     0.025 A 
HETATM   19  C10 UNL     1      29.857  -1.819  53.520  1.00  0.00    -0.001 A 
HETATM   20  C11 UNL     1      28.764  -2.461  53.115  1.00  0.00    -0.007 A 
HETATM   21  C12 UNL     1      27.464  -1.806  52.778  1.00  0.00     0.147 A 
HETATM   22  N3  UNL     1      27.562  -0.370  52.951  1.00  0.00    -0.389 N 
HETATM   23  H11 UNL     1      26.661   0.101  52.719  1.00  0.00     0.159 HD
ENDBRANCH  16  17
ENDBRANCH   4  16
TORSDOF 4
ENDMDL
MODEL 2
REMARK VINA RESULT:      -7.5      3.657      7.024
REMARK  4 active torsions:
REMARK  status: ('A' for Active; 'I' for Inactive)
REMARK    1  A    between atoms: C4_4  and  S1_5 
REMARK    2  A    between atoms: S1_5  and  C5_6 
REMARK    3  A    between atoms: C6_9  and  C7_10 
REMARK    4  A    between atoms: C7_10  and  C8_11 
ROOT
HETATM    1  C5  UNL     1      25.762   2.672  51.469  1.00  0.00     0.235 A 
HETATM    2  N1  UNL     1      24.748   2.761  50.561  1.00  0.00    -0.114 NA
HETATM    3  N2  UNL     1      25.218   3.400  49.509  1.00  0.00    -0.126 NA
HETATM    4  C6  UNL     1      26.502   3.710  49.743  1.00  0.00     0.175 A 
HETATM    5  O1  UNL     1      26.793   3.256  50.930  1.00  0.00    -0.268 OA
ENDROOT
BRANCH   1   6
HETATM    6  S1  UNL     1      25.420   1.846  53.015  1.00  0.00    -0.046 SA
BRANCH   6   7
HETATM    7  C4  UNL     1      26.679   0.630  53.412  1.00  0.00     0.004 C 
HETATM    8  C3  UNL     1      27.863   1.229  53.504  1.00  0.00     0.016 C 
HETATM    9  C2  UNL     1      29.201   0.761  53.793  1.00  0.00     0.001 C 
HETATM   10  C1  UNL     1      29.817  -0.396  53.674  1.00  0.00     0.001 C 
HETATM   11  C15 UNL     1      29.408  -1.707  53.197  1.00  0.00     0.017 C 
HETATM   12  C14 UNL     1      28.226  -2.290  52.953  1.00  0.00     0.083 C 
HETATM   13  N4  UNL     1      26.893  -1.808  53.080  1.00  0.00    -0.394 N 
HETATM   14  C13 UNL     1      26.126  -0.717  53.541  1.00  0.00     0.165 C 
HETATM   15  H14 UNL     1      26.282  -2.578  52.669  1.00  0.00     0.159 HD
ENDBRANCH   6   7
ENDBRANCH   1   6
BRANCH   4  16
HETATM   16  C7  UNL     1      27.412   4.434  48.819  1.00  0.00     0.145 C 
BRANCH  16  17
HETATM   17  C8  UNL     1      27.051   5.890  48.850  1.00  0.00     0.013 A 
HETATM   18  C9  UNL     1      27.327   6.802  47.943  1.00  0.00     0.025 A 
HETATM   19  C10 UNL     1      26.928   8.193  48.073  1.00  0.00    -0.001 A 
HETATM   20  C11 UNL     1      26.252   8.559  49.160  1.00  0.00    -0.007 A 
HETATM   21  C12 UNL     1      25.866   7.641  50.274  1.00  0.00     0.147 A 
HETATM   22  N3  UNL     1      26.331   6.295  50.004  1.00  0.00    -0.389 N 
HETATM   23  H11 UNL     1      26.068   5.642  50.774  1.00  0.00     0.159 HD
ENDBRANCH  16  17
ENDBRANCH   4  16
TORSDOF 4
ENDMDL
MODEL 3
REMARK VINA RESULT:      -7.4      3.290      5.878
REMARK  4 active torsions:
REMARK  status: ('A' for Active; 'I' for Inactive)
REMARK    1  A    between atoms: C4_4  and  S1_5 
REMARK    2  A    between atoms: S1_5  and  C5_6 
REMARK    3  A    between atoms: C6_9  and  C7_10 
REMARK    4  A    between atoms: C7_10  and  C8_11 
ROOT
HETATM    1  C5  UNL     1      24.098   2.349  51.684  1.00  0.00     0.235 A 
HETATM    2  N1  UNL     1      24.591   3.088  52.718  1.00  0.00    -0.114 NA
HETATM    3  N2  UNL     1      25.117   2.249  53.586  1.00  0.00    -0.126 NA
HETATM    4  C6  UNL     1      24.962   1.003  53.113  1.00  0.00     0.175 A 
HETATM    5  O1  UNL     1      24.347   1.103  51.969  1.00  0.00    -0.268 OA
ENDROOT
BRANCH   1   6
HETATM    6  S1  UNL     1      23.315   3.225  50.338  1.00  0.00    -0.046 SA
BRANCH   6   7
HETATM    7  C4  UNL     1      24.504   4.163  49.374  1.00  0.00     0.004 C 
HETATM    8  C3  UNL     1      25.730   3.701  49.606  1.00  0.00     0.016 C 
HETATM    9  C2  UNL     1      27.043   4.061  49.120  1.00  0.00     0.001 C 
HETATM   10  C1  UNL     1      27.572   5.162  48.628  1.00  0.00     0.001 C 
HETATM   11  C15 UNL     1      27.053   6.494  48.362  1.00  0.00     0.017 C 
HETATM   12  C14 UNL     1      25.824   7.021  48.268  1.00  0.00     0.083 C 
HETATM   13  N4  UNL     1      24.534   6.434  48.404  1.00  0.00    -0.394 N 
HETATM   14  C13 UNL     1      23.866   5.203  48.570  1.00  0.00     0.165 C 
HETATM   15  H14 UNL     1      23.854   7.253  48.360  1.00  0.00     0.159 HD
ENDBRANCH   6   7
ENDBRANCH   1   6
BRANCH   4  16
HETATM   16  C7  UNL     1      25.411  -0.249  53.775  1.00  0.00     0.145 C 
BRANCH  16  17
HETATM   17  C8  UNL     1      26.911  -0.287  53.738  1.00  0.00     0.013 A 
HETATM   18  C9  UNL     1      27.674  -1.188  53.159  1.00  0.00     0.025 A 
HETATM   19  C10 UNL     1      29.126  -1.129  53.184  1.00  0.00    -0.001 A 
HETATM   20  C11 UNL     1      29.707  -0.117  53.824  1.00  0.00    -0.007 A 
HETATM   21  C12 UNL     1      28.977   0.980  54.528  1.00  0.00     0.147 A 
HETATM   22  N3  UNL     1      27.545   0.786  54.417  1.00  0.00    -0.389 N 
HETATM   23  H11 UNL     1      27.021   1.546  54.904  1.00  0.00     0.159 HD
ENDBRANCH  16  17
ENDBRANCH   4  16
TORSDOF 4
ENDMDL
MODEL 4
REMARK VINA RESULT:      -7.3      3.245      6.592
REMARK  4 active torsions:
REMARK  status: ('A' for Active; 'I' for Inactive)
REMARK    1  A    between atoms: C4_4  and  S1_5 
REMARK    2  A    between atoms: S1_5  and  C5_6 
REMARK    3  A    between atoms: C6_9  and  C7_10 
REMARK    4  A    between atoms: C7_10  and  C8_11 
ROOT
HETATM    1  C5  UNL     1      24.121   2.412  51.748  1.00  0.00     0.235 A 
HETATM    2  N1  UNL     1      23.324   2.323  50.645  1.00  0.00    -0.114 NA
HETATM    3  N2  UNL     1      23.260   3.524  50.108  1.00  0.00    -0.126 NA
HETATM    4  C6  UNL     1      24.002   4.358  50.853  1.00  0.00     0.175 A 
HETATM    5  O1  UNL     1      24.504   3.654  51.828  1.00  0.00    -0.268 OA
ENDROOT
BRANCH   1   6
HETATM    6  S1  UNL     1      24.397   0.922  52.694  1.00  0.00    -0.046 SA
BRANCH   6   7
HETATM    7  C4  UNL     1      26.146   0.559  52.868  1.00  0.00     0.004 C 
HETATM    8  C3  UNL     1      26.348  -0.746  52.710  1.00  0.00     0.016 C 
HETATM    9  C2  UNL     1      27.524  -1.587  52.742  1.00  0.00     0.001 C 
HETATM   10  C1  UNL     1      28.708  -1.493  53.309  1.00  0.00     0.001 C 
HETATM   11  C15 UNL     1      29.341  -0.491  54.151  1.00  0.00     0.017 C 
HETATM   12  C14 UNL     1      29.076   0.790  54.447  1.00  0.00     0.083 C 
HETATM   13  N4  UNL     1      28.033   1.660  54.021  1.00  0.00    -0.394 N 
HETATM   14  C13 UNL     1      26.935   1.759  53.140  1.00  0.00     0.165 C 
HETATM   15  H14 UNL     1      28.161   2.546  54.598  1.00  0.00     0.159 HD
ENDBRANCH   6   7
ENDBRANCH   1   6
BRANCH   4  16
HETATM   16  C7  UNL     1      24.207   5.808  50.604  1.00  0.00     0.145 C 
BRANCH  16  17
HETATM   17  C8  UNL     1      25.457   5.972  49.792  1.00  0.00     0.013 A 
HETATM   18  C9  UNL     1      25.914   7.076  49.241  1.00  0.00     0.025 A 
HETATM   19  C10 UNL     1      27.145   7.124  48.469  1.00  0.00    -0.001 A 
HETATM   20  C11 UNL     1      27.839   5.999  48.313  1.00  0.00    -0.007 A 
HETATM   21  C12 UNL     1      27.450   4.671  48.877  1.00  0.00     0.147 A 
HETATM   22  N3  UNL     1      26.208   4.781  49.617  1.00  0.00    -0.389 N 
HETATM   23  H11 UNL     1      25.923   3.860  50.017  1.00  0.00     0.159 HD
ENDBRANCH  16  17
ENDBRANCH   4  16
TORSDOF 4
ENDMDL
MODEL 5
REMARK VINA RESULT:      -7.2      2.893      5.405
REMARK  4 active torsions:
REMARK  status: ('A' for Active; 'I' for Inactive)
REMARK    1  A    between atoms: C4_4  and  S1_5 
REMARK    2  A    between atoms: S1_5  and  C5_6 
REMARK    3  A    between atoms: C6_9  and  C7_10 
REMARK    4  A    between atoms: C7_10  and  C8_11 
ROOT
HETATM    1  C5  UNL     1      24.174   1.939  52.437  1.00  0.00     0.235 A 
HETATM    2  N1  UNL     1      24.036   0.611  52.161  1.00  0.00    -0.114 NA
HETATM    3  N2  UNL     1      24.783  -0.049  53.022  1.00  0.00    -0.126 NA
HETATM    4  C6  UNL     1      25.382   0.841  53.828  1.00  0.00     0.175 A 
HETATM    5  O1  UNL     1      24.992   2.024  53.447  1.00  0.00    -0.268 OA
ENDROOT
BRANCH   1   6
HETATM    6  S1  UNL     1      23.268   3.096  51.421  1.00  0.00    -0.046 SA
BRANCH   6   7
HETATM    7  C4  UNL     1      24.322   3.869  50.192  1.00  0.00     0.004 C 
HETATM    8  C3  UNL     1      25.549   3.360  50.273  1.00  0.00     0.016 C 
HETATM    9  C2  UNL     1      26.780   3.597  49.553  1.00  0.00     0.001 C 
HETATM   10  C1  UNL     1      27.268   4.614  48.873  1.00  0.00     0.001 C 
HETATM   11  C15 UNL     1      26.769   5.943  48.558  1.00  0.00     0.017 C 
HETATM   12  C14 UNL     1      25.564   6.529  48.606  1.00  0.00     0.083 C 
HETATM   13  N4  UNL     1      24.290   6.034  49.003  1.00  0.00    -0.394 N 
HETATM   14  C13 UNL     1      23.606   4.864  49.396  1.00  0.00     0.165 C 
HETATM   15  H14 UNL     1      23.647   6.883  48.983  1.00  0.00     0.159 HD
ENDBRANCH   6   7
ENDBRANCH   1   6
BRANCH   4  16
HETATM   16  C7  UNL     1      26.313   0.527  54.942  1.00  0.00     0.145 C 
BRANCH  16  17
HETATM   17  C8  UNL     1      27.574  -0.035  54.356  1.00  0.00     0.013 A 
HETATM   18  C9  UNL     1      28.777   0.498  54.386  1.00  0.00     0.025 A 
HETATM   19  C10 UNL     1      29.938  -0.135  53.782  1.00  0.00    -0.001 A 
HETATM   20  C11 UNL     1      29.774  -1.306  53.171  1.00  0.00    -0.007 A 
HETATM   21  C12 UNL     1      28.474  -2.034  53.055  1.00  0.00     0.147 A 
HETATM   22  N3  UNL     1      27.415  -1.283  53.701  1.00  0.00    -0.389 N 
HETATM   23  H11 UNL     1      26.501  -1.780  53.628  1.00  0.00     0.159 HD
ENDBRANCH  16  17
ENDBRANCH   4  16
TORSDOF 4
ENDMDL
MODEL 6
REMARK VINA RESULT:      -7.1      3.457      6.177
REMARK  4 active torsions:
REMARK  status: ('A' for Active; 'I' for Inactive)
REMARK    1  A    between atoms: C4_4  and  S1_5 
REMARK    2  A    between atoms: S1_5  and  C5_6 
REMARK    3  A    between atoms: C6_9  and  C7_10 
REMARK    4  A    between atoms: C7_10  and  C8_11 
ROOT
HETATM    1  C5  UNL     1      24.572   2.524  51.378  1.00  0.00     0.235 A 
HETATM    2  N1  UNL     1      24.267   2.894  52.655  1.00  0.00    -0.114 NA
HETATM    3  N2  UNL     1      24.582   1.886  53.442  1.00  0.00    -0.126 NA
HETATM    4  C6  UNL     1      25.077   0.897  52.682  1.00  0.00     0.175 A 
HETATM    5  O1  UNL     1      25.056   1.317  51.449  1.00  0.00    -0.268 OA
ENDROOT
BRANCH   1   6
HETATM    6  S1  UNL     1      24.250   3.702  50.075  1.00  0.00    -0.046 SA
BRANCH   6   7
HETATM    7  C4  UNL     1      25.613   4.852  49.867  1.00  0.00     0.004 C 
HETATM    8  C3  UNL     1      25.199   6.087  50.134  1.00  0.00     0.016 C 
HETATM    9  C2  UNL     1      25.844   7.381  50.133  1.00  0.00     0.001 C 
HETATM   10  C1  UNL     1      26.890   7.888  49.514  1.00  0.00     0.001 C 
HETATM   11  C15 UNL     1      27.849   7.352  48.561  1.00  0.00     0.017 C 
HETATM   12  C14 UNL     1      28.186   6.118  48.162  1.00  0.00     0.083 C 
HETATM   13  N4  UNL     1      27.701   4.836  48.548  1.00  0.00    -0.394 N 
HETATM   14  C13 UNL     1      26.845   4.181  49.458  1.00  0.00     0.165 C 
HETATM   15  H14 UNL     1      28.181   4.151  47.889  1.00  0.00     0.159 HD
ENDBRANCH   6   7
ENDBRANCH   1   6
BRANCH   4  16
HETATM   16  C7  UNL     1      25.556  -0.424  53.164  1.00  0.00     0.145 C 
BRANCH  16  17
HETATM   17  C8  UNL     1      27.049  -0.360  53.298  1.00  0.00     0.013 A 
HETATM   18  C9  UNL     1      27.906  -1.350  53.175  1.00  0.00     0.025 A 
HETATM   19  C10 UNL     1      29.342  -1.178  53.326  1.00  0.00    -0.001 A 
HETATM   20  C11 UNL     1      29.807   0.039  53.602  1.00  0.00    -0.007 A 
HETATM   21  C12 UNL     1      28.961   1.258  53.771  1.00  0.00     0.147 A 
HETATM   22  N3  UNL     1      27.560   0.930  53.593  1.00  0.00    -0.389 N 
HETATM   23  H11 UNL     1      26.957   1.773  53.708  1.00  0.00     0.159 HD
ENDBRANCH  16  17
ENDBRANCH   4  16
TORSDOF 4
ENDMDL
MODEL 7
REMARK VINA RESULT:      -6.9      3.308      5.334
REMARK  4 active torsions:
REMARK  status: ('A' for Active; 'I' for Inactive)
REMARK    1  A    between atoms: C4_4  and  S1_5 
REMARK    2  A    between atoms: S1_5  and  C5_6 
REMARK    3  A    between atoms: C6_9  and  C7_10 
REMARK    4  A    between atoms: C7_10  and  C8_11 
ROOT
HETATM    1  C5  UNL     1      21.837   3.589  51.770  1.00  0.00     0.235 A 
HETATM    2  N1  UNL     1      21.506   3.913  50.488  1.00  0.00    -0.114 NA
HETATM    3  N2  UNL     1      22.285   4.909  50.120  1.00  0.00    -0.126 NA
HETATM    4  C6  UNL     1      23.095   5.211  51.147  1.00  0.00     0.175 A 
HETATM    5  O1  UNL     1      22.797   4.397  52.119  1.00  0.00    -0.268 OA
ENDROOT
BRANCH   1   6
HETATM    6  S1  UNL     1      20.937   2.256  52.547  1.00  0.00    -0.046 SA
BRANCH   6   7
HETATM    7  C4  UNL     1      22.031   0.936  53.079  1.00  0.00     0.004 C 
HETATM    8  C3  UNL     1      21.488   0.295  54.111  1.00  0.00     0.016 C 
HETATM    9  C2  UNL     1      21.907  -0.823  54.927  1.00  0.00     0.001 C 
HETATM   10  C1  UNL     1      23.073  -1.349  55.238  1.00  0.00     0.001 C 
HETATM   11  C15 UNL     1      24.446  -1.025  54.889  1.00  0.00     0.017 C 
HETATM   12  C14 UNL     1      25.021  -0.265  53.946  1.00  0.00     0.083 C 
HETATM   13  N4  UNL     1      24.461   0.531  52.907  1.00  0.00    -0.394 N 
HETATM   14  C13 UNL     1      23.247   0.867  52.272  1.00  0.00     0.165 C 
HETATM   15  H14 UNL     1      25.290   1.043  52.476  1.00  0.00     0.159 HD
ENDBRANCH   6   7
ENDBRANCH   1   6
BRANCH   4  16
HETATM   16  C7  UNL     1      24.132   6.274  51.162  1.00  0.00     0.145 C 
BRANCH  16  17
HETATM   17  C8  UNL     1      25.267   5.833  50.286  1.00  0.00     0.013 A 
HETATM   18  C9  UNL     1      25.909   6.549  49.388  1.00  0.00     0.025 A 
HETATM   19  C10 UNL     1      27.001   6.020  48.587  1.00  0.00    -0.001 A 
HETATM   20  C11 UNL     1      27.367   4.754  48.775  1.00  0.00    -0.007 A 
HETATM   21  C12 UNL     1      26.737   3.819  49.754  1.00  0.00     0.147 A 
HETATM   22  N3  UNL     1      25.669   4.485  50.473  1.00  0.00    -0.389 N 
HETATM   23  H11 UNL     1      25.219   3.844  51.162  1.00  0.00     0.159 HD
ENDBRANCH  16  17
ENDBRANCH   4  16
TORSDOF 4
ENDMDL
MODEL 8
REMARK VINA RESULT:      -6.9      2.869      6.717
REMARK  4 active torsions:
REMARK  status: ('A' for Active; 'I' for Inactive)
REMARK    1  A    between atoms: C4_4  and  S1_5 
REMARK    2  A    between atoms: S1_5  and  C5_6 
REMARK    3  A    between atoms: C6_9  and  C7_10 
REMARK    4  A    between atoms: C7_10  and  C8_11 
ROOT
HETATM    1  C5  UNL     1      23.252   0.674  52.138  1.00  0.00     0.235 A 
HETATM    2  N1  UNL     1      21.956   0.360  51.851  1.00  0.00    -0.114 NA
HETATM    3  N2  UNL     1      21.607   1.059  50.791  1.00  0.00    -0.126 NA
HETATM    4  C6  UNL     1      22.659   1.802  50.411  1.00  0.00     0.175 A 
HETATM    5  O1  UNL     1      23.628   1.543  51.243  1.00  0.00    -0.268 OA
ENDROOT
BRANCH   1   6
HETATM    6  S1  UNL     1      24.008  -0.129  53.542  1.00  0.00    -0.046 SA
BRANCH   6   7
HETATM    7  C4  UNL     1      25.800  -0.066  53.459  1.00  0.00     0.004 C 
HETATM    8  C3  UNL     1      26.265  -1.222  52.993  1.00  0.00     0.016 C 
HETATM    9  C2  UNL     1      27.591  -1.730  52.720  1.00  0.00     0.001 C 
HETATM   10  C1  UNL     1      28.795  -1.452  53.176  1.00  0.00     0.001 C 
HETATM   11  C15 UNL     1      29.304  -0.505  54.154  1.00  0.00     0.017 C 
HETATM   12  C14 UNL     1      28.805   0.586  54.753  1.00  0.00     0.083 C 
HETATM   13  N4  UNL     1      27.541   1.230  54.637  1.00  0.00    -0.394 N 
HETATM   14  C13 UNL     1      26.330   1.218  53.913  1.00  0.00     0.165 C 
HETATM   15  H14 UNL     1      27.551   1.991  55.382  1.00  0.00     0.159 HD
ENDBRANCH   6   7
ENDBRANCH   1   6
BRANCH   4  16
HETATM   16  C7  UNL     1      22.702   2.737  49.258  1.00  0.00     0.145 C 
BRANCH  16  17
HETATM   17  C8  UNL     1      23.535   3.923  49.647  1.00  0.00     0.013 A 
HETATM   18  C9  UNL     1      24.640   4.347  49.073  1.00  0.00     0.025 A 
HETATM   19  C10 UNL     1      25.373   5.515  49.534  1.00  0.00    -0.001 A 
HETATM   20  C11 UNL     1      24.904   6.182  50.586  1.00  0.00    -0.007 A 
HETATM   21  C12 UNL     1      23.666   5.824  51.341  1.00  0.00     0.147 A 
HETATM   22  N3  UNL     1      23.047   4.645  50.767  1.00  0.00    -0.389 N 
HETATM   23  H11 UNL     1      22.180   4.382  51.285  1.00  0.00     0.159 HD
ENDBRANCH  16  17
ENDBRANCH   4  16
TORSDOF 4
ENDMDL
MODEL 9
REMARK VINA RESULT:      -6.8      1.965      6.217
REMARK  4 active torsions:
REMARK  status: ('A' for Active; 'I' for Inactive)
REMARK    1  A    between atoms: C4_4  and  S1_5 
REMARK    2  A    between atoms: S1_5  and  C5_6 
REMARK    3  A    between atoms: C6_9  and  C7_10 
REMARK    4  A    between atoms: C7_10  and  C8_11 
ROOT
HETATM    1  C5  UNL     1      24.349   2.557  50.745  1.00  0.00     0.235 A 
HETATM    2  N1  UNL     1      23.885   2.790  49.484  1.00  0.00    -0.114 NA
HETATM    3  N2  UNL     1      22.679   2.267  49.406  1.00  0.00    -0.126 NA
HETATM    4  C6  UNL     1      22.382   1.714  50.592  1.00  0.00     0.175 A 
HETATM    5  O1  UNL     1      23.408   1.909  51.371  1.00  0.00    -0.268 OA
ENDROOT
BRANCH   1   6
HETATM    6  S1  UNL     1      25.981   3.158  51.153  1.00  0.00    -0.046 SA
BRANCH   6   7
HETATM    7  C4  UNL     1      26.964   1.904  51.979  1.00  0.00     0.004 C 
HETATM    8  C3  UNL     1      26.472   0.698  51.702  1.00  0.00     0.016 C 
HETATM    9  C2  UNL     1      26.847  -0.646  52.080  1.00  0.00     0.001 C 
HETATM   10  C1  UNL     1      27.500  -1.167  53.098  1.00  0.00     0.001 C 
HETATM   11  C15 UNL     1      28.127  -0.605  54.283  1.00  0.00     0.017 C 
HETATM   12  C14 UNL     1      28.501   0.629  54.651  1.00  0.00     0.083 C 
HETATM   13  N4  UNL     1      28.409   1.881  53.981  1.00  0.00    -0.394 N 
HETATM   14  C13 UNL     1      28.060   2.481  52.753  1.00  0.00     0.165 C 
HETATM   15  H14 UNL     1      28.728   2.601  54.699  1.00  0.00     0.159 HD
ENDBRANCH   6   7
ENDBRANCH   1   6
BRANCH   4  16
HETATM   16  C7  UNL     1      21.119   1.015  50.943  1.00  0.00     0.145 C 
BRANCH  16  17
HETATM   17  C8  UNL     1      21.248   0.486  52.340  1.00  0.00     0.013 A 
HETATM   18  C9  UNL     1      20.494   0.776  53.378  1.00  0.00     0.025 A 
HETATM   19  C10 UNL     1      20.708   0.203  54.697  1.00  0.00    -0.001 A 
HETATM   20  C11 UNL     1      21.714  -0.654  54.858  1.00  0.00    -0.007 A 
HETATM   21  C12 UNL     1      22.654  -1.080  53.779  1.00  0.00     0.147 A 
HETATM   22  N3  UNL     1      22.317  -0.428  52.528  1.00  0.00    -0.389 N 
HETATM   23  H11 UNL     1      22.965  -0.717  51.764  1.00  0.00     0.159 HD
ENDBRANCH  16  17
ENDBRANCH   4  16
TORSDOF 4
ENDMDL
