MODEL 1
REMARK VINA RESULT:      -8.6      0.000      0.000
REMARK  5 active torsions:
REMARK  status: ('A' for Active; 'I' for Inactive)
REMARK    1  A    between atoms: C8_9  and  O1_10 
REMARK    2  A    between atoms: O1_10  and  C9_11 
REMARK    3  A    between atoms: C9_11  and  C10_12 
REMARK    4  A    between atoms: C10_12  and  C11_13 
REMARK    5  A    between atoms: C11_13  and  N1_14 
ROOT
HETATM    1  F1  UNL     1      23.095  -1.914  55.502  1.00  0.00    -0.210 F 
HETATM    2  C1  UNL     1      22.472  -1.112  54.602  1.00  0.00     0.098 A 
HETATM    3  C2  UNL     1      21.185  -1.271  54.340  1.00  0.00     0.047 A 
HETATM    4  C3  UNL     1      20.829  -0.274  53.351  1.00  0.00    -0.032 A 
HETATM    5  C4  UNL     1      21.890   0.481  53.019  1.00  0.00    -0.050 A 
HETATM    6  C5  UNL     1      23.058  -0.003  53.810  1.00  0.00     0.106 A 
HETATM    7  C6  UNL     1      21.720   1.553  52.024  1.00  0.00     0.110 C 
HETATM    8  C7  UNL     1      23.012   2.180  51.720  1.00  0.00     0.022 C 
HETATM    9  C8  UNL     1      23.692   2.949  50.852  1.00  0.00     0.047 C 
HETATM   10  C17 UNL     1      23.175   3.560  49.576  1.00  0.00     0.092 C 
HETATM   11  C18 UNL     1      22.865   2.547  48.553  1.00  0.00    -0.003 C 
HETATM   12  C19 UNL     1      22.037   1.516  48.498  1.00  0.00     0.086 C 
HETATM   13  N2  UNL     1      21.085   0.932  49.395  1.00  0.00    -0.354 N 
HETATM   14  C20 UNL     1      21.029   0.998  50.823  1.00  0.00     0.110 C 
HETATM   15  N3  UNL     1      20.005   0.332  51.180  1.00  0.00    -0.271 NA
HETATM   16  C21 UNL     1      19.631   0.182  52.577  1.00  0.00     0.189 C 
HETATM   17  H26 UNL     1      20.328   0.383  48.969  1.00  0.00     0.166 HD
ENDROOT
BRANCH   9  18
HETATM   18  O1  UNL     1      25.022   3.270  51.062  1.00  0.00    -0.355 OA
BRANCH  18  19
HETATM   19  C9  UNL     1      26.102   2.390  50.996  1.00  0.00     0.177 C 
BRANCH  19  20
HETATM   20  C10 UNL     1      26.416   1.689  52.302  1.00  0.00     0.057 C 
BRANCH  20  21
HETATM   21  C11 UNL     1      26.843   0.277  51.984  1.00  0.00     0.274 C 
BRANCH  21  22
HETATM   22  N1  UNL     1      26.736  -0.530  53.176  1.00  0.00     0.088 N 
HETATM   23  C12 UNL     1      27.012   0.235  54.375  1.00  0.00     0.272 C 
HETATM   24  C13 UNL     1      28.408   0.120  54.873  1.00  0.00     0.030 C 
HETATM   25  C14 UNL     1      29.418  -0.328  53.856  1.00  0.00     0.003 C 
HETATM   26  C15 UNL     1      28.971  -1.538  53.067  1.00  0.00     0.030 C 
HETATM   27  C16 UNL     1      27.495  -1.753  53.131  1.00  0.00     0.272 C 
ENDBRANCH  21  22
ENDBRANCH  20  21
ENDBRANCH  19  20
ENDBRANCH  18  19
ENDBRANCH   9  18
TORSDOF 5
ENDMDL
MODEL 2
REMARK VINA RESULT:      -8.5      2.389      5.762
REMARK  5 active torsions:
REMARK  status: ('A' for Active; 'I' for Inactive)
REMARK    1  A    between atoms: C8_9  and  O1_10 
REMARK    2  A    between atoms: O1_10  and  C9_11 
REMARK    3  A    between atoms: C9_11  and  C10_12 
REMARK    4  A    between atoms: C10_12  and  C11_13 
REMARK    5  A    between atoms: C11_13  and  N1_14 
ROOT
HETATM    1  F1  UNL     1      19.974   2.148  53.014  1.00  0.00    -0.210 F 
HETATM    2  C1  UNL     1      20.978   1.278  53.293  1.00  0.00     0.098 A 
HETATM    3  C2  UNL     1      20.801   0.310  54.177  1.00  0.00     0.047 A 
HETATM    4  C3  UNL     1      22.043  -0.433  54.244  1.00  0.00    -0.032 A 
HETATM    5  C4  UNL     1      22.962   0.080  53.409  1.00  0.00    -0.050 A 
HETATM    6  C5  UNL     1      22.343   1.246  52.713  1.00  0.00     0.106 A 
HETATM    7  C6  UNL     1      24.292  -0.547  53.339  1.00  0.00     0.110 C 
HETATM    8  C7  UNL     1      25.178   0.226  52.460  1.00  0.00     0.022 C 
HETATM    9  C8  UNL     1      26.452   0.464  52.105  1.00  0.00     0.047 C 
HETATM   10  C17 UNL     1      27.692  -0.180  52.670  1.00  0.00     0.092 C 
HETATM   11  C18 UNL     1      27.932   0.200  54.071  1.00  0.00    -0.003 C 
HETATM   12  C19 UNL     1      27.245   0.067  55.194  1.00  0.00     0.086 C 
HETATM   13  N2  UNL     1      25.977  -0.500  55.544  1.00  0.00    -0.354 N 
HETATM   14  C20 UNL     1      24.825  -0.715  54.723  1.00  0.00     0.110 C 
HETATM   15  N3  UNL     1      23.941  -1.248  55.467  1.00  0.00    -0.271 NA
HETATM   16  C21 UNL     1      22.625  -1.610  54.964  1.00  0.00     0.189 C 
HETATM   17  H26 UNL     1      25.860  -0.799  56.521  1.00  0.00     0.166 HD
ENDROOT
BRANCH   9  18
HETATM   18  O1  UNL     1      26.767   1.385  51.121  1.00  0.00    -0.355 OA
BRANCH  18  19
HETATM   19  C9  UNL     1      26.483   2.751  51.151  1.00  0.00     0.177 C 
BRANCH  19  20
HETATM   20  C10 UNL     1      25.956   3.307  49.844  1.00  0.00     0.057 C 
BRANCH  20  21
HETATM   21  C11 UNL     1      24.450   3.223  49.873  1.00  0.00     0.274 C 
BRANCH  21  22
HETATM   22  N1  UNL     1      23.896   4.503  49.501  1.00  0.00     0.088 N 
HETATM   23  C12 UNL     1      24.561   5.598  50.178  1.00  0.00     0.272 C 
HETATM   24  C13 UNL     1      23.869   6.076  51.405  1.00  0.00     0.030 C 
HETATM   25  C14 UNL     1      22.916   5.096  52.027  1.00  0.00     0.003 C 
HETATM   26  C15 UNL     1      21.975   4.464  51.027  1.00  0.00     0.030 C 
HETATM   27  C16 UNL     1      22.464   4.585  49.622  1.00  0.00     0.272 C 
ENDBRANCH  21  22
ENDBRANCH  20  21
ENDBRANCH  19  20
ENDBRANCH  18  19
ENDBRANCH   9  18
TORSDOF 5
ENDMDL
MODEL 3
REMARK VINA RESULT:      -7.9      1.965      2.908
REMARK  5 active torsions:
REMARK  status: ('A' for Active; 'I' for Inactive)
REMARK    1  A    between atoms: C8_9  and  O1_10 
REMARK    2  A    between atoms: O1_10  and  C9_11 
REMARK    3  A    between atoms: C9_11  and  C10_12 
REMARK    4  A    between atoms: C10_12  and  C11_13 
REMARK    5  A    between atoms: C11_13  and  N1_14 
ROOT
HETATM    1  F1  UNL     1      17.866  -2.845  54.162  1.00  0.00    -0.210 F 
HETATM    2  C1  UNL     1      18.079  -1.740  53.405  1.00  0.00     0.098 A 
HETATM    3  C2  UNL     1      17.087  -1.195  52.718  1.00  0.00     0.047 A 
HETATM    4  C3  UNL     1      17.634  -0.046  52.026  1.00  0.00    -0.032 A 
HETATM    5  C4  UNL     1      18.942   0.104  52.291  1.00  0.00    -0.050 A 
HETATM    6  C5  UNL     1      19.347  -0.993  53.218  1.00  0.00     0.106 A 
HETATM    7  C6  UNL     1      19.672   1.223  51.673  1.00  0.00     0.110 C 
HETATM    8  C7  UNL     1      21.102   1.144  51.995  1.00  0.00     0.022 C 
HETATM    9  C8  UNL     1      22.336   1.560  51.664  1.00  0.00     0.047 C 
HETATM   10  C17 UNL     1      22.713   2.494  50.543  1.00  0.00     0.092 C 
HETATM   11  C18 UNL     1      22.474   1.903  49.216  1.00  0.00    -0.003 C 
HETATM   12  C19 UNL     1      21.401   1.446  48.591  1.00  0.00     0.086 C 
HETATM   13  N2  UNL     1      20.012   1.321  48.920  1.00  0.00    -0.354 N 
HETATM   14  C20 UNL     1      19.392   1.238  50.207  1.00  0.00     0.110 C 
HETATM   15  N3  UNL     1      18.140   1.143  50.003  1.00  0.00    -0.271 NA
HETATM   16  C21 UNL     1      17.186   1.039  51.095  1.00  0.00     0.189 C 
HETATM   17  H26 UNL     1      19.354   1.283  48.132  1.00  0.00     0.166 HD
ENDROOT
BRANCH   9  18
HETATM   18  O1  UNL     1      23.452   1.139  52.367  1.00  0.00    -0.355 OA
BRANCH  18  19
HETATM   19  C9  UNL     1      23.464   0.237  53.431  1.00  0.00     0.177 C 
BRANCH  19  20
HETATM   20  C10 UNL     1      24.718  -0.608  53.518  1.00  0.00     0.057 C 
BRANCH  20  21
HETATM   21  C11 UNL     1      25.868   0.299  53.886  1.00  0.00     0.274 C 
BRANCH  21  22
HETATM   22  N1  UNL     1      26.824   0.313  52.804  1.00  0.00     0.088 N 
HETATM   23  C12 UNL     1      27.877  -0.662  53.000  1.00  0.00     0.272 C 
HETATM   24  C13 UNL     1      29.119  -0.116  53.609  1.00  0.00     0.030 C 
HETATM   25  C14 UNL     1      28.952   1.171  54.363  1.00  0.00     0.003 C 
HETATM   26  C15 UNL     1      28.161   2.210  53.600  1.00  0.00     0.030 C 
HETATM   27  C16 UNL     1      27.348   1.618  52.497  1.00  0.00     0.272 C 
ENDBRANCH  21  22
ENDBRANCH  20  21
ENDBRANCH  19  20
ENDBRANCH  18  19
ENDBRANCH   9  18
TORSDOF 5
ENDMDL
MODEL 4
REMARK VINA RESULT:      -7.7      4.812      7.209
REMARK  5 active torsions:
REMARK  status: ('A' for Active; 'I' for Inactive)
REMARK    1  A    between atoms: C8_9  and  O1_10 
REMARK    2  A    between atoms: O1_10  and  C9_11 
REMARK    3  A    between atoms: C9_11  and  C10_12 
REMARK    4  A    between atoms: C10_12  and  C11_13 
REMARK    5  A    between atoms: C11_13  and  N1_14 
ROOT
HETATM    1  F1  UNL     1      30.912   5.182  48.057  1.00  0.00    -0.210 F 
HETATM    2  C1  UNL     1      29.680   5.746  48.106  1.00  0.00     0.098 A 
HETATM    3  C2  UNL     1      29.514   7.025  47.810  1.00  0.00     0.047 A 
HETATM    4  C3  UNL     1      28.102   7.314  47.957  1.00  0.00    -0.032 A 
HETATM    5  C4  UNL     1      27.419   6.220  48.337  1.00  0.00    -0.050 A 
HETATM    6  C5  UNL     1      28.394   5.099  48.468  1.00  0.00     0.106 A 
HETATM    7  C6  UNL     1      25.964   6.321  48.537  1.00  0.00     0.110 C 
HETATM    8  C7  UNL     1      25.429   5.056  49.058  1.00  0.00     0.022 C 
HETATM    9  C8  UNL     1      24.394   4.464  49.677  1.00  0.00     0.047 C 
HETATM   10  C17 UNL     1      23.120   5.116  50.150  1.00  0.00     0.092 C 
HETATM   11  C18 UNL     1      23.349   6.051  51.264  1.00  0.00    -0.003 C 
HETATM   12  C19 UNL     1      24.070   7.150  51.411  1.00  0.00     0.086 C 
HETATM   13  N2  UNL     1      24.939   7.914  50.566  1.00  0.00    -0.354 N 
HETATM   14  C20 UNL     1      25.672   7.496  49.410  1.00  0.00     0.110 C 
HETATM   15  N3  UNL     1      26.299   8.518  48.986  1.00  0.00    -0.271 NA
HETATM   16  C21 UNL     1      27.157   8.466  47.813  1.00  0.00     0.189 C 
HETATM   17  H26 UNL     1      25.065   8.904  50.809  1.00  0.00     0.166 HD
ENDROOT
BRANCH   9  18
HETATM   18  O1  UNL     1      24.401   3.109  49.957  1.00  0.00    -0.355 OA
BRANCH  18  19
HETATM   19  C9  UNL     1      24.971   2.503  51.077  1.00  0.00     0.177 C 
BRANCH  19  20
HETATM   20  C10 UNL     1      26.475   2.338  50.999  1.00  0.00     0.057 C 
BRANCH  20  21
HETATM   21  C11 UNL     1      26.976   1.961  52.372  1.00  0.00     0.274 C 
BRANCH  21  22
HETATM   22  N1  UNL     1      26.344   0.730  52.785  1.00  0.00     0.088 N 
HETATM   23  C12 UNL     1      25.977   0.752  54.186  1.00  0.00     0.272 C 
HETATM   24  C13 UNL     1      26.966   0.113  55.094  1.00  0.00     0.030 C 
HETATM   25  C14 UNL     1      28.358  -0.007  54.545  1.00  0.00     0.003 C 
HETATM   26  C15 UNL     1      28.398  -0.566  53.141  1.00  0.00     0.030 C 
HETATM   27  C16 UNL     1      27.085  -0.457  52.441  1.00  0.00     0.272 C 
ENDBRANCH  21  22
ENDBRANCH  20  21
ENDBRANCH  19  20
ENDBRANCH  18  19
ENDBRANCH   9  18
TORSDOF 5
ENDMDL
MODEL 5
REMARK VINA RESULT:      -7.7      4.612      6.056
REMARK  5 active torsions:
REMARK  status: ('A' for Active; 'I' for Inactive)
REMARK    1  A    between atoms: C8_9  and  O1_10 
REMARK    2  A    between atoms: O1_10  and  C9_11 
REMARK    3  A    between atoms: C9_11  and  C10_12 
REMARK    4  A    between atoms: C10_12  and  C11_13 
REMARK    5  A    between atoms: C11_13  and  N1_14 
ROOT
HETATM    1  F1  UNL     1      27.949  -1.657  53.047  1.00  0.00    -0.210 F 
HETATM    2  C1  UNL     1      26.910  -0.802  52.872  1.00  0.00     0.098 A 
HETATM    3  C2  UNL     1      25.757  -1.011  53.489  1.00  0.00     0.047 A 
HETATM    4  C3  UNL     1      24.869   0.065  53.098  1.00  0.00    -0.032 A 
HETATM    5  C4  UNL     1      25.476   0.915  52.254  1.00  0.00    -0.050 A 
HETATM    6  C5  UNL     1      26.866   0.421  52.033  1.00  0.00     0.106 A 
HETATM    7  C6  UNL     1      24.726   2.077  51.748  1.00  0.00     0.110 C 
HETATM    8  C7  UNL     1      25.524   2.811  50.758  1.00  0.00     0.022 C 
HETATM    9  C8  UNL     1      25.495   3.710  49.759  1.00  0.00     0.047 C 
HETATM   10  C17 UNL     1      24.287   4.423  49.210  1.00  0.00     0.092 C 
HETATM   11  C18 UNL     1      23.362   3.510  48.518  1.00  0.00    -0.003 C 
HETATM   12  C19 UNL     1      22.673   2.442  48.886  1.00  0.00     0.086 C 
HETATM   13  N2  UNL     1      22.519   1.707  50.106  1.00  0.00    -0.354 N 
HETATM   14  C20 UNL     1      23.407   1.614  51.224  1.00  0.00     0.110 C 
HETATM   15  N3  UNL     1      22.846   0.851  52.074  1.00  0.00    -0.271 NA
HETATM   16  C21 UNL     1      23.466   0.527  53.348  1.00  0.00     0.189 C 
HETATM   17  H26 UNL     1      21.654   1.162  50.208  1.00  0.00     0.166 HD
ENDROOT
BRANCH   9  18
HETATM   18  O1  UNL     1      26.649   4.088  49.095  1.00  0.00    -0.355 OA
BRANCH  18  19
HETATM   19  C9  UNL     1      27.017   5.391  48.761  1.00  0.00     0.177 C 
BRANCH  19  20
HETATM   20  C10 UNL     1      28.453   5.534  48.300  1.00  0.00     0.057 C 
BRANCH  20  21
HETATM   21  C11 UNL     1      28.789   7.005  48.266  1.00  0.00     0.274 C 
BRANCH  21  22
HETATM   22  N1  UNL     1      29.968   7.203  47.457  1.00  0.00     0.088 N 
HETATM   23  C12 UNL     1      30.946   6.153  47.657  1.00  0.00     0.272 C 
HETATM   24  C13 UNL     1      32.017   6.485  48.634  1.00  0.00     0.030 C 
HETATM   25  C14 UNL     1      31.684   7.584  49.603  1.00  0.00     0.003 C 
HETATM   26  C15 UNL     1      31.093   8.805  48.937  1.00  0.00     0.030 C 
HETATM   27  C16 UNL     1      30.553   8.514  47.577  1.00  0.00     0.272 C 
ENDBRANCH  21  22
ENDBRANCH  20  21
ENDBRANCH  19  20
ENDBRANCH  18  19
ENDBRANCH   9  18
TORSDOF 5
ENDMDL
MODEL 6
REMARK VINA RESULT:      -7.6      2.804      4.973
REMARK  5 active torsions:
REMARK  status: ('A' for Active; 'I' for Inactive)
REMARK    1  A    between atoms: C8_9  and  O1_10 
REMARK    2  A    between atoms: O1_10  and  C9_11 
REMARK    3  A    between atoms: C9_11  and  C10_12 
REMARK    4  A    between atoms: C10_12  and  C11_13 
REMARK    5  A    between atoms: C11_13  and  N1_14 
ROOT
HETATM    1  F1  UNL     1      28.025  -0.172  52.941  1.00  0.00    -0.210 F 
HETATM    2  C1  UNL     1      26.691   0.059  53.022  1.00  0.00     0.098 A 
HETATM    3  C2  UNL     1      25.851  -0.934  53.268  1.00  0.00     0.047 A 
HETATM    4  C3  UNL     1      24.519  -0.364  53.291  1.00  0.00    -0.032 A 
HETATM    5  C4  UNL     1      24.552   0.959  53.061  1.00  0.00    -0.050 A 
HETATM    6  C5  UNL     1      25.978   1.351  52.865  1.00  0.00     0.106 A 
HETATM    7  C6  UNL     1      23.287   1.714  53.047  1.00  0.00     0.110 C 
HETATM    8  C7  UNL     1      23.528   3.112  52.668  1.00  0.00     0.022 C 
HETATM    9  C8  UNL     1      22.969   4.249  52.222  1.00  0.00     0.047 C 
HETATM   10  C17 UNL     1      21.519   4.481  51.884  1.00  0.00     0.092 C 
HETATM   11  C18 UNL     1      21.089   3.717  50.701  1.00  0.00    -0.003 C 
HETATM   12  C19 UNL     1      21.043   2.429  50.403  1.00  0.00     0.086 C 
HETATM   13  N2  UNL     1      21.386   1.218  51.087  1.00  0.00    -0.354 N 
HETATM   14  C20 UNL     1      22.313   1.015  52.158  1.00  0.00     0.110 C 
HETATM   15  N3  UNL     1      22.278  -0.225  52.441  1.00  0.00    -0.271 NA
HETATM   16  C21 UNL     1      23.100  -0.799  53.494  1.00  0.00     0.189 C 
HETATM   17  H26 UNL     1      20.908   0.363  50.776  1.00  0.00     0.166 HD
ENDROOT
BRANCH   9  18
HETATM   18  O1  UNL     1      23.724   5.391  52.015  1.00  0.00    -0.355 OA
BRANCH  18  19
HETATM   19  C9  UNL     1      23.247   6.624  51.569  1.00  0.00     0.177 C 
BRANCH  19  20
HETATM   20  C10 UNL     1      24.165   7.332  50.594  1.00  0.00     0.057 C 
BRANCH  20  21
HETATM   21  C11 UNL     1      25.393   6.474  50.401  1.00  0.00     0.274 C 
BRANCH  21  22
HETATM   22  N1  UNL     1      25.422   5.989  49.042  1.00  0.00     0.088 N 
HETATM   23  C12 UNL     1      24.239   5.220  48.715  1.00  0.00     0.272 C 
HETATM   24  C13 UNL     1      24.402   3.748  48.849  1.00  0.00     0.030 C 
HETATM   25  C14 UNL     1      25.529   3.306  49.737  1.00  0.00     0.003 C 
HETATM   26  C15 UNL     1      26.830   4.020  49.448  1.00  0.00     0.030 C 
HETATM   27  C16 UNL     1      26.632   5.291  48.691  1.00  0.00     0.272 C 
ENDBRANCH  21  22
ENDBRANCH  20  21
ENDBRANCH  19  20
ENDBRANCH  18  19
ENDBRANCH   9  18
TORSDOF 5
ENDMDL
MODEL 7
REMARK VINA RESULT:      -7.5      2.915      4.411
REMARK  5 active torsions:
REMARK  status: ('A' for Active; 'I' for Inactive)
REMARK    1  A    between atoms: C8_9  and  O1_10 
REMARK    2  A    between atoms: O1_10  and  C9_11 
REMARK    3  A    between atoms: C9_11  and  C10_12 
REMARK    4  A    between atoms: C10_12  and  C11_13 
REMARK    5  A    between atoms: C11_13  and  N1_14 
ROOT
HETATM    1  F1  UNL     1      16.773  -5.003  54.067  1.00  0.00    -0.210 F 
HETATM    2  C1  UNL     1      16.883  -3.757  53.540  1.00  0.00     0.098 A 
HETATM    3  C2  UNL     1      15.989  -3.314  52.670  1.00  0.00     0.047 A 
HETATM    4  C3  UNL     1      16.385  -1.970  52.305  1.00  0.00    -0.032 A 
HETATM    5  C4  UNL     1      17.507  -1.602  52.946  1.00  0.00    -0.050 A 
HETATM    6  C5  UNL     1      17.930  -2.742  53.811  1.00  0.00     0.106 A 
HETATM    7  C6  UNL     1      18.064  -0.262  52.701  1.00  0.00     0.110 C 
HETATM    8  C7  UNL     1      19.343  -0.100  53.404  1.00  0.00     0.022 C 
HETATM    9  C8  UNL     1      20.476   0.617  53.489  1.00  0.00     0.047 C 
HETATM   10  C17 UNL     1      20.874   1.798  52.642  1.00  0.00     0.092 C 
HETATM   11  C18 UNL     1      21.125   1.425  51.241  1.00  0.00    -0.003 C 
HETATM   12  C19 UNL     1      20.391   0.877  50.287  1.00  0.00     0.086 C 
HETATM   13  N2  UNL     1      19.040   0.408  50.190  1.00  0.00    -0.354 N 
HETATM   14  C20 UNL     1      18.161  -0.037  51.229  1.00  0.00     0.110 C 
HETATM   15  N3  UNL     1      17.063  -0.351  50.667  1.00  0.00    -0.271 NA
HETATM   16  C21 UNL     1      15.926  -0.850  51.423  1.00  0.00     0.189 C 
HETATM   17  H26 UNL     1      18.629   0.380  49.249  1.00  0.00     0.166 HD
ENDROOT
BRANCH   9  18
HETATM   18  O1  UNL     1      21.452   0.316  54.424  1.00  0.00    -0.355 OA
BRANCH  18  19
HETATM   19  C9  UNL     1      21.867  -0.962  54.798  1.00  0.00     0.177 C 
BRANCH  19  20
HETATM   20  C10 UNL     1      23.359  -1.193  54.676  1.00  0.00     0.057 C 
BRANCH  20  21
HETATM   21  C11 UNL     1      23.837  -0.509  53.418  1.00  0.00     0.274 C 
BRANCH  21  22
HETATM   22  N1  UNL     1      24.795   0.513  53.770  1.00  0.00     0.088 N 
HETATM   23  C12 UNL     1      25.024   1.440  52.680  1.00  0.00     0.272 C 
HETATM   24  C13 UNL     1      26.218   1.132  51.849  1.00  0.00     0.030 C 
HETATM   25  C14 UNL     1      26.704  -0.287  51.924  1.00  0.00     0.003 C 
HETATM   26  C15 UNL     1      26.821  -0.802  53.341  1.00  0.00     0.030 C 
HETATM   27  C16 UNL     1      26.027   0.004  54.313  1.00  0.00     0.272 C 
ENDBRANCH  21  22
ENDBRANCH  20  21
ENDBRANCH  19  20
ENDBRANCH  18  19
ENDBRANCH   9  18
TORSDOF 5
ENDMDL
MODEL 8
REMARK VINA RESULT:      -7.4      2.495      6.224
REMARK  5 active torsions:
REMARK  status: ('A' for Active; 'I' for Inactive)
REMARK    1  A    between atoms: C8_9  and  O1_10 
REMARK    2  A    between atoms: O1_10  and  C9_11 
REMARK    3  A    between atoms: C9_11  and  C10_12 
REMARK    4  A    between atoms: C10_12  and  C11_13 
REMARK    5  A    between atoms: C11_13  and  N1_14 
ROOT
HETATM    1  F1  UNL     1      21.559  -2.045  54.562  1.00  0.00    -0.210 F 
HETATM    2  C1  UNL     1      22.431  -1.160  54.017  1.00  0.00     0.098 A 
HETATM    3  C2  UNL     1      23.574  -0.882  54.625  1.00  0.00     0.047 A 
HETATM    4  C3  UNL     1      24.268   0.084  53.798  1.00  0.00    -0.032 A 
HETATM    5  C4  UNL     1      23.554   0.388  52.701  1.00  0.00    -0.050 A 
HETATM    6  C5  UNL     1      22.288  -0.401  52.750  1.00  0.00     0.106 A 
HETATM    7  C6  UNL     1      24.101   1.357  51.737  1.00  0.00     0.110 C 
HETATM    8  C7  UNL     1      23.125   1.634  50.677  1.00  0.00     0.022 C 
HETATM    9  C8  UNL     1      22.770   2.476  49.691  1.00  0.00     0.047 C 
HETATM   10  C17 UNL     1      23.475   3.741  49.275  1.00  0.00     0.092 C 
HETATM   11  C18 UNL     1      23.397   4.791  50.304  1.00  0.00    -0.003 C 
HETATM   12  C19 UNL     1      23.795   4.880  51.563  1.00  0.00     0.086 C 
HETATM   13  N2  UNL     1      24.470   4.007  52.476  1.00  0.00    -0.354 N 
HETATM   14  C20 UNL     1      24.545   2.577  52.472  1.00  0.00     0.110 C 
HETATM   15  N3  UNL     1      25.257   2.247  53.474  1.00  0.00    -0.271 NA
HETATM   16  C21 UNL     1      25.550   0.858  53.787  1.00  0.00     0.189 C 
HETATM   17  H26 UNL     1      24.977   4.453  53.250  1.00  0.00     0.166 HD
ENDROOT
BRANCH   9  18
HETATM   18  O1  UNL     1      21.647   2.246  48.915  1.00  0.00    -0.355 OA
BRANCH  18  19
HETATM   19  C9  UNL     1      21.234   3.004  47.820  1.00  0.00     0.177 C 
BRANCH  19  20
HETATM   20  C10 UNL     1      19.922   3.733  48.026  1.00  0.00     0.057 C 
BRANCH  20  21
HETATM   21  C11 UNL     1      19.048   2.881  48.914  1.00  0.00     0.274 C 
BRANCH  21  22
HETATM   22  N1  UNL     1      18.558   3.685  50.008  1.00  0.00     0.088 N 
HETATM   23  C12 UNL     1      19.636   4.331  50.731  1.00  0.00     0.272 C 
HETATM   24  C13 UNL     1      20.081   3.608  51.951  1.00  0.00     0.030 C 
HETATM   25  C14 UNL     1      19.735   2.147  51.994  1.00  0.00     0.003 C 
HETATM   26  C15 UNL     1      18.294   1.865  51.633  1.00  0.00     0.030 C 
HETATM   27  C16 UNL     1      17.657   2.993  50.892  1.00  0.00     0.272 C 
ENDBRANCH  21  22
ENDBRANCH  20  21
ENDBRANCH  19  20
ENDBRANCH  18  19
ENDBRANCH   9  18
TORSDOF 5
ENDMDL
MODEL 9
REMARK VINA RESULT:      -7.4      2.772      6.780
REMARK  5 active torsions:
REMARK  status: ('A' for Active; 'I' for Inactive)
REMARK    1  A    between atoms: C8_9  and  O1_10 
REMARK    2  A    between atoms: O1_10  and  C9_11 
REMARK    3  A    between atoms: C9_11  and  C10_12 
REMARK    4  A    between atoms: C10_12  and  C11_13 
REMARK    5  A    between atoms: C11_13  and  N1_14 
ROOT
HETATM    1  F1  UNL     1      23.248  -1.723  55.639  1.00  0.00    -0.210 F 
HETATM    2  C1  UNL     1      23.461  -0.850  54.623  1.00  0.00     0.098 A 
HETATM    3  C2  UNL     1      24.669  -0.705  54.103  1.00  0.00     0.047 A 
HETATM    4  C3  UNL     1      24.562   0.287  53.053  1.00  0.00    -0.032 A 
HETATM    5  C4  UNL     1      23.301   0.739  52.938  1.00  0.00    -0.050 A 
HETATM    6  C5  UNL     1      22.471   0.033  53.957  1.00  0.00     0.106 A 
HETATM    7  C6  UNL     1      22.998   1.756  51.918  1.00  0.00     0.110 C 
HETATM    8  C7  UNL     1      21.601   2.196  52.031  1.00  0.00     0.022 C 
HETATM    9  C8  UNL     1      20.711   3.149  51.706  1.00  0.00     0.047 C 
HETATM   10  C17 UNL     1      20.965   4.398  50.904  1.00  0.00     0.092 C 
HETATM   11  C18 UNL     1      21.840   5.349  51.609  1.00  0.00    -0.003 C 
HETATM   12  C19 UNL     1      23.077   5.293  52.075  1.00  0.00     0.086 C 
HETATM   13  N2  UNL     1      24.104   4.295  52.104  1.00  0.00    -0.354 N 
HETATM   14  C20 UNL     1      23.984   2.871  52.033  1.00  0.00     0.110 C 
HETATM   15  N3  UNL     1      25.165   2.401  52.090  1.00  0.00    -0.271 NA
HETATM   16  C21 UNL     1      25.431   0.972  52.044  1.00  0.00     0.189 C 
HETATM   17  H26 UNL     1      25.072   4.632  52.188  1.00  0.00     0.166 HD
ENDROOT
BRANCH   9  18
HETATM   18  O1  UNL     1      19.389   3.067  52.107  1.00  0.00    -0.355 OA
BRANCH  18  19
HETATM   19  C9  UNL     1      18.306   3.716  51.513  1.00  0.00     0.177 C 
BRANCH  19  20
HETATM   20  C10 UNL     1      17.429   2.817  50.666  1.00  0.00     0.057 C 
BRANCH  20  21
HETATM   21  C11 UNL     1      16.956   1.674  51.531  1.00  0.00     0.274 C 
BRANCH  21  22
HETATM   22  N1  UNL     1      17.252   0.425  50.871  1.00  0.00     0.088 N 
HETATM   23  C12 UNL     1      16.221  -0.567  51.101  1.00  0.00     0.272 C 
HETATM   24  C13 UNL     1      16.513  -1.514  52.210  1.00  0.00     0.030 C 
HETATM   25  C14 UNL     1      17.524  -1.037  53.213  1.00  0.00     0.003 C 
HETATM   26  C15 UNL     1      18.773  -0.471  52.575  1.00  0.00     0.030 C 
HETATM   27  C16 UNL     1      18.567  -0.091  51.147  1.00  0.00     0.272 C 
ENDBRANCH  21  22
ENDBRANCH  20  21
ENDBRANCH  19  20
ENDBRANCH  18  19
ENDBRANCH   9  18
TORSDOF 5
ENDMDL
