MODEL 1
REMARK VINA RESULT:      -9.4      0.000      0.000
REMARK  3 active torsions:
REMARK  status: ('A' for Active; 'I' for Inactive)
REMARK    1  A    between atoms: S1_2  and  C1_3 
REMARK    2  A    between atoms: S1_2  and  C2_5 
REMARK    3  A    between atoms: C7_11  and  C8_12 
ROOT
HETATM    1  C2  UNL     1      24.447   6.429  50.401  1.00  0.00     0.033 C 
HETATM    2  C3  UNL     1      25.498   6.270  49.590  1.00  0.00     0.021 C 
HETATM    3  C4  UNL     1      26.436   5.195  49.299  1.00  0.00     0.003 C 
HETATM    4  C5  UNL     1      26.449   3.936  49.695  1.00  0.00     0.028 C 
HETATM    5  C6  UNL     1      25.699   2.986  50.508  1.00  0.00     0.042 A 
HETATM    6  N1  UNL     1      26.576   2.117  50.808  1.00  0.00    -0.279 NA
HETATM    7  C7  UNL     1      26.408   0.938  51.601  1.00  0.00     0.175 A 
HETATM    8  C13 UNL     1      25.056   0.920  52.172  1.00  0.00    -0.022 A 
HETATM    9  C14 UNL     1      24.756  -0.083  53.065  1.00  0.00     0.010 A 
HETATM   10  C15 UNL     1      23.535  -0.238  53.686  1.00  0.00     0.001 A 
HETATM   11  C16 UNL     1      22.526   0.683  53.393  1.00  0.00     0.001 A 
HETATM   12  C17 UNL     1      22.824   1.694  52.495  1.00  0.00     0.009 A 
HETATM   13  C18 UNL     1      24.059   1.825  51.887  1.00  0.00    -0.036 A 
HETATM   14  C19 UNL     1      24.290   2.941  50.935  1.00  0.00     0.093 A 
HETATM   15  C20 UNL     1      23.798   4.224  51.496  1.00  0.00    -0.010 C 
HETATM   16  C21 UNL     1      23.815   5.530  51.354  1.00  0.00     0.018 C 
ENDROOT
BRANCH   7  17
HETATM   17  C8  UNL     1      27.469   0.858  52.645  1.00  0.00    -0.026 A 
HETATM   18  C9  UNL     1      27.982  -0.354  53.062  1.00  0.00     0.029 A 
HETATM   19  C10 UNL     1      28.961  -0.434  54.026  1.00  0.00     0.117 A 
HETATM   20  N2  UNL     1      29.417   0.704  54.562  1.00  0.00    -0.273 NA
HETATM   21  C11 UNL     1      28.918   1.878  54.154  1.00  0.00     0.117 A 
HETATM   22  C12 UNL     1      27.930   2.045  53.189  1.00  0.00     0.029 A 
ENDBRANCH   7  17
BRANCH   1  23
HETATM   23  S1  UNL     1      23.759   8.046  50.228  1.00  0.00     0.078 S 
HETATM   24  O1  UNL     1      24.369   8.769  49.029  1.00  0.00    -0.250 OA
BRANCH  23  25
HETATM   25  C1  UNL     1      21.985   7.898  49.997  1.00  0.00     0.336 C 
HETATM   26  F1  UNL     1      21.304   7.686  51.165  1.00  0.00    -0.242 F 
ENDBRANCH  23  25
ENDBRANCH   1  23
TORSDOF 3
ENDMDL
MODEL 2
REMARK VINA RESULT:      -9.0      3.974      5.773
REMARK  3 active torsions:
REMARK  status: ('A' for Active; 'I' for Inactive)
REMARK    1  A    between atoms: S1_2  and  C1_3 
REMARK    2  A    between atoms: S1_2  and  C2_5 
REMARK    3  A    between atoms: C7_11  and  C8_12 
ROOT
HETATM    1  C2  UNL     1      20.014  -0.053  52.137  1.00  0.00     0.033 C 
HETATM    2  C3  UNL     1      20.141  -0.389  53.425  1.00  0.00     0.021 C 
HETATM    3  C4  UNL     1      21.216  -0.360  54.407  1.00  0.00     0.003 C 
HETATM    4  C5  UNL     1      22.430   0.153  54.338  1.00  0.00     0.028 C 
HETATM    5  C6  UNL     1      23.316   0.875  53.432  1.00  0.00     0.042 A 
HETATM    6  N1  UNL     1      24.470   0.587  53.877  1.00  0.00    -0.279 NA
HETATM    7  C7  UNL     1      25.737   1.021  53.375  1.00  0.00     0.175 A 
HETATM    8  C13 UNL     1      25.540   1.773  52.130  1.00  0.00    -0.022 A 
HETATM    9  C14 UNL     1      26.662   2.164  51.437  1.00  0.00     0.010 A 
HETATM   10  C15 UNL     1      26.645   2.875  50.256  1.00  0.00     0.001 A 
HETATM   11  C16 UNL     1      25.405   3.226  49.718  1.00  0.00     0.001 A 
HETATM   12  C17 UNL     1      24.273   2.834  50.411  1.00  0.00     0.009 A 
HETATM   13  C18 UNL     1      24.320   2.121  51.594  1.00  0.00    -0.036 A 
HETATM   14  C19 UNL     1      23.053   1.742  52.272  1.00  0.00     0.093 A 
HETATM   15  C20 UNL     1      22.089   1.164  51.302  1.00  0.00    -0.010 C 
HETATM   16  C21 UNL     1      20.963   0.498  51.182  1.00  0.00     0.018 C 
ENDROOT
BRANCH   7  17
HETATM   17  C8  UNL     1      26.653  -0.142  53.198  1.00  0.00    -0.026 A 
HETATM   18  C9  UNL     1      27.956  -0.110  53.654  1.00  0.00     0.029 A 
HETATM   19  C10 UNL     1      28.806  -1.181  53.494  1.00  0.00     0.117 A 
HETATM   20  N2  UNL     1      28.340  -2.275  52.879  1.00  0.00    -0.273 NA
HETATM   21  C11 UNL     1      27.074  -2.302  52.440  1.00  0.00     0.117 A 
HETATM   22  C12 UNL     1      26.154  -1.265  52.561  1.00  0.00     0.029 A 
ENDBRANCH   7  17
BRANCH   1  23
HETATM   23  S1  UNL     1      18.373  -0.365  51.565  1.00  0.00     0.078 S 
HETATM   24  O1  UNL     1      17.417  -0.557  52.741  1.00  0.00    -0.250 OA
BRANCH  23  25
HETATM   25  C1  UNL     1      17.831   1.032  50.576  1.00  0.00     0.336 C 
HETATM   26  F1  UNL     1      18.185   2.242  51.109  1.00  0.00    -0.242 F 
ENDBRANCH  23  25
ENDBRANCH   1  23
TORSDOF 3
ENDMDL
MODEL 3
REMARK VINA RESULT:      -9.0      5.020      7.465
REMARK  3 active torsions:
REMARK  status: ('A' for Active; 'I' for Inactive)
REMARK    1  A    between atoms: S1_2  and  C1_3 
REMARK    2  A    between atoms: S1_2  and  C2_5 
REMARK    3  A    between atoms: C7_11  and  C8_12 
ROOT
HETATM    1  C2  UNL     1      27.266  -0.008  52.974  1.00  0.00     0.033 C 
HETATM    2  C3  UNL     1      27.449   1.284  52.688  1.00  0.00     0.021 C 
HETATM    3  C4  UNL     1      26.584   2.426  52.425  1.00  0.00     0.003 C 
HETATM    4  C5  UNL     1      25.273   2.549  52.516  1.00  0.00     0.028 C 
HETATM    5  C6  UNL     1      24.075   1.792  52.863  1.00  0.00     0.042 A 
HETATM    6  N1  UNL     1      23.158   2.417  52.245  1.00  0.00    -0.279 NA
HETATM    7  C7  UNL     1      21.759   2.122  52.220  1.00  0.00     0.175 A 
HETATM    8  C13 UNL     1      21.512   0.858  52.924  1.00  0.00    -0.022 A 
HETATM    9  C14 UNL     1      20.233   0.352  52.894  1.00  0.00     0.010 A 
HETATM   10  C15 UNL     1      19.840  -0.821  53.505  1.00  0.00     0.001 A 
HETATM   11  C16 UNL     1      20.803  -1.552  54.206  1.00  0.00     0.001 A 
HETATM   12  C17 UNL     1      22.092  -1.046  54.237  1.00  0.00     0.009 A 
HETATM   13  C18 UNL     1      22.457   0.133  53.615  1.00  0.00    -0.036 A 
HETATM   14  C19 UNL     1      23.864   0.601  53.702  1.00  0.00     0.093 A 
HETATM   15  C20 UNL     1      24.808  -0.507  53.410  1.00  0.00    -0.010 C 
HETATM   16  C21 UNL     1      26.058  -0.803  53.136  1.00  0.00     0.018 C 
ENDROOT
BRANCH   7  17
HETATM   17  C8  UNL     1      21.257   2.099  50.816  1.00  0.00    -0.026 A 
HETATM   18  C9  UNL     1      20.192   2.883  50.417  1.00  0.00     0.029 A 
HETATM   19  C10 UNL     1      19.726   2.866  49.122  1.00  0.00     0.117 A 
HETATM   20  N2  UNL     1      20.331   2.063  48.240  1.00  0.00    -0.273 NA
HETATM   21  C11 UNL     1      21.364   1.305  48.631  1.00  0.00     0.117 A 
HETATM   22  C12 UNL     1      21.896   1.263  49.916  1.00  0.00     0.029 A 
ENDBRANCH   7  17
BRANCH   1  23
HETATM   23  S1  UNL     1      28.815  -0.833  53.175  1.00  0.00     0.078 S 
HETATM   24  O1  UNL     1      29.419  -0.525  54.543  1.00  0.00    -0.250 OA
BRANCH  23  25
HETATM   25  C1  UNL     1      28.551  -2.602  53.022  1.00  0.00     0.336 C 
HETATM   26  F1  UNL     1      29.445  -3.346  53.744  1.00  0.00    -0.242 F 
ENDBRANCH  23  25
ENDBRANCH   1  23
TORSDOF 3
ENDMDL
MODEL 4
REMARK VINA RESULT:      -8.4      2.884      5.112
REMARK  3 active torsions:
REMARK  status: ('A' for Active; 'I' for Inactive)
REMARK    1  A    between atoms: S1_2  and  C1_3 
REMARK    2  A    between atoms: S1_2  and  C2_5 
REMARK    3  A    between atoms: C7_11  and  C8_12 
ROOT
HETATM    1  C2  UNL     1      26.198   5.360  49.345  1.00  0.00     0.033 C 
HETATM    2  C3  UNL     1      25.288   6.155  49.916  1.00  0.00     0.021 C 
HETATM    3  C4  UNL     1      24.263   5.999  50.939  1.00  0.00     0.003 C 
HETATM    4  C5  UNL     1      23.998   4.985  51.742  1.00  0.00     0.028 C 
HETATM    5  C6  UNL     1      24.451   3.638  52.069  1.00  0.00     0.042 A 
HETATM    6  N1  UNL     1      23.418   3.111  52.586  1.00  0.00    -0.279 NA
HETATM    7  C7  UNL     1      23.273   1.783  53.099  1.00  0.00     0.175 A 
HETATM    8  C13 UNL     1      24.491   1.014  52.819  1.00  0.00    -0.022 A 
HETATM    9  C14 UNL     1      24.485  -0.326  53.133  1.00  0.00     0.010 A 
HETATM   10  C15 UNL     1      25.547  -1.182  52.932  1.00  0.00     0.001 A 
HETATM   11  C16 UNL     1      26.715  -0.660  52.372  1.00  0.00     0.001 A 
HETATM   12  C17 UNL     1      26.726   0.687  52.054  1.00  0.00     0.009 A 
HETATM   13  C18 UNL     1      25.645   1.522  52.266  1.00  0.00    -0.036 A 
HETATM   14  C19 UNL     1      25.745   2.958  51.895  1.00  0.00     0.093 A 
HETATM   15  C20 UNL     1      26.319   3.112  50.535  1.00  0.00    -0.010 C 
HETATM   16  C21 UNL     1      26.520   3.956  49.548  1.00  0.00     0.018 C 
ENDROOT
BRANCH   7  17
HETATM   17  C8  UNL     1      22.051   1.139  52.538  1.00  0.00    -0.026 A 
HETATM   18  C9  UNL     1      21.818   1.095  51.178  1.00  0.00     0.029 A 
HETATM   19  C10 UNL     1      20.692   0.500  50.655  1.00  0.00     0.117 A 
HETATM   20  N2  UNL     1      19.811  -0.044  51.501  1.00  0.00    -0.273 NA
HETATM   21  C11 UNL     1      20.041  -0.001  52.820  1.00  0.00     0.117 A 
HETATM   22  C12 UNL     1      21.150   0.579  53.428  1.00  0.00     0.029 A 
ENDBRANCH   7  17
BRANCH   1  23
HETATM   23  S1  UNL     1      27.137   6.243  48.138  1.00  0.00     0.078 S 
HETATM   24  O1  UNL     1      26.898   7.747  48.261  1.00  0.00    -0.250 OA
BRANCH  23  25
HETATM   25  C1  UNL     1      28.879   5.892  48.391  1.00  0.00     0.336 C 
HETATM   26  F1  UNL     1      29.273   4.697  47.852  1.00  0.00    -0.242 F 
ENDBRANCH  23  25
ENDBRANCH   1  23
TORSDOF 3
ENDMDL
MODEL 5
REMARK VINA RESULT:      -8.4      4.964      7.218
REMARK  3 active torsions:
REMARK  status: ('A' for Active; 'I' for Inactive)
REMARK    1  A    between atoms: S1_2  and  C1_3 
REMARK    2  A    between atoms: S1_2  and  C2_5 
REMARK    3  A    between atoms: C7_11  and  C8_12 
ROOT
HETATM    1  C2  UNL     1      18.460  -0.364  52.327  1.00  0.00     0.033 C 
HETATM    2  C3  UNL     1      18.257   0.068  51.079  1.00  0.00     0.021 C 
HETATM    3  C4  UNL     1      19.067   0.718  50.057  1.00  0.00     0.003 C 
HETATM    4  C5  UNL     1      20.360   0.979  50.023  1.00  0.00     0.028 C 
HETATM    5  C6  UNL     1      21.578   0.828  50.812  1.00  0.00     0.042 A 
HETATM    6  N1  UNL     1      22.326   1.747  50.355  1.00  0.00    -0.279 NA
HETATM    7  C7  UNL     1      23.659   2.075  50.758  1.00  0.00     0.175 A 
HETATM    8  C13 UNL     1      24.032   1.263  51.923  1.00  0.00    -0.022 A 
HETATM    9  C14 UNL     1      25.240   1.532  52.525  1.00  0.00     0.010 A 
HETATM   10  C15 UNL     1      25.733   0.861  53.624  1.00  0.00     0.001 A 
HETATM   11  C16 UNL     1      24.958  -0.166  54.170  1.00  0.00     0.001 A 
HETATM   12  C17 UNL     1      23.742  -0.439  53.567  1.00  0.00     0.009 A 
HETATM   13  C18 UNL     1      23.273   0.252  52.466  1.00  0.00    -0.036 A 
HETATM   14  C19 UNL     1      21.955  -0.110  51.883  1.00  0.00     0.093 A 
HETATM   15  C20 UNL     1      20.927  -0.244  52.945  1.00  0.00    -0.010 C 
HETATM   16  C21 UNL     1      19.638  -0.342  53.181  1.00  0.00     0.018 C 
ENDROOT
BRANCH   7  17
HETATM   17  C8  UNL     1      23.778   3.537  51.021  1.00  0.00    -0.026 A 
HETATM   18  C9  UNL     1      24.613   4.340  50.269  1.00  0.00     0.029 A 
HETATM   19  C10 UNL     1      24.726   5.691  50.507  1.00  0.00     0.117 A 
HETATM   20  N2  UNL     1      24.000   6.224  51.497  1.00  0.00    -0.273 NA
HETATM   21  C11 UNL     1      23.191   5.441  52.224  1.00  0.00     0.117 A 
HETATM   22  C12 UNL     1      23.019   4.072  52.048  1.00  0.00     0.029 A 
ENDBRANCH   7  17
BRANCH   1  23
HETATM   23  S1  UNL     1      16.987  -1.075  52.993  1.00  0.00     0.078 S 
HETATM   24  O1  UNL     1      15.826  -0.934  52.011  1.00  0.00    -0.250 OA
BRANCH  23  25
HETATM   25  C1  UNL     1      17.283  -2.814  53.324  1.00  0.00     0.336 C 
HETATM   26  F1  UNL     1      18.121  -3.027  54.385  1.00  0.00    -0.242 F 
ENDBRANCH  23  25
ENDBRANCH   1  23
TORSDOF 3
ENDMDL
MODEL 6
REMARK VINA RESULT:      -8.2      4.233      7.770
REMARK  3 active torsions:
REMARK  status: ('A' for Active; 'I' for Inactive)
REMARK    1  A    between atoms: S1_2  and  C1_3 
REMARK    2  A    between atoms: S1_2  and  C2_5 
REMARK    3  A    between atoms: C7_11  and  C8_12 
ROOT
HETATM    1  C2  UNL     1      25.547   1.129  53.055  1.00  0.00     0.033 C 
HETATM    2  C3  UNL     1      24.335   0.621  52.815  1.00  0.00     0.021 C 
HETATM    3  C4  UNL     1      23.232   0.937  51.916  1.00  0.00     0.003 C 
HETATM    4  C5  UNL     1      23.154   1.806  50.925  1.00  0.00     0.028 C 
HETATM    5  C6  UNL     1      23.942   2.810  50.221  1.00  0.00     0.042 A 
HETATM    6  N1  UNL     1      23.053   3.565  49.719  1.00  0.00    -0.279 NA
HETATM    7  C7  UNL     1      23.245   4.732  48.914  1.00  0.00     0.175 A 
HETATM    8  C13 UNL     1      24.676   5.049  48.844  1.00  0.00    -0.022 A 
HETATM    9  C14 UNL     1      25.040   6.215  48.210  1.00  0.00     0.010 A 
HETATM   10  C15 UNL     1      26.339   6.653  48.061  1.00  0.00     0.001 A 
HETATM   11  C16 UNL     1      27.363   5.862  48.587  1.00  0.00     0.001 A 
HETATM   12  C17 UNL     1      27.002   4.689  49.226  1.00  0.00     0.009 A 
HETATM   13  C18 UNL     1      25.690   4.275  49.361  1.00  0.00    -0.036 A 
HETATM   14  C19 UNL     1      25.394   2.999  50.063  1.00  0.00     0.093 A 
HETATM   15  C20 UNL     1      26.147   2.911  51.338  1.00  0.00    -0.010 C 
HETATM   16  C21 UNL     1      26.259   2.256  52.472  1.00  0.00     0.018 C 
ENDROOT
BRANCH   7  17
HETATM   17  C8  UNL     1      22.435   5.867  49.441  1.00  0.00    -0.026 A 
HETATM   18  C9  UNL     1      21.540   6.548  48.639  1.00  0.00     0.029 A 
HETATM   19  C10 UNL     1      20.789   7.597  49.121  1.00  0.00     0.117 A 
HETATM   20  N2  UNL     1      20.943   7.952  50.402  1.00  0.00    -0.273 NA
HETATM   21  C11 UNL     1      21.812   7.287  51.176  1.00  0.00     0.117 A 
HETATM   22  C12 UNL     1      22.606   6.221  50.768  1.00  0.00     0.029 A 
ENDBRANCH   7  17
BRANCH   1  23
HETATM   23  S1  UNL     1      26.372   0.213  54.320  1.00  0.00     0.078 S 
HETATM   24  O1  UNL     1      26.048  -1.275  54.211  1.00  0.00    -0.250 OA
BRANCH  23  25
HETATM   25  C1  UNL     1      28.143   0.454  54.147  1.00  0.00     0.336 C 
HETATM   26  F1  UNL     1      28.782   0.645  55.342  1.00  0.00    -0.242 F 
ENDBRANCH  23  25
ENDBRANCH   1  23
TORSDOF 3
ENDMDL
MODEL 7
REMARK VINA RESULT:      -8.0      1.836      2.241
REMARK  3 active torsions:
REMARK  status: ('A' for Active; 'I' for Inactive)
REMARK    1  A    between atoms: S1_2  and  C1_3 
REMARK    2  A    between atoms: S1_2  and  C2_5 
REMARK    3  A    between atoms: C7_11  and  C8_12 
ROOT
HETATM    1  C2  UNL     1      22.011   6.031  50.525  1.00  0.00     0.033 C 
HETATM    2  C3  UNL     1      22.968   5.841  49.611  1.00  0.00     0.021 C 
HETATM    3  C4  UNL     1      23.914   4.779  49.299  1.00  0.00     0.003 C 
HETATM    4  C5  UNL     1      24.029   3.559  49.791  1.00  0.00     0.028 C 
HETATM    5  C6  UNL     1      23.421   2.656  50.761  1.00  0.00     0.042 A 
HETATM    6  N1  UNL     1      24.365   1.848  51.024  1.00  0.00    -0.279 NA
HETATM    7  C7  UNL     1      24.343   0.735  51.923  1.00  0.00     0.175 A 
HETATM    8  C13 UNL     1      23.068   0.717  52.649  1.00  0.00    -0.022 A 
HETATM    9  C14 UNL     1      22.918  -0.216  53.649  1.00  0.00     0.010 A 
HETATM   10  C15 UNL     1      21.784  -0.361  54.421  1.00  0.00     0.001 A 
HETATM   11  C16 UNL     1      20.708   0.496  54.176  1.00  0.00     0.001 A 
HETATM   12  C17 UNL     1      20.855   1.436  53.171  1.00  0.00     0.009 A 
HETATM   13  C18 UNL     1      22.005   1.559  52.413  1.00  0.00    -0.036 A 
HETATM   14  C19 UNL     1      22.075   2.598  51.353  1.00  0.00     0.093 A 
HETATM   15  C20 UNL     1      21.592   3.906  51.863  1.00  0.00    -0.010 C 
HETATM   16  C21 UNL     1      21.533   5.195  51.616  1.00  0.00     0.018 C 
ENDROOT
BRANCH   7  17
HETATM   17  C8  UNL     1      25.519   0.782  52.838  1.00  0.00    -0.026 A 
HETATM   18  C9  UNL     1      26.343  -0.313  53.011  1.00  0.00     0.029 A 
HETATM   19  C10 UNL     1      27.430  -0.274  53.854  1.00  0.00     0.117 A 
HETATM   20  N2  UNL     1      27.681   0.861  54.515  1.00  0.00    -0.273 NA
HETATM   21  C11 UNL     1      26.880   1.922  54.343  1.00  0.00     0.117 A 
HETATM   22  C12 UNL     1      25.765   1.966  53.513  1.00  0.00     0.029 A 
ENDBRANCH   7  17
BRANCH   1  23
HETATM   23  S1  UNL     1      21.235   7.602  50.306  1.00  0.00     0.078 S 
HETATM   24  O1  UNL     1      22.148   8.555  49.537  1.00  0.00    -0.250 OA
BRANCH  23  25
HETATM   25  C1  UNL     1      19.708   7.370  49.391  1.00  0.00     0.336 C 
HETATM   26  F1  UNL     1      19.889   6.746  48.186  1.00  0.00    -0.242 F 
ENDBRANCH  23  25
ENDBRANCH   1  23
TORSDOF 3
ENDMDL
MODEL 8
REMARK VINA RESULT:      -7.9      4.682      7.864
REMARK  3 active torsions:
REMARK  status: ('A' for Active; 'I' for Inactive)
REMARK    1  A    between atoms: S1_2  and  C1_3 
REMARK    2  A    between atoms: S1_2  and  C2_5 
REMARK    3  A    between atoms: C7_11  and  C8_12 
ROOT
HETATM    1  C2  UNL     1      22.989   0.418  52.494  1.00  0.00     0.033 C 
HETATM    2  C3  UNL     1      21.787   0.241  51.937  1.00  0.00     0.021 C 
HETATM    3  C4  UNL     1      21.020   0.895  50.885  1.00  0.00     0.003 C 
HETATM    4  C5  UNL     1      21.363   1.845  50.036  1.00  0.00     0.028 C 
HETATM    5  C6  UNL     1      22.490   2.692  49.663  1.00  0.00     0.042 A 
HETATM    6  N1  UNL     1      21.926   3.682  49.102  1.00  0.00    -0.279 NA
HETATM    7  C7  UNL     1      22.545   4.839  48.532  1.00  0.00     0.175 A 
HETATM    8  C13 UNL     1      23.987   4.808  48.807  1.00  0.00    -0.022 A 
HETATM    9  C14 UNL     1      24.728   5.907  48.438  1.00  0.00     0.010 A 
HETATM   10  C15 UNL     1      26.089   6.032  48.626  1.00  0.00     0.001 A 
HETATM   11  C16 UNL     1      26.769   4.973  49.233  1.00  0.00     0.001 A 
HETATM   12  C17 UNL     1      26.026   3.866  49.607  1.00  0.00     0.009 A 
HETATM   13  C18 UNL     1      24.662   3.768  49.406  1.00  0.00    -0.036 A 
HETATM   14  C19 UNL     1      23.944   2.541  49.838  1.00  0.00     0.093 A 
HETATM   15  C20 UNL     1      24.341   2.156  51.215  1.00  0.00    -0.010 C 
HETATM   16  C21 UNL     1      24.041   1.391  52.241  1.00  0.00     0.018 C 
ENDROOT
BRANCH   7  17
HETATM   17  C8  UNL     1      21.895   6.081  49.038  1.00  0.00    -0.026 A 
HETATM   18  C9  UNL     1      21.913   6.410  50.380  1.00  0.00     0.029 A 
HETATM   19  C10 UNL     1      21.315   7.556  50.852  1.00  0.00     0.117 A 
HETATM   20  N2  UNL     1      20.705   8.361  49.976  1.00  0.00    -0.273 NA
HETATM   21  C11 UNL     1      20.690   8.039  48.675  1.00  0.00     0.117 A 
HETATM   22  C12 UNL     1      21.269   6.903  48.117  1.00  0.00     0.029 A 
ENDBRANCH   7  17
BRANCH   1  23
HETATM   23  S1  UNL     1      23.280  -0.782  53.757  1.00  0.00     0.078 S 
HETATM   24  O1  UNL     1      24.592  -0.496  54.484  1.00  0.00    -0.250 OA
BRANCH  23  25
HETATM   25  C1  UNL     1      21.922  -0.727  54.930  1.00  0.00     0.336 C 
HETATM   26  F1  UNL     1      20.964  -1.676  54.693  1.00  0.00    -0.242 F 
ENDBRANCH  23  25
ENDBRANCH   1  23
TORSDOF 3
ENDMDL
MODEL 9
REMARK VINA RESULT:      -7.9      4.693      7.348
REMARK  3 active torsions:
REMARK  status: ('A' for Active; 'I' for Inactive)
REMARK    1  A    between atoms: S1_2  and  C1_3 
REMARK    2  A    between atoms: S1_2  and  C2_5 
REMARK    3  A    between atoms: C7_11  and  C8_12 
ROOT
HETATM    1  C2  UNL     1      25.838   0.495  52.424  1.00  0.00     0.033 C 
HETATM    2  C3  UNL     1      26.772   1.303  51.914  1.00  0.00     0.021 C 
HETATM    3  C4  UNL     1      26.773   2.555  51.168  1.00  0.00     0.003 C 
HETATM    4  C5  UNL     1      25.783   3.373  50.862  1.00  0.00     0.028 C 
HETATM    5  C6  UNL     1      24.344   3.537  51.026  1.00  0.00     0.042 A 
HETATM    6  N1  UNL     1      24.033   4.292  50.054  1.00  0.00    -0.279 NA
HETATM    7  C7  UNL     1      22.738   4.792  49.709  1.00  0.00     0.175 A 
HETATM    8  C13 UNL     1      21.729   4.184  50.587  1.00  0.00    -0.022 A 
HETATM    9  C14 UNL     1      20.407   4.456  50.320  1.00  0.00     0.010 A 
HETATM   10  C15 UNL     1      19.344   3.963  51.048  1.00  0.00     0.001 A 
HETATM   11  C16 UNL     1      19.622   3.131  52.135  1.00  0.00     0.001 A 
HETATM   12  C17 UNL     1      20.951   2.855  52.407  1.00  0.00     0.009 A 
HETATM   13  C18 UNL     1      21.997   3.363  51.658  1.00  0.00    -0.036 A 
HETATM   14  C19 UNL     1      23.394   3.014  52.023  1.00  0.00     0.093 A 
HETATM   15  C20 UNL     1      23.528   1.556  52.264  1.00  0.00    -0.010 C 
HETATM   16  C21 UNL     1      24.385   0.572  52.422  1.00  0.00     0.018 C 
ENDROOT
BRANCH   7  17
HETATM   17  C8  UNL     1      22.454   4.553  48.266  1.00  0.00    -0.026 A 
HETATM   18  C9  UNL     1      22.306   5.599  47.376  1.00  0.00     0.029 A 
HETATM   19  C10 UNL     1      22.046   5.384  46.042  1.00  0.00     0.117 A 
HETATM   20  N2  UNL     1      21.936   4.122  45.612  1.00  0.00    -0.273 NA
HETATM   21  C11 UNL     1      22.081   3.110  46.478  1.00  0.00     0.117 A 
HETATM   22  C12 UNL     1      22.345   3.241  47.838  1.00  0.00     0.029 A 
ENDBRANCH   7  17
BRANCH   1  23
HETATM   23  S1  UNL     1      26.577  -0.892  53.229  1.00  0.00     0.078 S 
HETATM   24  O1  UNL     1      26.716  -2.067  52.263  1.00  0.00    -0.250 OA
BRANCH  23  25
HETATM   25  C1  UNL     1      28.201  -0.415  53.827  1.00  0.00     0.336 C 
HETATM   26  F1  UNL     1      28.203  -0.039  55.143  1.00  0.00    -0.242 F 
ENDBRANCH  23  25
ENDBRANCH   1  23
TORSDOF 3
ENDMDL
