MODEL 1
REMARK VINA RESULT:      -8.5      0.000      0.000
REMARK  5 active torsions:
REMARK  status: ('A' for Active; 'I' for Inactive)
REMARK    1  A    between atoms: C3_3  and  C4_4 
REMARK    2  A    between atoms: C4_4  and  N1_5 
REMARK    3  A    between atoms: N1_5  and  C5_6 
REMARK    4  A    between atoms: C8_11  and  N3_12 
REMARK    5  A    between atoms: N3_12  and  C9_13 
ROOT
HETATM    1  N3  UNL     1      22.236   0.753  52.707  1.00  0.00    -0.323 N 
HETATM    2  H10 UNL     1      21.201   0.546  52.843  1.00  0.00     0.169 HD
ENDROOT
BRANCH   1   3
HETATM    3  C8  UNL     1      22.960  -0.015  53.654  1.00  0.00     0.188 A 
HETATM    4  C7  UNL     1      22.438  -0.779  54.683  1.00  0.00     0.180 A 
HETATM    5  C6  UNL     1      23.255  -1.472  55.549  1.00  0.00     0.182 A 
HETATM    6  F1  UNL     1      21.115  -0.848  54.818  1.00  0.00    -0.200 F 
HETATM    7  N2  UNL     1      24.615  -1.413  55.397  1.00  0.00    -0.072 NA
HETATM    8  C5  UNL     1      25.128  -0.675  54.401  1.00  0.00     0.724 A 
HETATM    9  N6  UNL     1      24.294  -0.020  53.587  1.00  0.00    -0.042 NA
BRANCH   8  10
HETATM   10  N1  UNL     1      26.522  -0.564  54.164  1.00  0.00    -0.219 N 
HETATM   11  H8  UNL     1      26.957  -1.169  53.420  1.00  0.00     0.178 HD
BRANCH  10  12
HETATM   12  C4  UNL     1      27.449   0.302  54.842  1.00  0.00     0.165 C 
BRANCH  12  13
HETATM   13  C3  UNL     1      28.672   0.612  54.093  1.00  0.00    -0.011 C 
HETATM   14  C2  UNL     1      29.766   0.103  53.549  1.00  0.00    -0.033 C 
HETATM   15  C1  UNL     1      29.993  -1.377  53.657  1.00  0.00     0.036 C 
ENDBRANCH  12  13
ENDBRANCH  10  12
ENDBRANCH   8  10
ENDBRANCH   1   3
BRANCH   1  16
HETATM   16  C9  UNL     1      22.601   1.681  51.699  1.00  0.00     0.131 A 
HETATM   17  C10 UNL     1      22.371   1.491  50.361  1.00  0.00     0.053 A 
HETATM   18  C11 UNL     1      22.724   2.382  49.350  1.00  0.00     0.044 A 
HETATM   19  C12 UNL     1      23.360   3.534  49.831  1.00  0.00     0.116 A 
HETATM   20  C13 UNL     1      23.585   3.716  51.187  1.00  0.00     0.166 A 
HETATM   21  O2  UNL     1      23.787   4.544  48.950  1.00  0.00    -0.327 OA
HETATM   22  N4  UNL     1      23.214   2.810  52.086  1.00  0.00    -0.211 NA
HETATM   23  N5  UNL     1      24.212   4.920  51.629  1.00  0.00    -0.307 N 
HETATM   24  C14 UNL     1      24.601   5.921  50.689  1.00  0.00     0.258 C 
HETATM   25  H13 UNL     1      24.373   5.035  52.671  1.00  0.00     0.170 HD
HETATM   26  O1  UNL     1      24.646   7.119  51.092  1.00  0.00    -0.270 OA
HETATM   27  C15 UNL     1      24.903   5.367  49.324  1.00  0.00     0.141 C 
HETATM   28  C16 UNL     1      26.169   4.548  49.505  1.00  0.00     0.057 C 
HETATM   29  C17 UNL     1      25.040   6.425  48.277  1.00  0.00     0.057 C 
ENDBRANCH   1  16
TORSDOF 5
ENDMDL
MODEL 2
REMARK VINA RESULT:      -8.5      1.686      2.092
REMARK  5 active torsions:
REMARK  status: ('A' for Active; 'I' for Inactive)
REMARK    1  A    between atoms: C3_3  and  C4_4 
REMARK    2  A    between atoms: C4_4  and  N1_5 
REMARK    3  A    between atoms: N1_5  and  C5_6 
REMARK    4  A    between atoms: C8_11  and  N3_12 
REMARK    5  A    between atoms: N3_12  and  C9_13 
ROOT
HETATM    1  N3  UNL     1      24.481   1.156  51.855  1.00  0.00    -0.323 N 
HETATM    2  H10 UNL     1      24.529   0.458  51.053  1.00  0.00     0.169 HD
ENDROOT
BRANCH   1   3
HETATM    3  C8  UNL     1      24.878   0.486  53.040  1.00  0.00     0.188 A 
HETATM    4  C7  UNL     1      24.121  -0.393  53.794  1.00  0.00     0.180 A 
HETATM    5  C6  UNL     1      24.621  -0.972  54.940  1.00  0.00     0.182 A 
HETATM    6  F1  UNL     1      22.889  -0.689  53.383  1.00  0.00    -0.200 F 
HETATM    7  N2  UNL     1      25.895  -0.679  55.350  1.00  0.00    -0.072 NA
HETATM    8  C5  UNL     1      26.635   0.171  54.623  1.00  0.00     0.724 A 
HETATM    9  N6  UNL     1      26.104   0.707  53.519  1.00  0.00    -0.042 NA
BRANCH   8  10
HETATM   10  N1  UNL     1      27.965   0.524  54.967  1.00  0.00    -0.219 N 
HETATM   11  H8  UNL     1      28.166   0.826  55.956  1.00  0.00     0.178 HD
BRANCH  10  12
HETATM   12  C4  UNL     1      29.113   0.526  54.100  1.00  0.00     0.165 C 
BRANCH  12  13
HETATM   13  C3  UNL     1      29.692  -0.795  53.834  1.00  0.00    -0.011 C 
HETATM   14  C2  UNL     1      29.453  -2.004  53.350  1.00  0.00    -0.033 C 
HETATM   15  C1  UNL     1      28.081  -2.301  52.820  1.00  0.00     0.036 C 
ENDBRANCH  12  13
ENDBRANCH  10  12
ENDBRANCH   8  10
ENDBRANCH   1   3
BRANCH   1  16
HETATM   16  C9  UNL     1      24.055   2.477  51.561  1.00  0.00     0.131 A 
HETATM   17  C10 UNL     1      22.761   2.913  51.692  1.00  0.00     0.053 A 
HETATM   18  C11 UNL     1      22.314   4.201  51.406  1.00  0.00     0.044 A 
HETATM   19  C12 UNL     1      23.335   5.049  50.954  1.00  0.00     0.116 A 
HETATM   20  C13 UNL     1      24.640   4.595  50.828  1.00  0.00     0.166 A 
HETATM   21  O2  UNL     1      23.065   6.387  50.616  1.00  0.00    -0.327 OA
HETATM   22  N4  UNL     1      24.979   3.345  51.124  1.00  0.00    -0.211 NA
HETATM   23  N5  UNL     1      25.648   5.506  50.389  1.00  0.00    -0.307 N 
HETATM   24  C14 UNL     1      25.318   6.861  50.086  1.00  0.00     0.258 C 
HETATM   25  H13 UNL     1      26.638   5.136  50.301  1.00  0.00     0.170 HD
HETATM   26  O1  UNL     1      26.226   7.731  50.219  1.00  0.00    -0.270 OA
HETATM   27  C15 UNL     1      23.893   7.039  49.639  1.00  0.00     0.141 C 
HETATM   28  C16 UNL     1      23.816   6.349  48.288  1.00  0.00     0.057 C 
HETATM   29  C17 UNL     1      23.467   8.470  49.587  1.00  0.00     0.057 C 
ENDBRANCH   1  16
TORSDOF 5
ENDMDL
MODEL 3
REMARK VINA RESULT:      -8.4      3.284      6.209
REMARK  5 active torsions:
REMARK  status: ('A' for Active; 'I' for Inactive)
REMARK    1  A    between atoms: C3_3  and  C4_4 
REMARK    2  A    between atoms: C4_4  and  N1_5 
REMARK    3  A    between atoms: N1_5  and  C5_6 
REMARK    4  A    between atoms: C8_11  and  N3_12 
REMARK    5  A    between atoms: N3_12  and  C9_13 
ROOT
HETATM    1  N3  UNL     1      23.350   4.002  52.217  1.00  0.00    -0.323 N 
HETATM    2  H10 UNL     1      23.410   5.052  52.380  1.00  0.00     0.169 HD
ENDROOT
BRANCH   1   3
HETATM    3  C8  UNL     1      21.979   3.657  52.108  1.00  0.00     0.188 A 
HETATM    4  C7  UNL     1      20.975   4.406  51.520  1.00  0.00     0.180 A 
HETATM    5  C6  UNL     1      19.671   3.961  51.491  1.00  0.00     0.182 A 
HETATM    6  F1  UNL     1      21.293   5.573  50.962  1.00  0.00    -0.200 F 
HETATM    7  N2  UNL     1      19.351   2.753  52.051  1.00  0.00    -0.072 NA
HETATM    8  C5  UNL     1      20.320   2.021  52.621  1.00  0.00     0.724 A 
HETATM    9  N6  UNL     1      21.569   2.496  52.624  1.00  0.00    -0.042 NA
BRANCH   8  10
HETATM   10  N1  UNL     1      20.081   0.756  53.216  1.00  0.00    -0.219 N 
HETATM   11  H8  UNL     1      19.521   0.045  52.679  1.00  0.00     0.178 HD
BRANCH  10  12
HETATM   12  C4  UNL     1      20.523   0.311  54.510  1.00  0.00     0.165 C 
BRANCH  12  13
HETATM   13  C3  UNL     1      21.327  -0.916  54.505  1.00  0.00    -0.011 C 
HETATM   14  C2  UNL     1      22.466  -1.462  54.107  1.00  0.00    -0.033 C 
HETATM   15  C1  UNL     1      23.434  -0.610  53.339  1.00  0.00     0.036 C 
ENDBRANCH  12  13
ENDBRANCH  10  12
ENDBRANCH   8  10
ENDBRANCH   1   3
BRANCH   1  16
HETATM   16  C9  UNL     1      24.563   3.268  52.164  1.00  0.00     0.131 A 
HETATM   17  C10 UNL     1      25.340   3.149  51.041  1.00  0.00     0.053 A 
HETATM   18  C11 UNL     1      26.531   2.431  50.959  1.00  0.00     0.044 A 
HETATM   19  C12 UNL     1      26.884   1.815  52.167  1.00  0.00     0.116 A 
HETATM   20  C13 UNL     1      26.090   1.944  53.297  1.00  0.00     0.166 A 
HETATM   21  O2  UNL     1      28.057   1.046  52.270  1.00  0.00    -0.327 OA
HETATM   22  N4  UNL     1      24.965   2.651  53.285  1.00  0.00    -0.211 NA
HETATM   23  N5  UNL     1      26.508   1.319  54.511  1.00  0.00    -0.307 N 
HETATM   24  C14 UNL     1      27.724   0.572  54.560  1.00  0.00     0.258 C 
HETATM   25  H13 UNL     1      25.884   1.433  55.361  1.00  0.00     0.170 HD
HETATM   26  O1  UNL     1      28.319   0.493  55.673  1.00  0.00    -0.270 OA
HETATM   27  C15 UNL     1      28.110  -0.019  53.232  1.00  0.00     0.141 C 
HETATM   28  C16 UNL     1      27.059  -1.080  52.955  1.00  0.00     0.057 C 
HETATM   29  C17 UNL     1      29.503  -0.561  53.214  1.00  0.00     0.057 C 
ENDBRANCH   1  16
TORSDOF 5
ENDMDL
MODEL 4
REMARK VINA RESULT:      -8.3      2.777      4.687
REMARK  5 active torsions:
REMARK  status: ('A' for Active; 'I' for Inactive)
REMARK    1  A    between atoms: C3_3  and  C4_4 
REMARK    2  A    between atoms: C4_4  and  N1_5 
REMARK    3  A    between atoms: N1_5  and  C5_6 
REMARK    4  A    between atoms: C8_11  and  N3_12 
REMARK    5  A    between atoms: N3_12  and  C9_13 
ROOT
HETATM    1  N3  UNL     1      26.419   2.857  52.130  1.00  0.00    -0.323 N 
HETATM    2  H10 UNL     1      27.200   3.561  51.965  1.00  0.00     0.169 HD
ENDROOT
BRANCH   1   3
HETATM    3  C8  UNL     1      26.891   1.894  53.058  1.00  0.00     0.188 A 
HETATM    4  C7  UNL     1      28.132   1.864  53.670  1.00  0.00     0.180 A 
HETATM    5  C6  UNL     1      28.475   0.860  54.548  1.00  0.00     0.182 A 
HETATM    6  F1  UNL     1      28.997   2.841  53.406  1.00  0.00    -0.200 F 
HETATM    7  N2  UNL     1      27.576  -0.135  54.831  1.00  0.00    -0.072 NA
HETATM    8  C5  UNL     1      26.371  -0.111  54.242  1.00  0.00     0.724 A 
HETATM    9  N6  UNL     1      26.086   0.885  53.397  1.00  0.00    -0.042 NA
BRANCH   8  10
HETATM   10  N1  UNL     1      25.377  -1.093  54.483  1.00  0.00    -0.219 N 
HETATM   11  H8  UNL     1      25.238  -1.855  53.770  1.00  0.00     0.178 HD
BRANCH  10  12
HETATM   12  C4  UNL     1      24.499  -1.176  55.620  1.00  0.00     0.165 C 
BRANCH  12  13
HETATM   13  C3  UNL     1      23.070  -1.254  55.299  1.00  0.00    -0.011 C 
HETATM   14  C2  UNL     1      22.107  -0.774  54.528  1.00  0.00    -0.033 C 
HETATM   15  C1  UNL     1      22.458   0.287  53.526  1.00  0.00     0.036 C 
ENDBRANCH  12  13
ENDBRANCH  10  12
ENDBRANCH   8  10
ENDBRANCH   1   3
BRANCH   1  16
HETATM   16  C9  UNL     1      25.201   3.039  51.427  1.00  0.00     0.131 A 
HETATM   17  C10 UNL     1      25.092   3.022  50.061  1.00  0.00     0.053 A 
HETATM   18  C11 UNL     1      23.912   3.203  49.345  1.00  0.00     0.044 A 
HETATM   19  C12 UNL     1      22.797   3.415  50.169  1.00  0.00     0.116 A 
HETATM   20  C13 UNL     1      22.920   3.429  51.550  1.00  0.00     0.166 A 
HETATM   21  O2  UNL     1      21.520   3.619  49.617  1.00  0.00    -0.327 OA
HETATM   22  N4  UNL     1      24.091   3.246  52.152  1.00  0.00    -0.211 NA
HETATM   23  N5  UNL     1      21.750   3.622  52.346  1.00  0.00    -0.307 N 
HETATM   24  C14 UNL     1      20.475   3.797  51.728  1.00  0.00     0.258 C 
HETATM   25  H13 UNL     1      21.869   3.627  53.399  1.00  0.00     0.170 HD
HETATM   26  O1  UNL     1      19.452   3.443  52.382  1.00  0.00    -0.270 OA
HETATM   27  C15 UNL     1      20.560   4.395  50.351  1.00  0.00     0.141 C 
HETATM   28  C16 UNL     1      21.041   5.819  50.572  1.00  0.00     0.057 C 
HETATM   29  C17 UNL     1      19.270   4.326  49.599  1.00  0.00     0.057 C 
ENDBRANCH   1  16
TORSDOF 5
ENDMDL
MODEL 5
REMARK VINA RESULT:      -8.2      3.076      5.788
REMARK  5 active torsions:
REMARK  status: ('A' for Active; 'I' for Inactive)
REMARK    1  A    between atoms: C3_3  and  C4_4 
REMARK    2  A    between atoms: C4_4  and  N1_5 
REMARK    3  A    between atoms: N1_5  and  C5_6 
REMARK    4  A    between atoms: C8_11  and  N3_12 
REMARK    5  A    between atoms: N3_12  and  C9_13 
ROOT
HETATM    1  N3  UNL     1      24.999  -0.082  53.920  1.00  0.00    -0.323 N 
HETATM    2  H10 UNL     1      25.345  -0.827  54.597  1.00  0.00     0.169 HD
ENDROOT
BRANCH   1   3
HETATM    3  C8  UNL     1      26.118   0.687  53.512  1.00  0.00     0.188 A 
HETATM    4  C7  UNL     1      27.425   0.552  53.945  1.00  0.00     0.180 A 
HETATM    5  C6  UNL     1      28.425   1.377  53.478  1.00  0.00     0.182 A 
HETATM    6  F1  UNL     1      27.711  -0.408  54.822  1.00  0.00    -0.200 F 
HETATM    7  N2  UNL     1      28.131   2.353  52.563  1.00  0.00    -0.072 NA
HETATM    8  C5  UNL     1      26.866   2.488  52.137  1.00  0.00     0.724 A 
HETATM    9  N6  UNL     1      25.932   1.664  52.621  1.00  0.00    -0.042 NA
BRANCH   8  10
HETATM   10  N1  UNL     1      26.473   3.464  51.186  1.00  0.00    -0.219 N 
HETATM   11  H8  UNL     1      26.028   4.353  51.531  1.00  0.00     0.178 HD
BRANCH  10  12
HETATM   12  C4  UNL     1      26.609   3.383  49.756  1.00  0.00     0.165 C 
BRANCH  12  13
HETATM   13  C3  UNL     1      26.585   4.671  49.055  1.00  0.00    -0.011 C 
HETATM   14  C2  UNL     1      27.325   5.591  48.455  1.00  0.00    -0.033 C 
HETATM   15  C1  UNL     1      28.807   5.373  48.377  1.00  0.00     0.036 C 
ENDBRANCH  12  13
ENDBRANCH  10  12
ENDBRANCH   8  10
ENDBRANCH   1   3
BRANCH   1  16
HETATM   16  C9  UNL     1      23.612  -0.043  53.628  1.00  0.00     0.131 A 
HETATM   17  C10 UNL     1      22.760  -1.104  53.799  1.00  0.00     0.053 A 
HETATM   18  C11 UNL     1      21.397  -1.095  53.516  1.00  0.00     0.044 A 
HETATM   19  C12 UNL     1      20.947   0.137  53.021  1.00  0.00     0.116 A 
HETATM   20  C13 UNL     1      21.818   1.204  52.854  1.00  0.00     0.166 A 
HETATM   21  O2  UNL     1      19.596   0.328  52.679  1.00  0.00    -0.327 OA
HETATM   22  N4  UNL     1      23.110   1.106  53.151  1.00  0.00    -0.211 NA
HETATM   23  N5  UNL     1      21.305   2.446  52.372  1.00  0.00    -0.307 N 
HETATM   24  C14 UNL     1      19.918   2.587  52.067  1.00  0.00     0.258 C 
HETATM   25  H13 UNL     1      21.991   3.247  52.254  1.00  0.00     0.170 HD
HETATM   26  O1  UNL     1      19.411   3.742  52.162  1.00  0.00    -0.270 OA
HETATM   27  C15 UNL     1      19.264   1.293  51.669  1.00  0.00     0.141 C 
HETATM   28  C16 UNL     1      19.882   0.938  50.328  1.00  0.00     0.057 C 
HETATM   29  C17 UNL     1      17.772   1.380  51.617  1.00  0.00     0.057 C 
ENDBRANCH   1  16
TORSDOF 5
ENDMDL
MODEL 6
REMARK VINA RESULT:      -8.2      1.628      2.214
REMARK  5 active torsions:
REMARK  status: ('A' for Active; 'I' for Inactive)
REMARK    1  A    between atoms: C3_3  and  C4_4 
REMARK    2  A    between atoms: C4_4  and  N1_5 
REMARK    3  A    between atoms: N1_5  and  C5_6 
REMARK    4  A    between atoms: C8_11  and  N3_12 
REMARK    5  A    between atoms: N3_12  and  C9_13 
ROOT
HETATM    1  N3  UNL     1      22.350   1.087  52.018  1.00  0.00    -0.323 N 
HETATM    2  H10 UNL     1      21.656   0.714  51.303  1.00  0.00     0.169 HD
ENDROOT
BRANCH   1   3
HETATM    3  C8  UNL     1      22.406   0.164  53.093  1.00  0.00     0.188 A 
HETATM    4  C7  UNL     1      21.349  -0.536  53.646  1.00  0.00     0.180 A 
HETATM    5  C6  UNL     1      21.535  -1.400  54.704  1.00  0.00     0.182 A 
HETATM    6  F1  UNL     1      20.134  -0.374  53.126  1.00  0.00    -0.200 F 
HETATM    7  N2  UNL     1      22.790  -1.578  55.225  1.00  0.00    -0.072 NA
HETATM    8  C5  UNL     1      23.819  -0.903  54.692  1.00  0.00     0.724 A 
HETATM    9  N6  UNL     1      23.587  -0.077  53.668  1.00  0.00    -0.042 NA
BRANCH   8  10
HETATM   10  N1  UNL     1      25.151  -1.033  55.162  1.00  0.00    -0.219 N 
HETATM   11  H8  UNL     1      25.462  -1.962  55.545  1.00  0.00     0.178 HD
BRANCH  10  12
HETATM   12  C4  UNL     1      26.164  -0.012  55.184  1.00  0.00     0.165 C 
BRANCH  12  13
HETATM   13  C3  UNL     1      27.284  -0.228  54.261  1.00  0.00    -0.011 C 
HETATM   14  C2  UNL     1      27.647  -0.259  52.988  1.00  0.00    -0.033 C 
HETATM   15  C1  UNL     1      26.606   0.016  51.943  1.00  0.00     0.036 C 
ENDBRANCH  12  13
ENDBRANCH  10  12
ENDBRANCH   8  10
ENDBRANCH   1   3
BRANCH   1  16
HETATM   16  C9  UNL     1      22.986   2.325  51.743  1.00  0.00     0.131 A 
HETATM   17  C10 UNL     1      22.640   3.514  52.332  1.00  0.00     0.053 A 
HETATM   18  C11 UNL     1      23.243   4.743  52.076  1.00  0.00     0.044 A 
HETATM   19  C12 UNL     1      24.273   4.663  51.129  1.00  0.00     0.116 A 
HETATM   20  C13 UNL     1      24.615   3.453  50.542  1.00  0.00     0.166 A 
HETATM   21  O2  UNL     1      24.994   5.809  50.747  1.00  0.00    -0.327 OA
HETATM   22  N4  UNL     1      23.983   2.324  50.846  1.00  0.00    -0.211 NA
HETATM   23  N5  UNL     1      25.690   3.420  49.603  1.00  0.00    -0.307 N 
HETATM   24  C14 UNL     1      26.402   4.613  49.274  1.00  0.00     0.258 C 
HETATM   25  H13 UNL     1      25.932   2.484  49.168  1.00  0.00     0.170 HD
HETATM   26  O1  UNL     1      27.603   4.495  48.898  1.00  0.00    -0.270 OA
HETATM   27  C15 UNL     1      25.575   5.860  49.435  1.00  0.00     0.141 C 
HETATM   28  C16 UNL     1      24.519   5.772  48.347  1.00  0.00     0.057 C 
HETATM   29  C17 UNL     1      26.385   7.114  49.360  1.00  0.00     0.057 C 
ENDBRANCH   1  16
TORSDOF 5
ENDMDL
MODEL 7
REMARK VINA RESULT:      -8.0      8.096     11.289
REMARK  5 active torsions:
REMARK  status: ('A' for Active; 'I' for Inactive)
REMARK    1  A    between atoms: C3_3  and  C4_4 
REMARK    2  A    between atoms: C4_4  and  N1_5 
REMARK    3  A    between atoms: N1_5  and  C5_6 
REMARK    4  A    between atoms: C8_11  and  N3_12 
REMARK    5  A    between atoms: N3_12  and  C9_13 
ROOT
HETATM    1  N3  UNL     1      30.819   8.441  49.730  1.00  0.00    -0.323 N 
HETATM    2  H10 UNL     1      30.834   8.380  50.793  1.00  0.00     0.169 HD
ENDROOT
BRANCH   1   3
HETATM    3  C8  UNL     1      29.746   9.290  49.359  1.00  0.00     0.188 A 
HETATM    4  C7  UNL     1      29.809  10.646  49.094  1.00  0.00     0.180 A 
HETATM    5  C6  UNL     1      28.684  11.365  48.754  1.00  0.00     0.182 A 
HETATM    6  F1  UNL     1      30.992  11.255  49.159  1.00  0.00    -0.200 F 
HETATM    7  N2  UNL     1      27.471  10.733  48.671  1.00  0.00    -0.072 NA
HETATM    8  C5  UNL     1      27.403   9.418  48.925  1.00  0.00     0.724 A 
HETATM    9  N6  UNL     1      28.523   8.765  49.252  1.00  0.00    -0.042 NA
BRANCH   8  10
HETATM   10  N1  UNL     1      26.193   8.681  48.855  1.00  0.00    -0.219 N 
HETATM   11  H8  UNL     1      25.403   8.947  49.498  1.00  0.00     0.178 HD
BRANCH  10  12
HETATM   12  C4  UNL     1      25.904   7.573  47.984  1.00  0.00     0.165 C 
BRANCH  12  13
HETATM   13  C3  UNL     1      25.997   6.249  48.611  1.00  0.00    -0.011 C 
HETATM   14  C2  UNL     1      26.804   5.235  48.882  1.00  0.00    -0.033 C 
HETATM   15  C1  UNL     1      28.233   5.321  48.432  1.00  0.00     0.036 C 
ENDBRANCH  12  13
ENDBRANCH  10  12
ENDBRANCH   8  10
ENDBRANCH   1   3
BRANCH   1  16
HETATM   16  C9  UNL     1      31.794   7.706  49.009  1.00  0.00     0.131 A 
HETATM   17  C10 UNL     1      32.849   8.277  48.344  1.00  0.00     0.053 A 
HETATM   18  C11 UNL     1      33.817   7.581  47.625  1.00  0.00     0.044 A 
HETATM   19  C12 UNL     1      33.618   6.193  47.635  1.00  0.00     0.116 A 
HETATM   20  C13 UNL     1      32.548   5.628  48.313  1.00  0.00     0.166 A 
HETATM   21  O2  UNL     1      34.500   5.332  46.958  1.00  0.00    -0.327 OA
HETATM   22  N4  UNL     1      31.668   6.371  48.976  1.00  0.00    -0.211 NA
HETATM   23  N5  UNL     1      32.404   4.208  48.316  1.00  0.00    -0.307 N 
HETATM   24  C14 UNL     1      33.347   3.383  47.632  1.00  0.00     0.258 C 
HETATM   25  H13 UNL     1      31.579   3.800  48.842  1.00  0.00     0.170 HD
HETATM   26  O1  UNL     1      33.517   2.206  48.061  1.00  0.00    -0.270 OA
HETATM   27  C15 UNL     1      34.006   4.074  46.470  1.00  0.00     0.141 C 
HETATM   28  C16 UNL     1      32.900   4.263  45.447  1.00  0.00     0.057 C 
HETATM   29  C17 UNL     1      35.179   3.322  45.927  1.00  0.00     0.057 C 
ENDBRANCH   1  16
TORSDOF 5
ENDMDL
MODEL 8
REMARK VINA RESULT:      -8.0      2.924      4.360
REMARK  5 active torsions:
REMARK  status: ('A' for Active; 'I' for Inactive)
REMARK    1  A    between atoms: C3_3  and  C4_4 
REMARK    2  A    between atoms: C4_4  and  N1_5 
REMARK    3  A    between atoms: N1_5  and  C5_6 
REMARK    4  A    between atoms: C8_11  and  N3_12 
REMARK    5  A    between atoms: N3_12  and  C9_13 
ROOT
HETATM    1  N3  UNL     1      25.565   3.238  49.662  1.00  0.00    -0.323 N 
HETATM    2  H10 UNL     1      25.187   2.589  48.908  1.00  0.00     0.169 HD
ENDROOT
BRANCH   1   3
HETATM    3  C8  UNL     1      25.332   2.625  50.919  1.00  0.00     0.188 A 
HETATM    4  C7  UNL     1      24.217   1.899  51.299  1.00  0.00     0.180 A 
HETATM    5  C6  UNL     1      24.106   1.362  52.563  1.00  0.00     0.182 A 
HETATM    6  F1  UNL     1      23.245   1.710  50.409  1.00  0.00    -0.200 F 
HETATM    7  N2  UNL     1      25.116   1.543  53.471  1.00  0.00    -0.072 NA
HETATM    8  C5  UNL     1      26.200   2.245  53.109  1.00  0.00     0.724 A 
HETATM    9  N6  UNL     1      26.260   2.746  51.871  1.00  0.00    -0.042 NA
BRANCH   8  10
HETATM   10  N1  UNL     1      27.295   2.474  53.980  1.00  0.00    -0.219 N 
HETATM   11  H8  UNL     1      27.102   2.838  54.949  1.00  0.00     0.178 HD
BRANCH  10  12
HETATM   12  C4  UNL     1      28.689   2.267  53.691  1.00  0.00     0.165 C 
BRANCH  12  13
HETATM   13  C3  UNL     1      29.240   0.992  54.166  1.00  0.00    -0.011 C 
HETATM   14  C2  UNL     1      29.151  -0.325  54.075  1.00  0.00    -0.033 C 
HETATM   15  C1  UNL     1      28.117  -0.909  53.157  1.00  0.00     0.036 C 
ENDBRANCH  12  13
ENDBRANCH  10  12
ENDBRANCH   8  10
ENDBRANCH   1   3
BRANCH   1  16
HETATM   16  C9  UNL     1      26.151   4.463  49.252  1.00  0.00     0.131 A 
HETATM   17  C10 UNL     1      27.432   4.581  48.779  1.00  0.00     0.053 A 
HETATM   18  C11 UNL     1      28.034   5.770  48.375  1.00  0.00     0.044 A 
HETATM   19  C12 UNL     1      27.190   6.882  48.498  1.00  0.00     0.116 A 
HETATM   20  C13 UNL     1      25.895   6.749  48.977  1.00  0.00     0.166 A 
HETATM   21  O2  UNL     1      27.632   8.168  48.137  1.00  0.00    -0.327 OA
HETATM   22  N4  UNL     1      25.400   5.571  49.342  1.00  0.00    -0.211 NA
HETATM   23  N5  UNL     1      25.066   7.909  49.058  1.00  0.00    -0.307 N 
HETATM   24  C14 UNL     1      25.563   9.184  48.652  1.00  0.00     0.258 C 
HETATM   25  H13 UNL     1      24.080   7.782  49.427  1.00  0.00     0.170 HD
HETATM   26  O1  UNL     1      24.725  10.036  48.238  1.00  0.00    -0.270 OA
HETATM   27  C15 UNL     1      27.055   9.310  48.789  1.00  0.00     0.141 C 
HETATM   28  C16 UNL     1      27.315   9.294  50.285  1.00  0.00     0.057 C 
HETATM   29  C17 UNL     1      27.606  10.526  48.116  1.00  0.00     0.057 C 
ENDBRANCH   1  16
TORSDOF 5
ENDMDL
MODEL 9
REMARK VINA RESULT:      -7.9      3.137      6.577
REMARK  5 active torsions:
REMARK  status: ('A' for Active; 'I' for Inactive)
REMARK    1  A    between atoms: C3_3  and  C4_4 
REMARK    2  A    between atoms: C4_4  and  N1_5 
REMARK    3  A    between atoms: N1_5  and  C5_6 
REMARK    4  A    between atoms: C8_11  and  N3_12 
REMARK    5  A    between atoms: N3_12  and  C9_13 
ROOT
HETATM    1  N3  UNL     1      22.903   3.126  52.906  1.00  0.00    -0.323 N 
HETATM    2  H10 UNL     1      22.421   3.197  53.852  1.00  0.00     0.169 HD
ENDROOT
BRANCH   1   3
HETATM    3  C8  UNL     1      22.138   3.871  51.972  1.00  0.00     0.188 A 
HETATM    4  C7  UNL     1      20.767   3.821  51.790  1.00  0.00     0.180 A 
HETATM    5  C6  UNL     1      20.142   4.591  50.833  1.00  0.00     0.182 A 
HETATM    6  F1  UNL     1      20.048   3.019  52.572  1.00  0.00    -0.200 F 
HETATM    7  N2  UNL     1      20.883   5.428  50.041  1.00  0.00    -0.072 NA
HETATM    8  C5  UNL     1      22.212   5.482  50.214  1.00  0.00     0.724 A 
HETATM    9  N6  UNL     1      22.771   4.715  51.155  1.00  0.00    -0.042 NA
BRANCH   8  10
HETATM   10  N1  UNL     1      23.055   6.326  49.447  1.00  0.00    -0.219 N 
HETATM   11  H8  UNL     1      23.021   7.364  49.619  1.00  0.00     0.178 HD
BRANCH  10  12
HETATM   12  C4  UNL     1      23.981   5.924  48.422  1.00  0.00     0.165 C 
BRANCH  12  13
HETATM   13  C3  UNL     1      25.362   5.723  48.876  1.00  0.00    -0.011 C 
HETATM   14  C2  UNL     1      26.225   4.842  49.357  1.00  0.00    -0.033 C 
HETATM   15  C1  UNL     1      25.754   3.436  49.590  1.00  0.00     0.036 C 
ENDBRANCH  12  13
ENDBRANCH  10  12
ENDBRANCH   8  10
ENDBRANCH   1   3
BRANCH   1  16
HETATM   16  C9  UNL     1      24.091   2.356  52.821  1.00  0.00     0.131 A 
HETATM   17  C10 UNL     1      24.197   1.183  52.118  1.00  0.00     0.053 A 
HETATM   18  C11 UNL     1      25.348   0.405  52.022  1.00  0.00     0.044 A 
HETATM   19  C12 UNL     1      26.432   0.938  52.732  1.00  0.00     0.116 A 
HETATM   20  C13 UNL     1      26.312   2.127  53.437  1.00  0.00     0.166 A 
HETATM   21  O2  UNL     1      27.677   0.284  52.747  1.00  0.00    -0.327 OA
HETATM   22  N4  UNL     1      25.171   2.807  53.475  1.00  0.00    -0.211 NA
HETATM   23  N5  UNL     1      27.455   2.642  54.122  1.00  0.00    -0.307 N 
HETATM   24  C14 UNL     1      28.700   1.945  54.079  1.00  0.00     0.258 C 
HETATM   25  H13 UNL     1      27.338   3.552  54.653  1.00  0.00     0.170 HD
HETATM   26  O1  UNL     1      29.758   2.625  54.211  1.00  0.00    -0.270 OA
HETATM   27  C15 UNL     1      28.543   0.463  53.879  1.00  0.00     0.141 C 
HETATM   28  C16 UNL     1      27.904  -0.040  55.162  1.00  0.00     0.057 C 
HETATM   29  C17 UNL     1      29.831  -0.226  53.561  1.00  0.00     0.057 C 
ENDBRANCH   1  16
TORSDOF 5
ENDMDL
