MODEL 1
REMARK VINA RESULT:      -7.5      0.000      0.000
REMARK  2 active torsions:
REMARK  status: ('A' for Active; 'I' for Inactive)
REMARK    1  A    between atoms: N2_17  and  C15_18 
REMARK    2  A    between atoms: C16_20  and  O1_21 
ROOT
HETATM    1  C1  UNL     1      22.682   2.643  48.102  1.00  0.00     0.070 C 
HETATM    2  C2  UNL     1      22.224   2.046  49.383  1.00  0.00     0.035 C 
HETATM    3  C3  UNL     1      21.072   1.422  49.511  1.00  0.00     0.028 C 
HETATM    4  C4  UNL     1      20.193   0.707  50.454  1.00  0.00     0.026 C 
HETATM    5  C5  UNL     1      19.958   0.245  51.674  1.00  0.00     0.033 C 
HETATM    6 CL1  UNL     1      18.386  -0.604  51.795  1.00  0.00    -0.084 Cl
HETATM    7  C6  UNL     1      20.516   0.202  53.020  1.00  0.00     0.020 C 
HETATM    8  C7  UNL     1      21.578   0.626  53.744  1.00  0.00    -0.020 C 
HETATM    9  C8  UNL     1      22.614   1.410  53.121  1.00  0.00     0.068 C 
HETATM   10  C9  UNL     1      23.985   0.985  53.033  1.00  0.00    -0.028 A 
HETATM   11  C10 UNL     1      24.588   0.360  54.022  1.00  0.00     0.009 A 
HETATM   12  C11 UNL     1      25.969  -0.100  54.008  1.00  0.00    -0.003 A 
HETATM   13  C12 UNL     1      26.601   0.168  52.880  1.00  0.00    -0.021 A 
HETATM   14  C13 UNL     1      26.182   0.843  51.628  1.00  0.00     0.088 A 
HETATM   15  C14 UNL     1      24.760   1.250  51.790  1.00  0.00     0.065 A 
HETATM   16  N1  UNL     1      24.507   1.802  50.675  1.00  0.00    -0.169 NA
HETATM   17  N2  UNL     1      23.357   2.388  50.189  1.00  0.00    -0.213 N 
ENDROOT
BRANCH  17  18
HETATM   18  C15 UNL     1      23.374   3.805  50.671  1.00  0.00     0.196 A 
HETATM   19  N3  UNL     1      24.204   4.551  50.772  1.00  0.00    -0.198 NA
HETATM   20  C16 UNL     1      24.099   5.807  51.217  1.00  0.00     0.171 A 
HETATM   21  C17 UNL     1      22.785   6.235  51.601  1.00  0.00     0.111 A 
HETATM   22  S1  UNL     1      21.800   4.696  51.260  1.00  0.00    -0.058 SA
BRANCH  20  23
HETATM   23  O1  UNL     1      25.258   6.608  51.277  1.00  0.00    -0.344 OA
HETATM   24  H15 UNL     1      25.587   6.989  52.147  1.00  0.00     0.219 HD
ENDBRANCH  20  23
ENDBRANCH  17  18
TORSDOF 2
ENDMDL
MODEL 2
REMARK VINA RESULT:      -7.4      3.799      5.868
REMARK  2 active torsions:
REMARK  status: ('A' for Active; 'I' for Inactive)
REMARK    1  A    between atoms: N2_17  and  C15_18 
REMARK    2  A    between atoms: C16_20  and  O1_21 
ROOT
HETATM    1  C1  UNL     1      21.918   6.786  50.782  1.00  0.00     0.070 C 
HETATM    2  C2  UNL     1      23.256   6.358  50.298  1.00  0.00     0.035 C 
HETATM    3  C3  UNL     1      24.110   7.184  49.731  1.00  0.00     0.028 C 
HETATM    4  C4  UNL     1      25.447   7.295  49.120  1.00  0.00     0.026 C 
HETATM    5  C5  UNL     1      26.587   6.728  48.751  1.00  0.00     0.033 C 
HETATM    6 CL1  UNL     1      27.719   7.892  47.996  1.00  0.00    -0.084 Cl
HETATM    7  C6  UNL     1      27.275   5.443  48.698  1.00  0.00     0.020 C 
HETATM    8  C7  UNL     1      27.104   4.134  48.994  1.00  0.00    -0.020 C 
HETATM    9  C8  UNL     1      25.863   3.675  49.567  1.00  0.00     0.068 C 
HETATM   10  C9  UNL     1      25.770   3.055  50.861  1.00  0.00    -0.028 A 
HETATM   11  C10 UNL     1      26.674   2.201  51.294  1.00  0.00     0.009 A 
HETATM   12  C11 UNL     1      26.648   1.534  52.587  1.00  0.00    -0.003 A 
HETATM   13  C12 UNL     1      25.605   1.862  53.328  1.00  0.00    -0.021 A 
HETATM   14  C13 UNL     1      24.458   2.775  53.102  1.00  0.00     0.088 A 
HETATM   15  C14 UNL     1      24.622   3.380  51.752  1.00  0.00     0.065 A 
HETATM   16  N1  UNL     1      23.606   4.136  51.668  1.00  0.00    -0.169 NA
HETATM   17  N2  UNL     1      23.178   4.976  50.662  1.00  0.00    -0.213 N 
ENDROOT
BRANCH  17  18
HETATM   18  C15 UNL     1      22.386   4.126  49.716  1.00  0.00     0.196 A 
HETATM   19  N3  UNL     1      22.437   3.998  48.605  1.00  0.00    -0.198 NA
HETATM   20  C16 UNL     1      21.671   3.196  47.858  1.00  0.00     0.171 A 
HETATM   21  C17 UNL     1      20.689   2.424  48.561  1.00  0.00     0.111 A 
HETATM   22  S1  UNL     1      20.996   2.972  50.311  1.00  0.00    -0.058 SA
BRANCH  20  23
HETATM   23  O1  UNL     1      21.876   3.163  46.463  1.00  0.00    -0.344 OA
HETATM   24  H15 UNL     1      21.211   2.730  45.846  1.00  0.00     0.219 HD
ENDBRANCH  20  23
ENDBRANCH  17  18
TORSDOF 2
ENDMDL
MODEL 3
REMARK VINA RESULT:      -7.2      3.429      5.341
REMARK  2 active torsions:
REMARK  status: ('A' for Active; 'I' for Inactive)
REMARK    1  A    between atoms: N2_17  and  C15_18 
REMARK    2  A    between atoms: C16_20  and  O1_21 
ROOT
HETATM    1  C1  UNL     1      21.802   5.038  52.317  1.00  0.00     0.070 C 
HETATM    2  C2  UNL     1      23.051   4.805  51.547  1.00  0.00     0.035 C 
HETATM    3  C3  UNL     1      23.592   5.717  50.767  1.00  0.00     0.028 C 
HETATM    4  C4  UNL     1      24.716   6.003  49.855  1.00  0.00     0.026 C 
HETATM    5  C5  UNL     1      25.826   5.609  49.249  1.00  0.00     0.033 C 
HETATM    6 CL1  UNL     1      26.530   6.886  48.209  1.00  0.00    -0.084 Cl
HETATM    7  C6  UNL     1      26.705   4.458  49.082  1.00  0.00     0.020 C 
HETATM    8  C7  UNL     1      26.846   3.165  49.456  1.00  0.00    -0.020 C 
HETATM    9  C8  UNL     1      25.869   2.550  50.320  1.00  0.00     0.068 C 
HETATM   10  C9  UNL     1      26.182   2.023  51.621  1.00  0.00    -0.028 A 
HETATM   11  C10 UNL     1      27.300   1.369  51.860  1.00  0.00     0.009 A 
HETATM   12  C11 UNL     1      27.686   0.808  53.146  1.00  0.00    -0.003 A 
HETATM   13  C12 UNL     1      26.795   1.011  54.098  1.00  0.00    -0.021 A 
HETATM   14  C13 UNL     1      25.481   1.699  54.116  1.00  0.00     0.088 A 
HETATM   15  C14 UNL     1      25.225   2.218  52.745  1.00  0.00     0.065 A 
HETATM   16  N1  UNL     1      24.097   2.784  52.874  1.00  0.00    -0.169 NA
HETATM   17  N2  UNL     1      23.308   3.461  51.968  1.00  0.00    -0.213 N 
ENDROOT
BRANCH  17  18
HETATM   18  C15 UNL     1      22.492   2.421  51.266  1.00  0.00     0.196 A 
HETATM   19  N3  UNL     1      22.411   2.138  50.185  1.00  0.00    -0.198 NA
HETATM   20  C16 UNL     1      21.640   1.176  49.667  1.00  0.00     0.171 A 
HETATM   21  C17 UNL     1      20.841   0.435  50.599  1.00  0.00     0.111 A 
HETATM   22  S1  UNL     1      21.315   1.254  52.199  1.00  0.00    -0.058 SA
BRANCH  20  23
HETATM   23  O1  UNL     1      21.665   0.959  48.274  1.00  0.00    -0.344 OA
HETATM   24  H15 UNL     1      21.566   0.036  47.886  1.00  0.00     0.219 HD
ENDBRANCH  20  23
ENDBRANCH  17  18
TORSDOF 2
ENDMDL
MODEL 4
REMARK VINA RESULT:      -7.0      7.207      9.741
REMARK  2 active torsions:
REMARK  status: ('A' for Active; 'I' for Inactive)
REMARK    1  A    between atoms: N2_17  and  C15_18 
REMARK    2  A    between atoms: C16_20  and  O1_21 
ROOT
HETATM    1  C1  UNL     1      27.988  11.151  48.923  1.00  0.00     0.070 C 
HETATM    2  C2  UNL     1      28.718   9.868  48.759  1.00  0.00     0.035 C 
HETATM    3  C3  UNL     1      30.017   9.754  48.943  1.00  0.00     0.028 C 
HETATM    4  C4  UNL     1      31.155   8.817  48.919  1.00  0.00     0.026 C 
HETATM    5  C5  UNL     1      31.626   7.594  48.724  1.00  0.00     0.033 C 
HETATM    6 CL1  UNL     1      33.393   7.487  48.996  1.00  0.00    -0.084 Cl
HETATM    7  C6  UNL     1      31.225   6.252  48.316  1.00  0.00     0.020 C 
HETATM    8  C7  UNL     1      30.146   5.544  47.910  1.00  0.00    -0.020 C 
HETATM    9  C8  UNL     1      28.864   6.188  47.774  1.00  0.00     0.068 C 
HETATM   10  C9  UNL     1      27.703   5.810  48.533  1.00  0.00    -0.028 A 
HETATM   11  C10 UNL     1      27.418   4.551  48.795  1.00  0.00     0.009 A 
HETATM   12  C11 UNL     1      26.265   4.091  49.555  1.00  0.00    -0.003 A 
HETATM   13  C12 UNL     1      25.490   5.071  49.980  1.00  0.00    -0.021 A 
HETATM   14  C13 UNL     1      25.563   6.546  49.838  1.00  0.00     0.088 A 
HETATM   15  C14 UNL     1      26.785   6.863  49.048  1.00  0.00     0.065 A 
HETATM   16  N1  UNL     1      26.753   8.130  48.995  1.00  0.00    -0.169 NA
HETATM   17  N2  UNL     1      27.607   9.039  48.405  1.00  0.00    -0.213 N 
ENDROOT
BRANCH  17  18
HETATM   18  C15 UNL     1      27.170   9.157  46.977  1.00  0.00     0.196 A 
HETATM   19  N3  UNL     1      27.720   9.009  46.013  1.00  0.00    -0.198 NA
HETATM   20  C16 UNL     1      27.219   9.141  44.780  1.00  0.00     0.171 A 
HETATM   21  C17 UNL     1      25.835   9.506  44.695  1.00  0.00     0.111 A 
HETATM   22  S1  UNL     1      25.391   9.627  46.496  1.00  0.00    -0.058 SA
BRANCH  20  23
HETATM   23  O1  UNL     1      28.064   8.915  43.673  1.00  0.00    -0.344 OA
HETATM   24  H15 UNL     1      28.148   8.004  43.257  1.00  0.00     0.219 HD
ENDBRANCH  20  23
ENDBRANCH  17  18
TORSDOF 2
ENDMDL
MODEL 5
REMARK VINA RESULT:      -6.8      2.503      5.153
REMARK  2 active torsions:
REMARK  status: ('A' for Active; 'I' for Inactive)
REMARK    1  A    between atoms: N2_17  and  C15_18 
REMARK    2  A    between atoms: C16_20  and  O1_21 
ROOT
HETATM    1  C1  UNL     1      22.970   5.363  52.608  1.00  0.00     0.070 C 
HETATM    2  C2  UNL     1      22.388   4.270  51.788  1.00  0.00     0.035 C 
HETATM    3  C3  UNL     1      21.477   3.437  52.247  1.00  0.00     0.028 C 
HETATM    4  C4  UNL     1      20.632   2.277  51.909  1.00  0.00     0.026 C 
HETATM    5  C5  UNL     1      20.235   1.367  51.031  1.00  0.00     0.033 C 
HETATM    6 CL1  UNL     1      18.991   0.266  51.698  1.00  0.00    -0.084 Cl
HETATM    7  C6  UNL     1      20.475   0.889  49.675  1.00  0.00     0.020 C 
HETATM    8  C7  UNL     1      21.246   1.121  48.587  1.00  0.00    -0.020 C 
HETATM    9  C8  UNL     1      22.232   2.173  48.608  1.00  0.00     0.068 C 
HETATM   10  C9  UNL     1      22.206   3.301  47.716  1.00  0.00    -0.028 A 
HETATM   11  C10 UNL     1      21.871   3.182  46.449  1.00  0.00     0.009 A 
HETATM   12  C11 UNL     1      21.821   4.274  45.487  1.00  0.00    -0.003 A 
HETATM   13  C12 UNL     1      22.152   5.443  46.001  1.00  0.00    -0.021 A 
HETATM   14  C13 UNL     1      22.564   5.864  47.363  1.00  0.00     0.088 A 
HETATM   15  C14 UNL     1      22.565   4.652  48.227  1.00  0.00     0.065 A 
HETATM   16  N1  UNL     1      22.918   5.121  49.352  1.00  0.00    -0.169 NA
HETATM   17  N2  UNL     1      23.108   4.512  50.575  1.00  0.00    -0.213 N 
ENDROOT
BRANCH  17  18
HETATM   18  C15 UNL     1      24.510   3.986  50.567  1.00  0.00     0.196 A 
HETATM   19  N3  UNL     1      25.449   4.369  50.091  1.00  0.00    -0.198 NA
HETATM   20  C16 UNL     1      26.662   3.810  50.156  1.00  0.00     0.171 A 
HETATM   21  C17 UNL     1      26.760   2.599  50.917  1.00  0.00     0.111 A 
HETATM   22  S1  UNL     1      25.001   2.391  51.479  1.00  0.00    -0.058 SA
BRANCH  20  23
HETATM   23  O1  UNL     1      27.737   4.435  49.490  1.00  0.00    -0.344 OA
HETATM   24  H15 UNL     1      27.682   5.394  49.194  1.00  0.00     0.219 HD
ENDBRANCH  20  23
ENDBRANCH  17  18
TORSDOF 2
ENDMDL
MODEL 6
REMARK VINA RESULT:      -6.6      4.265      6.346
REMARK  2 active torsions:
REMARK  status: ('A' for Active; 'I' for Inactive)
REMARK    1  A    between atoms: N2_17  and  C15_18 
REMARK    2  A    between atoms: C16_20  and  O1_21 
ROOT
HETATM    1  C1  UNL     1      22.559   7.925  48.920  1.00  0.00     0.070 C 
HETATM    2  C2  UNL     1      23.801   7.108  48.896  1.00  0.00     0.035 C 
HETATM    3  C3  UNL     1      24.945   7.559  48.428  1.00  0.00     0.028 C 
HETATM    4  C4  UNL     1      26.359   7.219  48.182  1.00  0.00     0.026 C 
HETATM    5  C5  UNL     1      27.352   6.344  48.241  1.00  0.00     0.033 C 
HETATM    6 CL1  UNL     1      28.889   7.006  47.604  1.00  0.00    -0.084 Cl
HETATM    7  C6  UNL     1      27.660   4.969  48.616  1.00  0.00     0.020 C 
HETATM    8  C7  UNL     1      27.082   3.845  49.101  1.00  0.00    -0.020 C 
HETATM    9  C8  UNL     1      25.673   3.827  49.403  1.00  0.00     0.068 C 
HETATM   10  C9  UNL     1      25.148   3.586  50.720  1.00  0.00    -0.028 A 
HETATM   11  C10 UNL     1      25.675   2.692  51.530  1.00  0.00     0.009 A 
HETATM   12  C11 UNL     1      25.201   2.392  52.873  1.00  0.00    -0.003 A 
HETATM   13  C12 UNL     1      24.158   3.114  53.236  1.00  0.00    -0.021 A 
HETATM   14  C13 UNL     1      23.374   4.168  52.546  1.00  0.00     0.088 A 
HETATM   15  C14 UNL     1      23.973   4.365  51.198  1.00  0.00     0.065 A 
HETATM   16  N1  UNL     1      23.242   5.279  50.707  1.00  0.00    -0.169 NA
HETATM   17  N2  UNL     1      23.276   5.913  49.483  1.00  0.00    -0.213 N 
ENDROOT
BRANCH  17  18
HETATM   18  C15 UNL     1      22.497   5.047  48.542  1.00  0.00     0.196 A 
HETATM   19  N3  UNL     1      21.869   4.134  48.712  1.00  0.00    -0.198 NA
HETATM   20  C16 UNL     1      21.208   3.437  47.782  1.00  0.00     0.171 A 
HETATM   21  C17 UNL     1      21.319   3.914  46.435  1.00  0.00     0.111 A 
HETATM   22  S1  UNL     1      22.422   5.390  46.673  1.00  0.00    -0.058 SA
BRANCH  20  23
HETATM   23  O1  UNL     1      20.464   2.306  48.180  1.00  0.00    -0.344 OA
HETATM   24  H15 UNL     1      19.672   2.391  48.793  1.00  0.00     0.219 HD
ENDBRANCH  20  23
ENDBRANCH  17  18
TORSDOF 2
ENDMDL
MODEL 7
REMARK VINA RESULT:      -6.5      4.155      7.100
REMARK  2 active torsions:
REMARK  status: ('A' for Active; 'I' for Inactive)
REMARK    1  A    between atoms: N2_17  and  C15_18 
REMARK    2  A    between atoms: C16_20  and  O1_21 
ROOT
HETATM    1  C1  UNL     1      26.228   2.453  50.268  1.00  0.00     0.070 C 
HETATM    2  C2  UNL     1      25.973   3.739  49.567  1.00  0.00     0.035 C 
HETATM    3  C3  UNL     1      26.936   4.563  49.212  1.00  0.00     0.028 C 
HETATM    4  C4  UNL     1      27.233   5.851  48.557  1.00  0.00     0.026 C 
HETATM    5  C5  UNL     1      26.810   6.948  47.946  1.00  0.00     0.033 C 
HETATM    6 CL1  UNL     1      28.155   8.032  47.473  1.00  0.00    -0.084 Cl
HETATM    7  C6  UNL     1      25.599   7.645  47.530  1.00  0.00     0.020 C 
HETATM    8  C7  UNL     1      24.250   7.540  47.558  1.00  0.00    -0.020 C 
HETATM    9  C8  UNL     1      23.624   6.403  48.185  1.00  0.00     0.068 C 
HETATM   10  C9  UNL     1      22.782   5.474  47.480  1.00  0.00    -0.028 A 
HETATM   11  C10 UNL     1      21.923   5.865  46.563  1.00  0.00     0.009 A 
HETATM   12  C11 UNL     1      21.041   4.987  45.809  1.00  0.00    -0.003 A 
HETATM   13  C12 UNL     1      21.170   3.712  46.126  1.00  0.00    -0.021 A 
HETATM   14  C13 UNL     1      22.036   3.000  47.097  1.00  0.00     0.088 A 
HETATM   15  C14 UNL     1      22.876   4.019  47.783  1.00  0.00     0.065 A 
HETATM   16  N1  UNL     1      23.572   3.310  48.573  1.00  0.00    -0.169 NA
HETATM   17  N2  UNL     1      24.547   3.654  49.486  1.00  0.00    -0.213 N 
ENDROOT
BRANCH  17  18
HETATM   18  C15 UNL     1      23.828   4.016  50.749  1.00  0.00     0.196 A 
HETATM   19  N3  UNL     1      24.144   4.609  51.645  1.00  0.00    -0.198 NA
HETATM   20  C16 UNL     1      23.404   4.874  52.727  1.00  0.00     0.171 A 
HETATM   21  C17 UNL     1      22.074   4.341  52.731  1.00  0.00     0.111 A 
HETATM   22  S1  UNL     1      22.038   3.471  51.089  1.00  0.00    -0.058 SA
BRANCH  20  23
HETATM   23  O1  UNL     1      23.969   5.642  53.767  1.00  0.00    -0.344 OA
HETATM   24  H15 UNL     1      24.924   5.514  54.052  1.00  0.00     0.219 HD
ENDBRANCH  20  23
ENDBRANCH  17  18
TORSDOF 2
ENDMDL
MODEL 8
REMARK VINA RESULT:      -6.5      3.527      5.934
REMARK  2 active torsions:
REMARK  status: ('A' for Active; 'I' for Inactive)
REMARK    1  A    between atoms: N2_17  and  C15_18 
REMARK    2  A    between atoms: C16_20  and  O1_21 
ROOT
HETATM    1  C1  UNL     1      23.165   7.539  50.983  1.00  0.00     0.070 C 
HETATM    2  C2  UNL     1      22.766   6.152  50.630  1.00  0.00     0.035 C 
HETATM    3  C3  UNL     1      22.169   5.341  51.478  1.00  0.00     0.028 C 
HETATM    4  C4  UNL     1      21.603   3.990  51.651  1.00  0.00     0.026 C 
HETATM    5  C5  UNL     1      21.329   2.792  51.154  1.00  0.00     0.033 C 
HETATM    6 CL1  UNL     1      20.509   1.730  52.339  1.00  0.00    -0.084 Cl
HETATM    7  C6  UNL     1      21.487   1.973  49.958  1.00  0.00     0.020 C 
HETATM    8  C7  UNL     1      22.013   2.003  48.712  1.00  0.00    -0.020 C 
HETATM    9  C8  UNL     1      22.696   3.183  48.241  1.00  0.00     0.068 C 
HETATM   10  C9  UNL     1      22.261   3.948  47.104  1.00  0.00    -0.028 A 
HETATM   11  C10 UNL     1      21.791   3.377  46.015  1.00  0.00     0.009 A 
HETATM   12  C11 UNL     1      21.333   4.082  44.827  1.00  0.00    -0.003 A 
HETATM   13  C12 UNL     1      21.428   5.395  44.924  1.00  0.00    -0.021 A 
HETATM   14  C13 UNL     1      21.909   6.291  46.004  1.00  0.00     0.088 A 
HETATM   15  C14 UNL     1      22.337   5.434  47.144  1.00  0.00     0.065 A 
HETATM   16  N1  UNL     1      22.716   6.291  48.000  1.00  0.00    -0.169 NA
HETATM   17  N2  UNL     1      23.223   6.142  49.274  1.00  0.00    -0.213 N 
ENDROOT
BRANCH  17  18
HETATM   18  C15 UNL     1      24.697   5.930  49.115  1.00  0.00     0.196 A 
HETATM   19  N3  UNL     1      25.379   5.118  49.476  1.00  0.00    -0.198 NA
HETATM   20  C16 UNL     1      26.697   5.030  49.267  1.00  0.00     0.171 A 
HETATM   21  C17 UNL     1      27.287   6.086  48.499  1.00  0.00     0.111 A 
HETATM   22  S1  UNL     1      25.799   7.143  48.149  1.00  0.00    -0.058 SA
BRANCH  20  23
HETATM   23  O1  UNL     1      27.400   3.930  49.801  1.00  0.00    -0.344 OA
HETATM   24  H15 UNL     1      28.402   3.873  49.745  1.00  0.00     0.219 HD
ENDBRANCH  20  23
ENDBRANCH  17  18
TORSDOF 2
ENDMDL
MODEL 9
REMARK VINA RESULT:      -6.3      9.505     11.711
REMARK  2 active torsions:
REMARK  status: ('A' for Active; 'I' for Inactive)
REMARK    1  A    between atoms: N2_17  and  C15_18 
REMARK    2  A    between atoms: C16_20  and  O1_21 
ROOT
HETATM    1  C1  UNL     1      30.513  12.289  49.339  1.00  0.00     0.070 C 
HETATM    2  C2  UNL     1      30.592  11.437  48.123  1.00  0.00     0.035 C 
HETATM    3  C3  UNL     1      30.863  11.919  46.928  1.00  0.00     0.028 C 
HETATM    4  C4  UNL     1      31.049  11.569  45.508  1.00  0.00     0.026 C 
HETATM    5  C5  UNL     1      31.073  10.656  44.547  1.00  0.00     0.033 C 
HETATM    6 CL1  UNL     1      31.455  11.357  42.944  1.00  0.00    -0.084 Cl
HETATM    7  C6  UNL     1      30.860   9.236  44.298  1.00  0.00     0.020 C 
HETATM    8  C7  UNL     1      30.511   8.088  44.924  1.00  0.00    -0.020 C 
HETATM    9  C8  UNL     1      30.206   8.094  46.333  1.00  0.00     0.068 C 
HETATM   10  C9  UNL     1      30.950   7.344  47.309  1.00  0.00    -0.028 A 
HETATM   11  C10 UNL     1      31.390   6.126  47.067  1.00  0.00     0.009 A 
HETATM   12  C11 UNL     1      32.148   5.307  48.001  1.00  0.00    -0.003 A 
HETATM   13  C12 UNL     1      32.372   5.898  49.159  1.00  0.00    -0.021 A 
HETATM   14  C13 UNL     1      32.004   7.232  49.695  1.00  0.00     0.088 A 
HETATM   15  C14 UNL     1      31.243   7.949  48.637  1.00  0.00     0.065 A 
HETATM   16  N1  UNL     1      30.990   9.062  49.191  1.00  0.00    -0.169 NA
HETATM   17  N2  UNL     1      30.313  10.174  48.735  1.00  0.00    -0.213 N 
ENDROOT
BRANCH  17  18
HETATM   18  C15 UNL     1      28.862   9.922  49.011  1.00  0.00     0.196 A 
HETATM   19  N3  UNL     1      28.346   9.271  49.762  1.00  0.00    -0.198 NA
HETATM   20  C16 UNL     1      27.026   9.127  49.920  1.00  0.00     0.171 A 
HETATM   21  C17 UNL     1      26.196   9.889  49.035  1.00  0.00     0.111 A 
HETATM   22  S1  UNL     1      27.479  10.772  48.020  1.00  0.00    -0.058 SA
BRANCH  20  23
HETATM   23  O1  UNL     1      26.551   8.258  50.925  1.00  0.00    -0.344 OA
HETATM   24  H15 UNL     1      27.018   8.178  51.811  1.00  0.00     0.219 HD
ENDBRANCH  20  23
ENDBRANCH  17  18
TORSDOF 2
ENDMDL
