MODEL 1
REMARK VINA RESULT:      -7.4      0.000      0.000
REMARK  5 active torsions:
REMARK  status: ('A' for Active; 'I' for Inactive)
REMARK    1  A    between atoms: C3_3  and  C4_4 
REMARK    2  A    between atoms: C5_5  and  C6_6 
REMARK    3  A    between atoms: C7_7  and  N1_8 
REMARK    4  A    between atoms: N1_8  and  C8_9 
REMARK    5  A    between atoms: N3_16  and  C14_17 
ROOT
HETATM    1  C8  UNL     1      24.278   2.464  52.715  1.00  0.00     0.047 A 
HETATM    2  C9  UNL     1      23.046   1.863  52.697  1.00  0.00     0.049 A 
HETATM    3  C10 UNL     1      22.758   0.576  53.082  1.00  0.00     0.119 A 
HETATM    4  N2  UNL     1      23.788  -0.164  53.518  1.00  0.00    -0.260 NA
HETATM    5  C11 UNL     1      25.040   0.332  53.576  1.00  0.00     0.068 A 
HETATM    6  C12 UNL     1      25.302   1.625  53.187  1.00  0.00     0.035 A 
HETATM    7  C13 UNL     1      26.535   2.090  53.271  1.00  0.00     0.109 A 
HETATM    8  N3  UNL     1      27.559   1.239  53.746  1.00  0.00    -0.331 N 
HETATM    9  C15 UNL     1      27.359  -0.141  54.137  1.00  0.00     0.160 A 
HETATM   10  C16 UNL     1      25.926  -0.527  54.015  1.00  0.00     0.026 A 
ENDROOT
BRANCH   1  11
HETATM   11  N1  UNL     1      24.537   3.793  52.291  1.00  0.00    -0.365 N 
HETATM   12  H10 UNL     1      25.377   4.378  52.177  1.00  0.00     0.165 HD
BRANCH  11  13
HETATM   13  C7  UNL     1      23.367   4.561  51.904  1.00  0.00     0.088 C 
HETATM   14  C6  UNL     1      23.649   5.263  50.767  1.00  0.00     0.017 C 
BRANCH  14  15
HETATM   15  C5  UNL     1      24.984   5.107  50.208  1.00  0.00     0.001 C 
HETATM   16  C4  UNL     1      25.928   4.583  49.447  1.00  0.00    -0.000 C 
BRANCH  16  17
HETATM   17  C3  UNL     1      27.280   4.494  48.942  1.00  0.00    -0.004 C 
HETATM   18  C2  UNL     1      27.742   5.655  48.577  1.00  0.00    -0.031 C 
HETATM   19  C1  UNL     1      29.110   5.579  48.064  1.00  0.00     0.036 C 
ENDBRANCH  16  17
ENDBRANCH  14  15
ENDBRANCH  11  13
ENDBRANCH   1  11
BRANCH   8  20
HETATM   20  C14 UNL     1      28.872   1.766  53.845  1.00  0.00     0.355 C 
HETATM   21  O1  UNL     1      29.426   2.403  54.807  1.00  0.00    -0.283 OA
ENDBRANCH   8  20
TORSDOF 5
ENDMDL
MODEL 2
REMARK VINA RESULT:      -7.2      2.823      4.942
REMARK  5 active torsions:
REMARK  status: ('A' for Active; 'I' for Inactive)
REMARK    1  A    between atoms: C3_3  and  C4_4 
REMARK    2  A    between atoms: C5_5  and  C6_6 
REMARK    3  A    between atoms: C7_7  and  N1_8 
REMARK    4  A    between atoms: N1_8  and  C8_9 
REMARK    5  A    between atoms: N3_16  and  C14_17 
ROOT
HETATM    1  C8  UNL     1      23.481  -0.149  53.570  1.00  0.00     0.047 A 
HETATM    2  C9  UNL     1      22.902  -0.943  54.526  1.00  0.00     0.049 A 
HETATM    3  C10 UNL     1      21.579  -1.308  54.594  1.00  0.00     0.119 A 
HETATM    4  N2  UNL     1      20.777  -0.837  53.628  1.00  0.00    -0.260 NA
HETATM    5  C11 UNL     1      21.246  -0.049  52.641  1.00  0.00     0.068 A 
HETATM    6  C12 UNL     1      22.576   0.300  52.593  1.00  0.00     0.035 A 
HETATM    7  C13 UNL     1      23.012   1.060  51.604  1.00  0.00     0.109 A 
HETATM    8  N3  UNL     1      22.094   1.508  50.627  1.00  0.00    -0.331 N 
HETATM    9  C15 UNL     1      20.677   1.208  50.638  1.00  0.00     0.160 A 
HETATM   10  C16 UNL     1      20.327   0.330  51.788  1.00  0.00     0.026 A 
ENDROOT
BRANCH   1  11
HETATM   11  N1  UNL     1      24.851   0.220  53.545  1.00  0.00    -0.365 N 
HETATM   12  H10 UNL     1      25.379   1.094  53.674  1.00  0.00     0.165 HD
BRANCH  11  13
HETATM   13  C7  UNL     1      25.782  -0.864  53.284  1.00  0.00     0.088 C 
HETATM   14  C6  UNL     1      26.737  -0.431  52.408  1.00  0.00     0.017 C 
BRANCH  14  15
HETATM   15  C5  UNL     1      26.634   0.944  51.944  1.00  0.00     0.001 C 
HETATM   16  C4  UNL     1      26.495   1.923  51.067  1.00  0.00    -0.000 C 
BRANCH  16  17
HETATM   17  C3  UNL     1      26.402   3.315  50.688  1.00  0.00    -0.004 C 
HETATM   18  C2  UNL     1      26.680   3.498  49.430  1.00  0.00    -0.031 C 
HETATM   19  C1  UNL     1      26.590   4.903  49.033  1.00  0.00     0.036 C 
ENDBRANCH  16  17
ENDBRANCH  14  15
ENDBRANCH  11  13
ENDBRANCH   1  11
BRANCH   8  20
HETATM   20  C14 UNL     1      22.588   2.306  49.564  1.00  0.00     0.355 C 
HETATM   21  O1  UNL     1      23.082   3.486  49.590  1.00  0.00    -0.283 OA
ENDBRANCH   8  20
TORSDOF 5
ENDMDL
MODEL 3
REMARK VINA RESULT:      -7.1      2.138      3.071
REMARK  5 active torsions:
REMARK  status: ('A' for Active; 'I' for Inactive)
REMARK    1  A    between atoms: C3_3  and  C4_4 
REMARK    2  A    between atoms: C5_5  and  C6_6 
REMARK    3  A    between atoms: C7_7  and  N1_8 
REMARK    4  A    between atoms: N1_8  and  C8_9 
REMARK    5  A    between atoms: N3_16  and  C14_17 
ROOT
HETATM    1  C8  UNL     1      22.249   0.386  52.893  1.00  0.00     0.047 A 
HETATM    2  C9  UNL     1      21.466  -0.309  53.778  1.00  0.00     0.049 A 
HETATM    3  C10 UNL     1      21.906  -1.085  54.824  1.00  0.00     0.119 A 
HETATM    4  N2  UNL     1      23.234  -1.169  54.990  1.00  0.00    -0.260 NA
HETATM    5  C11 UNL     1      24.092  -0.524  54.175  1.00  0.00     0.068 A 
HETATM    6  C12 UNL     1      23.626   0.248  53.137  1.00  0.00     0.035 A 
HETATM    7  C13 UNL     1      24.489   0.883  52.364  1.00  0.00     0.109 A 
HETATM    8  N3  UNL     1      25.872   0.739  52.616  1.00  0.00    -0.331 N 
HETATM    9  C15 UNL     1      26.430  -0.087  53.668  1.00  0.00     0.160 A 
HETATM   10  C16 UNL     1      25.351  -0.724  54.473  1.00  0.00     0.026 A 
ENDROOT
BRANCH   1  11
HETATM   11  N1  UNL     1      21.755   1.163  51.813  1.00  0.00    -0.365 N 
HETATM   12  H10 UNL     1      21.770   2.160  51.558  1.00  0.00     0.165 HD
BRANCH  11  13
HETATM   13  C7  UNL     1      21.055   0.419  50.781  1.00  0.00     0.088 C 
HETATM   14  C6  UNL     1      21.390   0.928  49.558  1.00  0.00     0.017 C 
BRANCH  14  15
HETATM   15  C5  UNL     1      22.326   2.042  49.539  1.00  0.00     0.001 C 
HETATM   16  C4  UNL     1      23.192   2.892  49.017  1.00  0.00    -0.000 C 
BRANCH  16  17
HETATM   17  C3  UNL     1      24.106   4.011  49.084  1.00  0.00    -0.004 C 
HETATM   18  C2  UNL     1      25.315   3.635  49.385  1.00  0.00    -0.031 C 
HETATM   19  C1  UNL     1      26.251   4.757  49.455  1.00  0.00     0.036 C 
ENDBRANCH  16  17
ENDBRANCH  14  15
ENDBRANCH  11  13
ENDBRANCH   1  11
BRANCH   8  20
HETATM   20  C14 UNL     1      26.779   1.445  51.786  1.00  0.00     0.355 C 
HETATM   21  O1  UNL     1      27.618   2.364  52.087  1.00  0.00    -0.283 OA
ENDBRANCH   8  20
TORSDOF 5
ENDMDL
MODEL 4
REMARK VINA RESULT:      -6.8      3.248      6.247
REMARK  5 active torsions:
REMARK  status: ('A' for Active; 'I' for Inactive)
REMARK    1  A    between atoms: C3_3  and  C4_4 
REMARK    2  A    between atoms: C5_5  and  C6_6 
REMARK    3  A    between atoms: C7_7  and  N1_8 
REMARK    4  A    between atoms: N1_8  and  C8_9 
REMARK    5  A    between atoms: N3_16  and  C14_17 
ROOT
HETATM    1  C8  UNL     1      24.225   1.952  51.439  1.00  0.00     0.047 A 
HETATM    2  C9  UNL     1      25.386   2.463  50.919  1.00  0.00     0.049 A 
HETATM    3  C10 UNL     1      26.664   2.179  51.338  1.00  0.00     0.119 A 
HETATM    4  N2  UNL     1      26.782   1.316  52.358  1.00  0.00    -0.260 NA
HETATM    5  C11 UNL     1      25.703   0.757  52.940  1.00  0.00     0.068 A 
HETATM    6  C12 UNL     1      24.435   1.056  52.500  1.00  0.00     0.035 A 
HETATM    7  C13 UNL     1      23.396   0.479  53.078  1.00  0.00     0.109 A 
HETATM    8  N3  UNL     1      23.616  -0.421  54.145  1.00  0.00    -0.331 N 
HETATM    9  C15 UNL     1      24.921  -0.751  54.680  1.00  0.00     0.160 A 
HETATM   10  C16 UNL     1      25.998  -0.052  53.926  1.00  0.00     0.026 A 
ENDROOT
BRANCH   1  11
HETATM   11  N1  UNL     1      22.921   2.286  50.989  1.00  0.00    -0.365 N 
HETATM   12  H10 UNL     1      22.045   2.590  51.435  1.00  0.00     0.165 HD
BRANCH  11  13
HETATM   13  C7  UNL     1      22.719   2.202  49.553  1.00  0.00     0.088 C 
HETATM   14  C6  UNL     1      21.645   1.395  49.300  1.00  0.00     0.017 C 
BRANCH  14  15
HETATM   15  C5  UNL     1      20.965   0.820  50.451  1.00  0.00     0.001 C 
HETATM   16  C4  UNL     1      19.937   0.473  51.205  1.00  0.00    -0.000 C 
BRANCH  16  17
HETATM   17  C3  UNL     1      19.339  -0.119  52.381  1.00  0.00    -0.004 C 
HETATM   18  C2  UNL     1      18.183  -0.658  52.121  1.00  0.00    -0.031 C 
HETATM   19  C1  UNL     1      17.565  -1.261  53.302  1.00  0.00     0.036 C 
ENDBRANCH  16  17
ENDBRANCH  14  15
ENDBRANCH  11  13
ENDBRANCH   1  11
BRANCH   8  20
HETATM   20  C14 UNL     1      22.487  -1.043  54.737  1.00  0.00     0.355 C 
HETATM   21  O1  UNL     1      22.429  -2.043  55.533  1.00  0.00    -0.283 OA
ENDBRANCH   8  20
TORSDOF 5
ENDMDL
MODEL 5
REMARK VINA RESULT:      -6.8      2.955      6.746
REMARK  5 active torsions:
REMARK  status: ('A' for Active; 'I' for Inactive)
REMARK    1  A    between atoms: C3_3  and  C4_4 
REMARK    2  A    between atoms: C5_5  and  C6_6 
REMARK    3  A    between atoms: C7_7  and  N1_8 
REMARK    4  A    between atoms: N1_8  and  C8_9 
REMARK    5  A    between atoms: N3_16  and  C14_17 
ROOT
HETATM    1  C8  UNL     1      25.669   0.410  53.249  1.00  0.00     0.047 A 
HETATM    2  C9  UNL     1      26.949   0.467  53.736  1.00  0.00     0.049 A 
HETATM    3  C10 UNL     1      27.947   1.312  53.315  1.00  0.00     0.119 A 
HETATM    4  N2  UNL     1      27.634   2.164  52.328  1.00  0.00    -0.260 NA
HETATM    5  C11 UNL     1      26.403   2.190  51.779  1.00  0.00     0.068 A 
HETATM    6  C12 UNL     1      25.420   1.335  52.220  1.00  0.00     0.035 A 
HETATM    7  C13 UNL     1      24.218   1.393  51.676  1.00  0.00     0.109 A 
HETATM    8  N3  UNL     1      23.977   2.326  50.642  1.00  0.00    -0.331 N 
HETATM    9  C15 UNL     1      24.976   3.229  50.106  1.00  0.00     0.160 A 
HETATM   10  C16 UNL     1      26.273   3.073  50.821  1.00  0.00     0.026 A 
ENDROOT
BRANCH   1  11
HETATM   11  N1  UNL     1      24.670  -0.492  53.700  1.00  0.00    -0.365 N 
HETATM   12  H10 UNL     1      23.824  -0.915  53.293  1.00  0.00     0.165 HD
BRANCH  11  13
HETATM   13  C7  UNL     1      24.836  -0.974  55.059  1.00  0.00     0.088 C 
HETATM   14  C6  UNL     1      23.607  -1.255  55.587  1.00  0.00     0.017 C 
BRANCH  14  15
HETATM   15  C5  UNL     1      22.453  -1.029  54.730  1.00  0.00     0.001 C 
HETATM   16  C4  UNL     1      21.199  -0.738  54.434  1.00  0.00    -0.000 C 
BRANCH  16  17
HETATM   17  C3  UNL     1      20.102  -0.531  53.515  1.00  0.00    -0.004 C 
HETATM   18  C2  UNL     1      20.485   0.074  52.427  1.00  0.00    -0.031 C 
HETATM   19  C1  UNL     1      19.385   0.289  51.487  1.00  0.00     0.036 C 
ENDBRANCH  16  17
ENDBRANCH  14  15
ENDBRANCH  11  13
ENDBRANCH   1  11
BRANCH   8  20
HETATM   20  C14 UNL     1      22.674   2.385  50.086  1.00  0.00     0.355 C 
HETATM   21  O1  UNL     1      22.194   1.786  49.062  1.00  0.00    -0.283 OA
ENDBRANCH   8  20
TORSDOF 5
ENDMDL
MODEL 6
REMARK VINA RESULT:      -6.7      2.514      4.132
REMARK  5 active torsions:
REMARK  status: ('A' for Active; 'I' for Inactive)
REMARK    1  A    between atoms: C3_3  and  C4_4 
REMARK    2  A    between atoms: C5_5  and  C6_6 
REMARK    3  A    between atoms: C7_7  and  N1_8 
REMARK    4  A    between atoms: N1_8  and  C8_9 
REMARK    5  A    between atoms: N3_16  and  C14_17 
ROOT
HETATM    1  C8  UNL     1      22.486   2.576  52.203  1.00  0.00     0.047 A 
HETATM    2  C9  UNL     1      21.202   2.973  51.932  1.00  0.00     0.049 A 
HETATM    3  C10 UNL     1      20.049   2.321  52.300  1.00  0.00     0.119 A 
HETATM    4  N2  UNL     1      20.201   1.182  52.993  1.00  0.00    -0.260 NA
HETATM    5  C11 UNL     1      21.420   0.704  53.311  1.00  0.00     0.068 A 
HETATM    6  C12 UNL     1      22.558   1.377  52.933  1.00  0.00     0.035 A 
HETATM    7  C13 UNL     1      23.740   0.895  53.274  1.00  0.00     0.109 A 
HETATM    8  N3  UNL     1      23.803  -0.311  54.008  1.00  0.00    -0.331 N 
HETATM    9  C15 UNL     1      22.647  -1.088  54.405  1.00  0.00     0.160 A 
HETATM   10  C16 UNL     1      21.385  -0.422  53.978  1.00  0.00     0.026 A 
ENDROOT
BRANCH   1  11
HETATM   11  N1  UNL     1      23.652   3.270  51.788  1.00  0.00    -0.365 N 
HETATM   12  H10 UNL     1      24.417   3.769  52.263  1.00  0.00     0.165 HD
BRANCH  11  13
HETATM   13  C7  UNL     1      23.873   3.312  50.354  1.00  0.00     0.088 C 
HETATM   14  C6  UNL     1      25.183   3.019  50.095  1.00  0.00     0.017 C 
BRANCH  14  15
HETATM   15  C5  UNL     1      26.037   2.741  51.241  1.00  0.00     0.001 C 
HETATM   16  C4  UNL     1      27.125   2.344  51.876  1.00  0.00    -0.000 C 
BRANCH  16  17
HETATM   17  C3  UNL     1      27.908   2.095  53.065  1.00  0.00    -0.004 C 
HETATM   18  C2  UNL     1      28.083   0.822  53.276  1.00  0.00    -0.031 C 
HETATM   19  C1  UNL     1      28.875   0.555  54.477  1.00  0.00     0.036 C 
ENDBRANCH  16  17
ENDBRANCH  14  15
ENDBRANCH  11  13
ENDBRANCH   1  11
BRANCH   8  20
HETATM   20  C14 UNL     1      25.082  -0.800  54.379  1.00  0.00     0.355 C 
HETATM   21  O1  UNL     1      25.594  -0.946  55.542  1.00  0.00    -0.283 OA
ENDBRANCH   8  20
TORSDOF 5
ENDMDL
MODEL 7
REMARK VINA RESULT:      -6.7      2.314      5.557
REMARK  5 active torsions:
REMARK  status: ('A' for Active; 'I' for Inactive)
REMARK    1  A    between atoms: C3_3  and  C4_4 
REMARK    2  A    between atoms: C5_5  and  C6_6 
REMARK    3  A    between atoms: C7_7  and  N1_8 
REMARK    4  A    between atoms: N1_8  and  C8_9 
REMARK    5  A    between atoms: N3_16  and  C14_17 
ROOT
HETATM    1  C8  UNL     1      24.174   2.549  50.711  1.00  0.00     0.047 A 
HETATM    2  C9  UNL     1      24.784   3.428  49.854  1.00  0.00     0.049 A 
HETATM    3  C10 UNL     1      26.127   3.709  49.791  1.00  0.00     0.119 A 
HETATM    4  N2  UNL     1      26.917   3.058  50.658  1.00  0.00    -0.260 NA
HETATM    5  C11 UNL     1      26.417   2.173  51.543  1.00  0.00     0.068 A 
HETATM    6  C12 UNL     1      25.068   1.907  51.584  1.00  0.00     0.035 A 
HETATM    7  C13 UNL     1      24.608   1.022  52.450  1.00  0.00     0.109 A 
HETATM    8  N3  UNL     1      25.515   0.381  53.325  1.00  0.00    -0.331 N 
HETATM    9  C15 UNL     1      26.940   0.642  53.359  1.00  0.00     0.160 A 
HETATM   10  C16 UNL     1      27.324   1.639  52.321  1.00  0.00     0.026 A 
ENDROOT
BRANCH   1  11
HETATM   11  N1  UNL     1      22.777   2.299  50.756  1.00  0.00    -0.365 N 
HETATM   12  H10 UNL     1      22.183   1.468  50.884  1.00  0.00     0.165 HD
BRANCH  11  13
HETATM   13  C7  UNL     1      21.931   3.468  50.593  1.00  0.00     0.088 C 
HETATM   14  C6  UNL     1      20.964   3.458  51.559  1.00  0.00     0.017 C 
BRANCH  14  15
HETATM   15  C5  UNL     1      20.979   2.345  52.497  1.00  0.00     0.001 C 
HETATM   16  C4  UNL     1      20.511   1.283  53.129  1.00  0.00    -0.000 C 
BRANCH  16  17
HETATM   17  C3  UNL     1      20.606   0.203  54.085  1.00  0.00    -0.004 C 
HETATM   18  C2  UNL     1      21.431  -0.725  53.693  1.00  0.00    -0.031 C 
HETATM   19  C1  UNL     1      21.537  -1.825  54.651  1.00  0.00     0.036 C 
ENDBRANCH  16  17
ENDBRANCH  14  15
ENDBRANCH  11  13
ENDBRANCH   1  11
BRANCH   8  20
HETATM   20  C14 UNL     1      25.002  -0.579  54.233  1.00  0.00     0.355 C 
HETATM   21  O1  UNL     1      25.481  -0.989  55.346  1.00  0.00    -0.283 OA
ENDBRANCH   8  20
TORSDOF 5
ENDMDL
MODEL 8
REMARK VINA RESULT:      -6.7      2.952      6.292
REMARK  5 active torsions:
REMARK  status: ('A' for Active; 'I' for Inactive)
REMARK    1  A    between atoms: C3_3  and  C4_4 
REMARK    2  A    between atoms: C5_5  and  C6_6 
REMARK    3  A    between atoms: C7_7  and  N1_8 
REMARK    4  A    between atoms: N1_8  and  C8_9 
REMARK    5  A    between atoms: N3_16  and  C14_17 
ROOT
HETATM    1  C8  UNL     1      23.684   0.543  52.938  1.00  0.00     0.047 A 
HETATM    2  C9  UNL     1      23.014   1.727  52.766  1.00  0.00     0.049 A 
HETATM    3  C10 UNL     1      23.578   2.965  52.575  1.00  0.00     0.119 A 
HETATM    4  N2  UNL     1      24.918   3.017  52.555  1.00  0.00    -0.260 NA
HETATM    5  C11 UNL     1      25.671   1.910  52.714  1.00  0.00     0.068 A 
HETATM    6  C12 UNL     1      25.082   0.681  52.902  1.00  0.00     0.035 A 
HETATM    7  C13 UNL     1      25.844  -0.389  53.038  1.00  0.00     0.109 A 
HETATM    8  N3  UNL     1      27.249  -0.241  53.001  1.00  0.00    -0.331 N 
HETATM    9  C15 UNL     1      27.934   1.027  52.844  1.00  0.00     0.160 A 
HETATM   10  C16 UNL     1      26.959   2.141  52.680  1.00  0.00     0.026 A 
ENDROOT
BRANCH   1  11
HETATM   11  N1  UNL     1      23.063  -0.715  53.151  1.00  0.00    -0.365 N 
HETATM   12  H10 UNL     1      22.733  -1.483  52.550  1.00  0.00     0.165 HD
BRANCH  11  13
HETATM   13  C7  UNL     1      22.813  -1.057  54.540  1.00  0.00     0.088 C 
HETATM   14  C6  UNL     1      21.464  -1.116  54.750  1.00  0.00     0.017 C 
BRANCH  14  15
HETATM   15  C5  UNL     1      20.605  -0.842  53.608  1.00  0.00     0.001 C 
HETATM   16  C4  UNL     1      19.751  -0.158  52.868  1.00  0.00    -0.000 C 
BRANCH  16  17
HETATM   17  C3  UNL     1      18.921   0.038  51.700  1.00  0.00    -0.004 C 
HETATM   18  C2  UNL     1      17.737  -0.481  51.851  1.00  0.00    -0.031 C 
HETATM   19  C1  UNL     1      16.886  -0.290  50.677  1.00  0.00     0.036 C 
ENDBRANCH  16  17
ENDBRANCH  14  15
ENDBRANCH  11  13
ENDBRANCH   1  11
BRANCH   8  20
HETATM   20  C14 UNL     1      28.047  -1.406  53.130  1.00  0.00     0.355 C 
HETATM   21  O1  UNL     1      27.717  -2.638  53.027  1.00  0.00    -0.283 OA
ENDBRANCH   8  20
TORSDOF 5
ENDMDL
MODEL 9
REMARK VINA RESULT:      -6.5      3.058      7.076
REMARK  5 active torsions:
REMARK  status: ('A' for Active; 'I' for Inactive)
REMARK    1  A    between atoms: C3_3  and  C4_4 
REMARK    2  A    between atoms: C5_5  and  C6_6 
REMARK    3  A    between atoms: C7_7  and  N1_8 
REMARK    4  A    between atoms: N1_8  and  C8_9 
REMARK    5  A    between atoms: N3_16  and  C14_17 
ROOT
HETATM    1  C8  UNL     1      25.122   2.200  52.001  1.00  0.00     0.047 A 
HETATM    2  C9  UNL     1      26.317   2.459  51.380  1.00  0.00     0.049 A 
HETATM    3  C10 UNL     1      26.490   3.063  50.158  1.00  0.00     0.119 A 
HETATM    4  N2  UNL     1      25.375   3.434  49.510  1.00  0.00    -0.260 NA
HETATM    5  C11 UNL     1      24.151   3.226  50.033  1.00  0.00     0.068 A 
HETATM    6  C12 UNL     1      24.005   2.621  51.260  1.00  0.00     0.035 A 
HETATM    7  C13 UNL     1      22.793   2.445  51.756  1.00  0.00     0.109 A 
HETATM    8  N3  UNL     1      21.675   2.871  51.004  1.00  0.00    -0.331 N 
HETATM    9  C15 UNL     1      21.756   3.480  49.692  1.00  0.00     0.160 A 
HETATM   10  C16 UNL     1      23.174   3.638  49.265  1.00  0.00     0.026 A 
ENDROOT
BRANCH   1  11
HETATM   11  N1  UNL     1      24.986   1.556  53.258  1.00  0.00    -0.365 N 
HETATM   12  H10 UNL     1      24.282   1.553  54.010  1.00  0.00     0.165 HD
BRANCH  11  13
HETATM   13  C7  UNL     1      26.074   0.667  53.622  1.00  0.00     0.088 C 
HETATM   14  C6  UNL     1      25.555  -0.518  54.061  1.00  0.00     0.017 C 
BRANCH  14  15
HETATM   15  C5  UNL     1      24.105  -0.641  54.073  1.00  0.00     0.001 C 
HETATM   16  C4  UNL     1      22.923  -1.033  54.513  1.00  0.00    -0.000 C 
BRANCH  16  17
HETATM   17  C3  UNL     1      21.480  -1.106  54.452  1.00  0.00    -0.004 C 
HETATM   18  C2  UNL     1      21.001  -0.452  53.433  1.00  0.00    -0.031 C 
HETATM   19  C1  UNL     1      19.542  -0.518  53.359  1.00  0.00     0.036 C 
ENDBRANCH  16  17
ENDBRANCH  14  15
ENDBRANCH  11  13
ENDBRANCH   1  11
BRANCH   8  20
HETATM   20  C14 UNL     1      20.385   2.690  51.565  1.00  0.00     0.355 C 
HETATM   21  O1  UNL     1      19.930   3.057  52.704  1.00  0.00    -0.283 OA
ENDBRANCH   8  20
TORSDOF 5
ENDMDL
