MODEL 1
REMARK VINA RESULT:      -8.8      0.000      0.000
REMARK  6 active torsions:
REMARK  status: ('A' for Active; 'I' for Inactive)
REMARK    1  A    between atoms: N2_5  and  C4_6 
REMARK    2  A    between atoms: C7_9  and  N3_10 
REMARK       I    between atoms: N3_10  and  C8_11 
REMARK    3  A    between atoms: C8_11  and  C9_13 
REMARK    4  A    between atoms: C10_14  and  C11_15 
REMARK    5  A    between atoms: C15_20  and  N5_21 
REMARK    6  A    between atoms: C17_23  and  O2_24 
ROOT
HETATM    1  C9  UNL     1      23.899   1.155  53.042  1.00  0.00     0.039 A 
HETATM    2  C10 UNL     1      24.525   0.065  53.437  1.00  0.00    -0.006 A 
HETATM    3  C16 UNL     1      23.687  -1.017  54.007  1.00  0.00     0.068 A 
HETATM    4  C17 UNL     1      22.353  -0.968  54.148  1.00  0.00     0.136 A 
HETATM    5  N6  UNL     1      21.795   0.269  53.682  1.00  0.00    -0.367 N 
HETATM    6  C18 UNL     1      22.444   1.406  53.116  1.00  0.00     0.167 A 
HETATM    7  H18 UNL     1      20.750   0.430  53.735  1.00  0.00     0.161 HD
ENDROOT
BRANCH   1   8
HETATM    8  C8  UNL     1      24.757   2.192  52.483  1.00  0.00     0.254 C 
HETATM    9  N3  UNL     1      24.690   2.564  51.125  1.00  0.00    -0.323 N 
HETATM   10  H10 UNL     1      23.955   2.010  50.588  1.00  0.00     0.169 HD
HETATM   11  O1  UNL     1      25.625   2.857  53.094  1.00  0.00    -0.268 OA
BRANCH   9  12
HETATM   12  C7  UNL     1      25.411   3.523  50.375  1.00  0.00     0.035 A 
HETATM   13  C6  UNL     1      24.932   4.814  50.319  1.00  0.00     0.032 A 
HETATM   14  C5  UNL     1      25.551   5.822  49.621  1.00  0.00     0.031 A 
HETATM   15  C4  UNL     1      26.710   5.586  48.925  1.00  0.00     0.030 A 
HETATM   16  C20 UNL     1      27.221   4.304  48.958  1.00  0.00     0.031 A 
HETATM   17  C19 UNL     1      26.557   3.352  49.669  1.00  0.00     0.032 A 
BRANCH  15  18
HETATM   18  N2  UNL     1      27.392   6.595  48.180  1.00  0.00    -0.378 N 
HETATM   19  C3  UNL     1      26.803   7.855  47.713  1.00  0.00     0.153 C 
HETATM   20  C2  UNL     1      27.494   8.196  46.409  1.00  0.00     0.291 C 
HETATM   21  N1  UNL     1      28.863   8.599  46.665  1.00  0.00     0.087 N 
HETATM   22  C1  UNL     1      28.962   9.998  46.984  1.00  0.00     0.310 C 
HETATM   23  C22 UNL     1      29.474   7.786  47.697  1.00  0.00     0.291 C 
HETATM   24  C21 UNL     1      28.785   6.436  47.822  1.00  0.00     0.153 C 
ENDBRANCH  15  18
ENDBRANCH   9  12
ENDBRANCH   1   8
BRANCH   2  25
HETATM   25  C11 UNL     1      25.917  -0.323  53.437  1.00  0.00     0.004 A 
HETATM   26  C12 UNL     1      26.665  -1.089  52.608  1.00  0.00     0.034 A 
HETATM   27  C13 UNL     1      27.995  -1.383  52.802  1.00  0.00     0.117 A 
HETATM   28  N4  UNL     1      28.620  -0.885  53.882  1.00  0.00    -0.271 NA
HETATM   29  C14 UNL     1      27.984  -0.114  54.769  1.00  0.00     0.146 A 
HETATM   30  C15 UNL     1      26.640   0.160  54.541  1.00  0.00     0.054 A 
BRANCH  30  31
HETATM   31  N5  UNL     1      26.032   0.998  55.544  1.00  0.00    -0.397 N 
HETATM   32  H14 UNL     1      25.440   0.840  56.390  1.00  0.00     0.156 HD
HETATM   33  H15 UNL     1      26.025   2.045  55.697  1.00  0.00     0.156 HD
ENDBRANCH  30  31
ENDBRANCH   2  25
BRANCH   4  34
HETATM   34  O2  UNL     1      21.529  -1.952  54.675  1.00  0.00    -0.346 OA
HETATM   35  H17 UNL     1      21.641  -2.225  55.645  1.00  0.00     0.219 HD
ENDBRANCH   4  34
TORSDOF 6
ENDMDL
MODEL 2
REMARK VINA RESULT:      -8.5      3.465      9.429
REMARK  6 active torsions:
REMARK  status: ('A' for Active; 'I' for Inactive)
REMARK    1  A    between atoms: N2_5  and  C4_6 
REMARK    2  A    between atoms: C7_9  and  N3_10 
REMARK       I    between atoms: N3_10  and  C8_11 
REMARK    3  A    between atoms: C8_11  and  C9_13 
REMARK    4  A    between atoms: C10_14  and  C11_15 
REMARK    5  A    between atoms: C15_20  and  N5_21 
REMARK    6  A    between atoms: C17_23  and  O2_24 
ROOT
HETATM    1  C9  UNL     1      26.353   0.689  53.661  1.00  0.00     0.039 A 
HETATM    2  C10 UNL     1      26.715   1.707  52.907  1.00  0.00    -0.006 A 
HETATM    3  C16 UNL     1      28.011   2.351  53.230  1.00  0.00     0.068 A 
HETATM    4  C17 UNL     1      28.833   1.977  54.223  1.00  0.00     0.136 A 
HETATM    5  N6  UNL     1      28.325   0.860  54.967  1.00  0.00    -0.367 N 
HETATM    6  C18 UNL     1      27.111   0.129  54.800  1.00  0.00     0.167 A 
HETATM    7  H18 UNL     1      28.884   0.466  55.776  1.00  0.00     0.161 HD
ENDROOT
BRANCH   1   8
HETATM    8  C8  UNL     1      25.077   0.080  53.308  1.00  0.00     0.254 C 
HETATM    9  N3  UNL     1      23.866   0.490  53.901  1.00  0.00    -0.323 N 
HETATM   10  H10 UNL     1      24.005   1.274  54.610  1.00  0.00     0.169 HD
HETATM   11  O1  UNL     1      24.889  -0.839  52.478  1.00  0.00    -0.268 OA
BRANCH   9  12
HETATM   12  C7  UNL     1      22.533   0.051  53.720  1.00  0.00     0.035 A 
HETATM   13  C6  UNL     1      21.736   0.717  52.815  1.00  0.00     0.032 A 
HETATM   14  C5  UNL     1      20.430   0.376  52.562  1.00  0.00     0.031 A 
HETATM   15  C4  UNL     1      19.838  -0.674  53.217  1.00  0.00     0.030 A 
HETATM   16  C20 UNL     1      20.605  -1.366  54.131  1.00  0.00     0.031 A 
HETATM   17  C19 UNL     1      21.893  -0.976  54.334  1.00  0.00     0.032 A 
BRANCH  15  18
HETATM   18  N2  UNL     1      18.483  -1.069  52.995  1.00  0.00    -0.378 N 
HETATM   19  C3  UNL     1      17.555  -0.436  52.051  1.00  0.00     0.153 C 
HETATM   20  C2  UNL     1      16.173  -0.563  52.658  1.00  0.00     0.291 C 
HETATM   21  N1  UNL     1      15.734  -1.944  52.607  1.00  0.00     0.087 N 
HETATM   22  C1  UNL     1      15.118  -2.267  51.349  1.00  0.00     0.310 C 
HETATM   23  C22 UNL     1      16.817  -2.859  52.906  1.00  0.00     0.291 C 
HETATM   24  C21 UNL     1      17.908  -2.181  53.720  1.00  0.00     0.153 C 
ENDBRANCH  15  18
ENDBRANCH   9  12
ENDBRANCH   1   8
BRANCH   2  25
HETATM   25  C11 UNL     1      26.092   2.365  51.781  1.00  0.00     0.004 A 
HETATM   26  C12 UNL     1      26.295   2.303  50.443  1.00  0.00     0.034 A 
HETATM   27  C13 UNL     1      25.615   3.054  49.513  1.00  0.00     0.117 A 
HETATM   28  N4  UNL     1      24.676   3.916  49.935  1.00  0.00    -0.271 NA
HETATM   29  C14 UNL     1      24.387   4.062  51.232  1.00  0.00     0.146 A 
HETATM   30  C15 UNL     1      25.096   3.287  52.143  1.00  0.00     0.054 A 
BRANCH  30  31
HETATM   31  N5  UNL     1      24.722   3.506  53.518  1.00  0.00    -0.397 N 
HETATM   32  H14 UNL     1      24.699   2.928  54.387  1.00  0.00     0.156 HD
HETATM   33  H15 UNL     1      24.354   4.354  54.035  1.00  0.00     0.156 HD
ENDBRANCH  30  31
ENDBRANCH   2  25
BRANCH   4  34
HETATM   34  O2  UNL     1      30.051   2.547  54.562  1.00  0.00    -0.346 OA
HETATM   35  H17 UNL     1      30.879   2.297  54.034  1.00  0.00     0.219 HD
ENDBRANCH   4  34
TORSDOF 6
ENDMDL
MODEL 3
REMARK VINA RESULT:      -8.0      2.069      4.319
REMARK  6 active torsions:
REMARK  status: ('A' for Active; 'I' for Inactive)
REMARK    1  A    between atoms: N2_5  and  C4_6 
REMARK    2  A    between atoms: C7_9  and  N3_10 
REMARK       I    between atoms: N3_10  and  C8_11 
REMARK    3  A    between atoms: C8_11  and  C9_13 
REMARK    4  A    between atoms: C10_14  and  C11_15 
REMARK    5  A    between atoms: C15_20  and  N5_21 
REMARK    6  A    between atoms: C17_23  and  O2_24 
ROOT
HETATM    1  C9  UNL     1      23.151   1.141  53.116  1.00  0.00     0.039 A 
HETATM    2  C10 UNL     1      21.866   1.183  52.825  1.00  0.00    -0.006 A 
HETATM    3  C16 UNL     1      21.026   0.080  53.349  1.00  0.00     0.068 A 
HETATM    4  C17 UNL     1      21.472  -0.946  54.090  1.00  0.00     0.136 A 
HETATM    5  N6  UNL     1      22.884  -0.874  54.336  1.00  0.00    -0.367 N 
HETATM    6  C18 UNL     1      23.835   0.099  53.911  1.00  0.00     0.167 A 
HETATM    7  H18 UNL     1      23.358  -1.625  54.913  1.00  0.00     0.161 HD
ENDROOT
BRANCH   1   8
HETATM    8  C8  UNL     1      23.941   2.245  52.586  1.00  0.00     0.254 C 
HETATM    9  N3  UNL     1      24.322   2.306  51.231  1.00  0.00    -0.323 N 
HETATM   10  H10 UNL     1      23.966   1.473  50.670  1.00  0.00     0.169 HD
HETATM   11  O1  UNL     1      24.368   3.234  53.225  1.00  0.00    -0.268 OA
BRANCH   9  12
HETATM   12  C7  UNL     1      25.076   3.262  50.508  1.00  0.00     0.035 A 
HETATM   13  C6  UNL     1      24.520   4.501  50.274  1.00  0.00     0.032 A 
HETATM   14  C5  UNL     1      25.162   5.500  49.584  1.00  0.00     0.031 A 
HETATM   15  C4  UNL     1      26.423   5.307  49.078  1.00  0.00     0.030 A 
HETATM   16  C20 UNL     1      27.012   4.077  49.292  1.00  0.00     0.031 A 
HETATM   17  C19 UNL     1      26.321   3.132  49.984  1.00  0.00     0.032 A 
BRANCH  15  18
HETATM   18  N2  UNL     1      27.134   6.309  48.350  1.00  0.00    -0.378 N 
HETATM   19  C3  UNL     1      28.548   6.240  47.964  1.00  0.00     0.153 C 
HETATM   20  C2  UNL     1      29.066   7.663  47.973  1.00  0.00     0.291 C 
HETATM   21  N1  UNL     1      28.503   8.402  46.860  1.00  0.00     0.087 N 
HETATM   22  C1  UNL     1      29.265   8.223  45.654  1.00  0.00     0.310 C 
HETATM   23  C22 UNL     1      27.109   8.067  46.648  1.00  0.00     0.291 C 
HETATM   24  C21 UNL     1      26.470   7.519  47.915  1.00  0.00     0.153 C 
ENDBRANCH  15  18
ENDBRANCH   9  12
ENDBRANCH   1   8
BRANCH   2  25
HETATM   25  C11 UNL     1      21.061   2.114  52.067  1.00  0.00     0.004 A 
HETATM   26  C12 UNL     1      20.429   3.268  52.389  1.00  0.00     0.034 A 
HETATM   27  C13 UNL     1      19.659   4.007  51.522  1.00  0.00     0.117 A 
HETATM   28  N4  UNL     1      19.509   3.576  50.258  1.00  0.00    -0.271 NA
HETATM   29  C14 UNL     1      20.086   2.451  49.825  1.00  0.00     0.146 A 
HETATM   30  C15 UNL     1      20.856   1.730  50.732  1.00  0.00     0.054 A 
BRANCH  30  31
HETATM   31  N5  UNL     1      21.442   0.532  50.183  1.00  0.00    -0.397 N 
HETATM   32  H14 UNL     1      21.080  -0.329  49.716  1.00  0.00     0.156 HD
HETATM   33  H15 UNL     1      22.441   0.193  50.104  1.00  0.00     0.156 HD
ENDBRANCH  30  31
ENDBRANCH   2  25
BRANCH   4  34
HETATM   34  O2  UNL     1      20.726  -1.998  54.601  1.00  0.00    -0.346 OA
HETATM   35  H17 UNL     1      19.864  -1.799  55.097  1.00  0.00     0.219 HD
ENDBRANCH   4  34
TORSDOF 6
ENDMDL
MODEL 4
REMARK VINA RESULT:      -8.0      1.853      2.514
REMARK  6 active torsions:
REMARK  status: ('A' for Active; 'I' for Inactive)
REMARK    1  A    between atoms: N2_5  and  C4_6 
REMARK    2  A    between atoms: C7_9  and  N3_10 
REMARK       I    between atoms: N3_10  and  C8_11 
REMARK    3  A    between atoms: C8_11  and  C9_13 
REMARK    4  A    between atoms: C10_14  and  C11_15 
REMARK    5  A    between atoms: C15_20  and  N5_21 
REMARK    6  A    between atoms: C17_23  and  O2_24 
ROOT
HETATM    1  C9  UNL     1      23.011   2.330  51.202  1.00  0.00     0.039 A 
HETATM    2  C10 UNL     1      23.615   1.590  52.110  1.00  0.00    -0.006 A 
HETATM    3  C16 UNL     1      22.748   0.908  53.100  1.00  0.00     0.068 A 
HETATM    4  C17 UNL     1      21.408   0.987  53.138  1.00  0.00     0.136 A 
HETATM    5  N6  UNL     1      20.877   1.820  52.098  1.00  0.00    -0.367 N 
HETATM    6  C18 UNL     1      21.555   2.548  51.076  1.00  0.00     0.167 A 
HETATM    7  H18 UNL     1      19.830   1.960  52.017  1.00  0.00     0.161 HD
ENDROOT
BRANCH   1   8
HETATM    8  C8  UNL     1      23.898   2.979  50.245  1.00  0.00     0.254 C 
HETATM    9  N3  UNL     1      24.727   4.058  50.610  1.00  0.00    -0.323 N 
HETATM   10  H10 UNL     1      24.625   4.321  51.638  1.00  0.00     0.169 HD
HETATM   11  O1  UNL     1      24.037   2.688  49.035  1.00  0.00    -0.268 OA
BRANCH   9  12
HETATM   12  C7  UNL     1      25.650   4.831  49.865  1.00  0.00     0.035 A 
HETATM   13  C6  UNL     1      26.778   4.214  49.368  1.00  0.00     0.032 A 
HETATM   14  C5  UNL     1      27.737   4.869  48.634  1.00  0.00     0.031 A 
HETATM   15  C4  UNL     1      27.616   6.206  48.352  1.00  0.00     0.030 A 
HETATM   16  C20 UNL     1      26.499   6.858  48.833  1.00  0.00     0.031 A 
HETATM   17  C19 UNL     1      25.587   6.150  49.554  1.00  0.00     0.032 A 
BRANCH  15  18
HETATM   18  N2  UNL     1      28.584   6.936  47.597  1.00  0.00    -0.378 N 
HETATM   19  C3  UNL     1      30.034   6.719  47.637  1.00  0.00     0.153 C 
HETATM   20  C2  UNL     1      30.677   8.070  47.399  1.00  0.00     0.291 C 
HETATM   21  N1  UNL     1      30.487   8.472  46.019  1.00  0.00     0.087 N 
HETATM   22  C1  UNL     1      31.502   7.933  45.155  1.00  0.00     0.310 C 
HETATM   23  C22 UNL     1      29.162   8.130  45.542  1.00  0.00     0.291 C 
HETATM   24  C21 UNL     1      28.177   7.987  46.691  1.00  0.00     0.153 C 
ENDBRANCH  15  18
ENDBRANCH   9  12
ENDBRANCH   1   8
BRANCH   2  25
HETATM   25  C11 UNL     1      25.006   1.288  52.365  1.00  0.00     0.004 A 
HETATM   26  C12 UNL     1      25.824   0.286  51.965  1.00  0.00     0.034 A 
HETATM   27  C13 UNL     1      27.135   0.143  52.355  1.00  0.00     0.117 A 
HETATM   28  N4  UNL     1      27.666   1.051  53.191  1.00  0.00    -0.271 NA
HETATM   29  C14 UNL     1      26.955   2.085  53.650  1.00  0.00     0.146 A 
HETATM   30  C15 UNL     1      25.632   2.195  53.235  1.00  0.00     0.054 A 
BRANCH  30  31
HETATM   31  N5  UNL     1      24.940   3.337  53.777  1.00  0.00    -0.397 N 
HETATM   32  H14 UNL     1      23.973   3.727  53.707  1.00  0.00     0.156 HD
HETATM   33  H15 UNL     1      25.242   4.120  54.422  1.00  0.00     0.156 HD
ENDBRANCH  30  31
ENDBRANCH   2  25
BRANCH   4  34
HETATM   34  O2  UNL     1      20.558   0.368  54.042  1.00  0.00    -0.346 OA
HETATM   35  H17 UNL     1      20.819  -0.531  54.433  1.00  0.00     0.219 HD
ENDBRANCH   4  34
TORSDOF 6
ENDMDL
MODEL 5
REMARK VINA RESULT:      -7.8      4.983      8.739
REMARK  6 active torsions:
REMARK  status: ('A' for Active; 'I' for Inactive)
REMARK    1  A    between atoms: N2_5  and  C4_6 
REMARK    2  A    between atoms: C7_9  and  N3_10 
REMARK       I    between atoms: N3_10  and  C8_11 
REMARK    3  A    between atoms: C8_11  and  C9_13 
REMARK    4  A    between atoms: C10_14  and  C11_15 
REMARK    5  A    between atoms: C15_20  and  N5_21 
REMARK    6  A    between atoms: C17_23  and  O2_24 
ROOT
HETATM    1  C9  UNL     1      17.638  -0.195  52.193  1.00  0.00     0.039 A 
HETATM    2  C10 UNL     1      16.857   0.775  51.764  1.00  0.00    -0.006 A 
HETATM    3  C16 UNL     1      15.400   0.608  51.985  1.00  0.00     0.068 A 
HETATM    4  C17 UNL     1      14.826  -0.447  52.584  1.00  0.00     0.136 A 
HETATM    5  N6  UNL     1      15.783  -1.429  53.004  1.00  0.00    -0.367 N 
HETATM    6  C18 UNL     1      17.203  -1.435  52.871  1.00  0.00     0.167 A 
HETATM    7  H18 UNL     1      15.456  -2.310  53.494  1.00  0.00     0.161 HD
ENDROOT
BRANCH   1   8
HETATM    8  C8  UNL     1      19.062   0.010  51.962  1.00  0.00     0.254 C 
HETATM    9  N3  UNL     1      19.974   0.173  53.023  1.00  0.00    -0.323 N 
HETATM   10  H10 UNL     1      19.501   0.124  53.977  1.00  0.00     0.169 HD
HETATM   11  O1  UNL     1      19.639   0.069  50.852  1.00  0.00    -0.268 OA
BRANCH   9  12
HETATM   12  C7  UNL     1      21.374   0.383  53.037  1.00  0.00     0.035 A 
HETATM   13  C6  UNL     1      22.193  -0.653  53.432  1.00  0.00     0.032 A 
HETATM   14  C5  UNL     1      23.562  -0.558  53.484  1.00  0.00     0.031 A 
HETATM   15  C4  UNL     1      24.199   0.606  53.136  1.00  0.00     0.030 A 
HETATM   16  C20 UNL     1      23.412   1.667  52.736  1.00  0.00     0.031 A 
HETATM   17  C19 UNL     1      22.061   1.505  52.707  1.00  0.00     0.032 A 
BRANCH  15  18
HETATM   18  N2  UNL     1      25.619   0.761  53.176  1.00  0.00    -0.378 N 
HETATM   19  C3  UNL     1      26.337   1.865  53.822  1.00  0.00     0.153 C 
HETATM   20  C2  UNL     1      27.595   2.094  53.008  1.00  0.00     0.291 C 
HETATM   21  N1  UNL     1      28.520   0.996  53.208  1.00  0.00     0.087 N 
HETATM   22  C1  UNL     1      29.341   1.187  54.373  1.00  0.00     0.310 C 
HETATM   23  C22 UNL     1      27.832  -0.279  53.262  1.00  0.00     0.291 C 
HETATM   24  C21 UNL     1      26.487  -0.214  52.554  1.00  0.00     0.153 C 
ENDBRANCH  15  18
ENDBRANCH   9  12
ENDBRANCH   1   8
BRANCH   2  25
HETATM   25  C11 UNL     1      17.124   2.026  51.089  1.00  0.00     0.004 A 
HETATM   26  C12 UNL     1      17.326   3.290  51.529  1.00  0.00     0.034 A 
HETATM   27  C13 UNL     1      17.528   4.379  50.713  1.00  0.00     0.117 A 
HETATM   28  N4  UNL     1      17.531   4.202  49.382  1.00  0.00    -0.271 NA
HETATM   29  C14 UNL     1      17.344   2.998  48.832  1.00  0.00     0.146 A 
HETATM   30  C15 UNL     1      17.141   1.921  49.688  1.00  0.00     0.054 A 
BRANCH  30  31
HETATM   31  N5  UNL     1      16.948   0.662  49.014  1.00  0.00    -0.397 N 
HETATM   32  H14 UNL     1      17.547   0.015  48.453  1.00  0.00     0.156 HD
HETATM   33  H15 UNL     1      16.107   0.029  48.902  1.00  0.00     0.156 HD
ENDBRANCH  30  31
ENDBRANCH   2  25
BRANCH   4  34
HETATM   34  O2  UNL     1      13.472  -0.646  52.812  1.00  0.00    -0.346 OA
HETATM   35  H17 UNL     1      12.965  -1.309  52.236  1.00  0.00     0.219 HD
ENDBRANCH   4  34
TORSDOF 6
ENDMDL
MODEL 6
REMARK VINA RESULT:      -7.8      2.692      3.843
REMARK  6 active torsions:
REMARK  status: ('A' for Active; 'I' for Inactive)
REMARK    1  A    between atoms: N2_5  and  C4_6 
REMARK    2  A    between atoms: C7_9  and  N3_10 
REMARK       I    between atoms: N3_10  and  C8_11 
REMARK    3  A    between atoms: C8_11  and  C9_13 
REMARK    4  A    between atoms: C10_14  and  C11_15 
REMARK    5  A    between atoms: C15_20  and  N5_21 
REMARK    6  A    between atoms: C17_23  and  O2_24 
ROOT
HETATM    1  C9  UNL     1      22.617   3.934  50.278  1.00  0.00     0.039 A 
HETATM    2  C10 UNL     1      22.579   3.159  51.343  1.00  0.00    -0.006 A 
HETATM    3  C16 UNL     1      21.272   3.034  52.032  1.00  0.00     0.068 A 
HETATM    4  C17 UNL     1      20.139   3.646  51.654  1.00  0.00     0.136 A 
HETATM    5  N6  UNL     1      20.314   4.458  50.485  1.00  0.00    -0.367 N 
HETATM    6  C18 UNL     1      21.486   4.694  49.706  1.00  0.00     0.167 A 
HETATM    7  H18 UNL     1      19.492   4.990  50.083  1.00  0.00     0.161 HD
ENDROOT
BRANCH   1   8
HETATM    8  C8  UNL     1      23.918   4.026  49.627  1.00  0.00     0.254 C 
HETATM    9  N3  UNL     1      24.719   5.181  49.722  1.00  0.00    -0.323 N 
HETATM   10  H10 UNL     1      24.265   5.944  50.312  1.00  0.00     0.169 HD
HETATM   11  O1  UNL     1      24.472   3.144  48.931  1.00  0.00    -0.268 OA
BRANCH   9  12
HETATM   12  C7  UNL     1      25.990   5.492  49.183  1.00  0.00     0.035 A 
HETATM   13  C6  UNL     1      26.224   6.776  48.740  1.00  0.00     0.032 A 
HETATM   14  C5  UNL     1      27.419   7.185  48.199  1.00  0.00     0.031 A 
HETATM   15  C4  UNL     1      28.467   6.310  48.069  1.00  0.00     0.030 A 
HETATM   16  C20 UNL     1      28.271   5.014  48.501  1.00  0.00     0.031 A 
HETATM   17  C19 UNL     1      27.062   4.675  49.027  1.00  0.00     0.032 A 
BRANCH  15  18
HETATM   18  N2  UNL     1      29.728   6.680  47.510  1.00  0.00    -0.378 N 
HETATM   19  C3  UNL     1      30.030   7.962  46.863  1.00  0.00     0.153 C 
HETATM   20  C2  UNL     1      31.058   7.670  45.790  1.00  0.00     0.291 C 
HETATM   21  N1  UNL     1      32.334   7.352  46.400  1.00  0.00     0.087 N 
HETATM   22  C1  UNL     1      33.101   8.532  46.693  1.00  0.00     0.310 C 
HETATM   23  C22 UNL     1      32.170   6.532  47.584  1.00  0.00     0.291 C 
HETATM   24  C21 UNL     1      30.853   5.771  47.554  1.00  0.00     0.153 C 
ENDBRANCH  15  18
ENDBRANCH   9  12
ENDBRANCH   1   8
BRANCH   2  25
HETATM   25  C11 UNL     1      23.583   2.368  52.019  1.00  0.00     0.004 A 
HETATM   26  C12 UNL     1      23.941   1.065  51.942  1.00  0.00     0.034 A 
HETATM   27  C13 UNL     1      24.914   0.474  52.714  1.00  0.00     0.117 A 
HETATM   28  N4  UNL     1      25.573   1.223  53.614  1.00  0.00    -0.271 NA
HETATM   29  C14 UNL     1      25.307   2.523  53.777  1.00  0.00     0.146 A 
HETATM   30  C15 UNL     1      24.315   3.084  52.981  1.00  0.00     0.054 A 
BRANCH  30  31
HETATM   31  N5  UNL     1      24.092   4.488  53.222  1.00  0.00    -0.397 N 
HETATM   32  H14 UNL     1      23.663   5.278  52.690  1.00  0.00     0.156 HD
HETATM   33  H15 UNL     1      24.316   5.120  54.041  1.00  0.00     0.156 HD
ENDBRANCH  30  31
ENDBRANCH   2  25
BRANCH   4  34
HETATM   34  O2  UNL     1      18.897   3.559  52.266  1.00  0.00    -0.346 OA
HETATM   35  H17 UNL     1      18.820   3.112  53.173  1.00  0.00     0.219 HD
ENDBRANCH   4  34
TORSDOF 6
ENDMDL
MODEL 7
REMARK VINA RESULT:      -7.8      4.795     10.323
REMARK  6 active torsions:
REMARK  status: ('A' for Active; 'I' for Inactive)
REMARK    1  A    between atoms: N2_5  and  C4_6 
REMARK    2  A    between atoms: C7_9  and  N3_10 
REMARK       I    between atoms: N3_10  and  C8_11 
REMARK    3  A    between atoms: C8_11  and  C9_13 
REMARK    4  A    between atoms: C10_14  and  C11_15 
REMARK    5  A    between atoms: C15_20  and  N5_21 
REMARK    6  A    between atoms: C17_23  and  O2_24 
ROOT
HETATM    1  C9  UNL     1      23.723  -0.002  53.523  1.00  0.00     0.039 A 
HETATM    2  C10 UNL     1      24.223   0.824  52.625  1.00  0.00    -0.006 A 
HETATM    3  C16 UNL     1      25.689   0.774  52.415  1.00  0.00     0.068 A 
HETATM    4  C17 UNL     1      26.535  -0.041  53.065  1.00  0.00     0.136 A 
HETATM    5  N6  UNL     1      25.867  -0.886  54.012  1.00  0.00    -0.367 N 
HETATM    6  C18 UNL     1      24.482  -0.969  54.343  1.00  0.00     0.167 A 
HETATM    7  H18 UNL     1      26.425  -1.579  54.587  1.00  0.00     0.161 HD
ENDROOT
BRANCH   1   8
HETATM    8  C8  UNL     1      22.277   0.075  53.695  1.00  0.00     0.254 C 
HETATM    9  N3  UNL     1      21.387  -0.576  52.818  1.00  0.00    -0.323 N 
HETATM   10  H10 UNL     1      21.892  -1.112  52.048  1.00  0.00     0.169 HD
HETATM   11  O1  UNL     1      21.662   0.695  54.592  1.00  0.00    -0.268 OA
BRANCH   9  12
HETATM   12  C7  UNL     1      19.973  -0.640  52.789  1.00  0.00     0.035 A 
HETATM   13  C6  UNL     1      19.294   0.179  51.913  1.00  0.00     0.032 A 
HETATM   14  C5  UNL     1      17.925   0.199  51.803  1.00  0.00     0.031 A 
HETATM   15  C4  UNL     1      17.144  -0.616  52.583  1.00  0.00     0.030 A 
HETATM   16  C20 UNL     1      17.789  -1.451  53.473  1.00  0.00     0.031 A 
HETATM   17  C19 UNL     1      19.149  -1.421  53.531  1.00  0.00     0.032 A 
BRANCH  15  18
HETATM   18  N2  UNL     1      15.718  -0.633  52.512  1.00  0.00    -0.378 N 
HETATM   19  C3  UNL     1      14.896  -1.798  52.168  1.00  0.00     0.153 C 
HETATM   20  C2  UNL     1      13.671  -1.263  51.454  1.00  0.00     0.291 C 
HETATM   21  N1  UNL     1      12.810  -0.575  52.395  1.00  0.00     0.087 N 
HETATM   22  C1  UNL     1      11.917  -1.478  53.069  1.00  0.00     0.310 C 
HETATM   23  C22 UNL     1      13.576   0.205  53.347  1.00  0.00     0.291 C 
HETATM   24  C21 UNL     1      14.949   0.559  52.798  1.00  0.00     0.153 C 
ENDBRANCH  15  18
ENDBRANCH   9  12
ENDBRANCH   1   8
BRANCH   2  25
HETATM   25  C11 UNL     1      23.623   1.816  51.761  1.00  0.00     0.004 A 
HETATM   26  C12 UNL     1      22.966   1.739  50.580  1.00  0.00     0.034 A 
HETATM   27  C13 UNL     1      22.496   2.822  49.875  1.00  0.00     0.117 A 
HETATM   28  N4  UNL     1      22.688   4.055  50.373  1.00  0.00    -0.271 NA
HETATM   29  C14 UNL     1      23.322   4.254  51.533  1.00  0.00     0.146 A 
HETATM   30  C15 UNL     1      23.784   3.135  52.216  1.00  0.00     0.054 A 
BRANCH  30  31
HETATM   31  N5  UNL     1      24.455   3.439  53.456  1.00  0.00    -0.397 N 
HETATM   32  H14 UNL     1      24.660   2.923  54.340  1.00  0.00     0.156 HD
HETATM   33  H15 UNL     1      24.941   4.309  53.814  1.00  0.00     0.156 HD
ENDBRANCH  30  31
ENDBRANCH   2  25
BRANCH   4  34
HETATM   34  O2  UNL     1      27.911  -0.122  52.903  1.00  0.00    -0.346 OA
HETATM   35  H17 UNL     1      28.379  -1.005  53.077  1.00  0.00     0.219 HD
ENDBRANCH   4  34
TORSDOF 6
ENDMDL
MODEL 8
REMARK VINA RESULT:      -7.8      2.226      4.252
REMARK  6 active torsions:
REMARK  status: ('A' for Active; 'I' for Inactive)
REMARK    1  A    between atoms: N2_5  and  C4_6 
REMARK    2  A    between atoms: C7_9  and  N3_10 
REMARK       I    between atoms: N3_10  and  C8_11 
REMARK    3  A    between atoms: C8_11  and  C9_13 
REMARK    4  A    between atoms: C10_14  and  C11_15 
REMARK    5  A    between atoms: C15_20  and  N5_21 
REMARK    6  A    between atoms: C17_23  and  O2_24 
ROOT
HETATM    1  C9  UNL     1      23.602   1.730  52.162  1.00  0.00     0.039 A 
HETATM    2  C10 UNL     1      22.493   1.287  51.605  1.00  0.00    -0.006 A 
HETATM    3  C16 UNL     1      21.930   0.028  52.147  1.00  0.00     0.068 A 
HETATM    4  C17 UNL     1      22.461  -0.686  53.152  1.00  0.00     0.136 A 
HETATM    5  N6  UNL     1      23.663  -0.099  53.669  1.00  0.00    -0.367 N 
HETATM    6  C18 UNL     1      24.341   1.092  53.271  1.00  0.00     0.167 A 
HETATM    7  H18 UNL     1      24.177  -0.565  54.470  1.00  0.00     0.161 HD
ENDROOT
BRANCH   1   8
HETATM    8  C8  UNL     1      24.119   2.974  51.605  1.00  0.00     0.254 C 
HETATM    9  N3  UNL     1      25.033   2.986  50.533  1.00  0.00    -0.323 N 
HETATM   10  H10 UNL     1      25.281   2.005  50.197  1.00  0.00     0.169 HD
HETATM   11  O1  UNL     1      23.842   4.136  51.981  1.00  0.00    -0.268 OA
BRANCH   9  12
HETATM   12  C7  UNL     1      25.660   4.051  49.843  1.00  0.00     0.035 A 
HETATM   13  C6  UNL     1      26.933   3.860  49.348  1.00  0.00     0.032 A 
HETATM   14  C5  UNL     1      27.632   4.824  48.666  1.00  0.00     0.031 A 
HETATM   15  C4  UNL     1      27.085   6.061  48.437  1.00  0.00     0.030 A 
HETATM   16  C20 UNL     1      25.812   6.291  48.918  1.00  0.00     0.031 A 
HETATM   17  C19 UNL     1      25.174   5.291  49.586  1.00  0.00     0.032 A 
BRANCH  15  18
HETATM   18  N2  UNL     1      27.769   7.101  47.738  1.00  0.00    -0.378 N 
HETATM   19  C3  UNL     1      27.132   8.146  46.929  1.00  0.00     0.153 C 
HETATM   20  C2  UNL     1      28.102   8.476  45.812  1.00  0.00     0.291 C 
HETATM   21  N1  UNL     1      29.247   9.188  46.345  1.00  0.00     0.087 N 
HETATM   22  C1  UNL     1      29.008  10.602  46.440  1.00  0.00     0.310 C 
HETATM   23  C22 UNL     1      29.665   8.645  47.623  1.00  0.00     0.291 C 
HETATM   24  C21 UNL     1      29.212   7.202  47.788  1.00  0.00     0.153 C 
ENDBRANCH  15  18
ENDBRANCH   9  12
ENDBRANCH   1   8
BRANCH   2  25
HETATM   25  C11 UNL     1      21.668   1.785  50.528  1.00  0.00     0.004 A 
HETATM   26  C12 UNL     1      21.616   1.517  49.201  1.00  0.00     0.034 A 
HETATM   27  C13 UNL     1      20.772   2.138  48.310  1.00  0.00     0.117 A 
HETATM   28  N4  UNL     1      19.926   3.079  48.763  1.00  0.00    -0.271 NA
HETATM   29  C14 UNL     1      19.886   3.425  50.054  1.00  0.00     0.146 A 
HETATM   30  C15 UNL     1      20.756   2.778  50.924  1.00  0.00     0.054 A 
BRANCH  30  31
HETATM   31  N5  UNL     1      20.647   3.211  52.295  1.00  0.00    -0.397 N 
HETATM   32  H14 UNL     1      20.584   4.132  52.784  1.00  0.00     0.156 HD
HETATM   33  H15 UNL     1      20.599   2.685  53.212  1.00  0.00     0.156 HD
ENDBRANCH  30  31
ENDBRANCH   2  25
BRANCH   4  34
HETATM   34  O2  UNL     1      21.972  -1.867  53.691  1.00  0.00    -0.346 OA
HETATM   35  H17 UNL     1      22.529  -2.712  53.620  1.00  0.00     0.219 HD
ENDBRANCH   4  34
TORSDOF 6
ENDMDL
MODEL 9
REMARK VINA RESULT:      -7.8      3.757     10.102
REMARK  6 active torsions:
REMARK  status: ('A' for Active; 'I' for Inactive)
REMARK    1  A    between atoms: N2_5  and  C4_6 
REMARK    2  A    between atoms: C7_9  and  N3_10 
REMARK       I    between atoms: N3_10  and  C8_11 
REMARK    3  A    between atoms: C8_11  and  C9_13 
REMARK    4  A    between atoms: C10_14  and  C11_15 
REMARK    5  A    between atoms: C15_20  and  N5_21 
REMARK    6  A    between atoms: C17_23  and  O2_24 
ROOT
HETATM    1  C9  UNL     1      25.335   4.218  50.061  1.00  0.00     0.039 A 
HETATM    2  C10 UNL     1      25.011   5.366  49.502  1.00  0.00    -0.006 A 
HETATM    3  C16 UNL     1      26.076   6.064  48.743  1.00  0.00     0.068 A 
HETATM    4  C17 UNL     1      27.332   5.617  48.586  1.00  0.00     0.136 A 
HETATM    5  N6  UNL     1      27.555   4.360  49.241  1.00  0.00    -0.367 N 
HETATM    6  C18 UNL     1      26.658   3.560  50.009  1.00  0.00     0.167 A 
HETATM    7  H18 UNL     1      28.507   3.898  49.188  1.00  0.00     0.161 HD
ENDROOT
BRANCH   1   8
HETATM    8  C8  UNL     1      24.259   3.562  50.794  1.00  0.00     0.254 C 
HETATM    9  N3  UNL     1      23.411   2.616  50.184  1.00  0.00    -0.323 N 
HETATM   10  H10 UNL     1      23.655   2.451  49.160  1.00  0.00     0.169 HD
HETATM   11  O1  UNL     1      23.954   3.738  51.995  1.00  0.00    -0.268 OA
BRANCH   9  12
HETATM   12  C7  UNL     1      22.320   1.868  50.687  1.00  0.00     0.035 A 
HETATM   13  C6  UNL     1      21.049   2.181  50.255  1.00  0.00     0.032 A 
HETATM   14  C5  UNL     1      19.922   1.521  50.679  1.00  0.00     0.031 A 
HETATM   15  C4  UNL     1      20.008   0.489  51.579  1.00  0.00     0.030 A 
HETATM   16  C20 UNL     1      21.265   0.146  52.035  1.00  0.00     0.031 A 
HETATM   17  C19 UNL     1      22.340   0.841  51.574  1.00  0.00     0.032 A 
BRANCH  15  18
HETATM   18  N2  UNL     1      18.868  -0.228  52.056  1.00  0.00    -0.378 N 
HETATM   19  C3  UNL     1      17.634  -0.465  51.300  1.00  0.00     0.153 C 
HETATM   20  C2  UNL     1      16.508  -0.497  52.314  1.00  0.00     0.291 C 
HETATM   21  N1  UNL     1      16.592  -1.706  53.109  1.00  0.00     0.087 N 
HETATM   22  C1  UNL     1      15.936  -2.816  52.474  1.00  0.00     0.310 C 
HETATM   23  C22 UNL     1      17.965  -2.033  53.439  1.00  0.00     0.291 C 
HETATM   24  C21 UNL     1      18.858  -0.803  53.383  1.00  0.00     0.153 C 
ENDBRANCH  15  18
ENDBRANCH   9  12
ENDBRANCH   1   8
BRANCH   2  25
HETATM   25  C11 UNL     1      23.785   6.131  49.469  1.00  0.00     0.004 A 
HETATM   26  C12 UNL     1      22.790   6.247  48.557  1.00  0.00     0.034 A 
HETATM   27  C13 UNL     1      21.701   7.076  48.689  1.00  0.00     0.117 A 
HETATM   28  N4  UNL     1      21.591   7.834  49.793  1.00  0.00    -0.271 NA
HETATM   29  C14 UNL     1      22.511   7.802  50.762  1.00  0.00     0.146 A 
HETATM   30  C15 UNL     1      23.599   6.953  50.593  1.00  0.00     0.054 A 
BRANCH  30  31
HETATM   31  N5  UNL     1      24.541   6.980  51.684  1.00  0.00    -0.397 N 
HETATM   32  H14 UNL     1      25.185   7.691  52.097  1.00  0.00     0.156 HD
HETATM   33  H15 UNL     1      24.843   6.251  52.390  1.00  0.00     0.156 HD
ENDBRANCH  30  31
ENDBRANCH   2  25
BRANCH   4  34
HETATM   34  O2  UNL     1      28.359   6.233  47.887  1.00  0.00    -0.346 OA
HETATM   35  H17 UNL     1      29.318   5.961  48.073  1.00  0.00     0.219 HD
ENDBRANCH   4  34
TORSDOF 6
ENDMDL
