MODEL 1
REMARK VINA RESULT:      -8.5      0.000      0.000
REMARK  3 active torsions:
REMARK  status: ('A' for Active; 'I' for Inactive)
REMARK    1  A    between atoms: O1_2  and  C2_3 
REMARK    2  A    between atoms: C8_11  and  N3_12 
REMARK    3  A    between atoms: N3_12  and  C9_13 
ROOT
HETATM    1  C2  UNL     1      23.137  -0.298  53.160  1.00  0.00     0.097 C 
HETATM    2  C3  UNL     1      22.785   0.648  52.259  1.00  0.00     0.051 C 
HETATM    3  C4  UNL     1      23.504   1.831  51.697  1.00  0.00    -0.020 C 
HETATM    4  C5  UNL     1      22.599   2.883  51.363  1.00  0.00     0.037 A 
HETATM    5  C6  UNL     1      21.272   2.664  51.110  1.00  0.00     0.134 A 
HETATM    6  N1  UNL     1      20.387   3.617  50.831  1.00  0.00    -0.253 NA
HETATM    7  C7  UNL     1      20.732   4.886  50.775  1.00  0.00     0.234 A 
HETATM    8  N2  UNL     1      22.025   5.167  51.016  1.00  0.00    -0.224 NA
HETATM    9  C8  UNL     1      22.918   4.209  51.300  1.00  0.00     0.142 A 
HETATM   10  C15 UNL     1      24.781   1.750  51.690  1.00  0.00     0.006 C 
HETATM   11  C16 UNL     1      25.872   0.854  52.068  1.00  0.00     0.158 C 
HETATM   12  N4  UNL     1      25.638   0.168  53.351  1.00  0.00    -0.335 N 
HETATM   13  C17 UNL     1      26.622  -0.059  54.254  1.00  0.00     0.210 A 
HETATM   14  N5  UNL     1      26.053  -0.700  55.292  1.00  0.00    -0.254 NA
HETATM   15  C18 UNL     1      24.742  -0.885  55.069  1.00  0.00     0.150 A 
HETATM   16  C19 UNL     1      24.463  -0.336  53.834  1.00  0.00     0.087 A 
ENDROOT
BRANCH   9  17
HETATM   17  N3  UNL     1      24.199   4.717  51.665  1.00  0.00    -0.340 N 
HETATM   18  H7  UNL     1      24.871   4.779  52.459  1.00  0.00     0.167 HD
BRANCH  17  19
HETATM   19  C9  UNL     1      24.979   5.468  50.737  1.00  0.00     0.035 A 
HETATM   20  C10 UNL     1      25.675   4.611  49.866  1.00  0.00     0.032 A 
HETATM   21  C11 UNL     1      26.468   5.191  48.864  1.00  0.00     0.046 A 
HETATM   22  C12 UNL     1      26.607   6.545  48.682  1.00  0.00     0.138 A 
HETATM   23  F1  UNL     1      27.355   7.125  47.736  1.00  0.00    -0.204 F 
HETATM   24  C13 UNL     1      25.903   7.335  49.563  1.00  0.00     0.074 A 
HETATM   25 CL1  UNL     1      25.945   9.104  49.502  1.00  0.00    -0.081 Cl
HETATM   26  C14 UNL     1      25.118   6.814  50.557  1.00  0.00     0.056 A 
ENDBRANCH  17  19
ENDBRANCH   9  17
BRANCH   1  27
HETATM   27  O1  UNL     1      22.370  -1.375  53.618  1.00  0.00    -0.354 OA
HETATM   28  C1  UNL     1      21.128  -1.095  54.234  1.00  0.00     0.210 C 
ENDBRANCH   1  27
TORSDOF 3
ENDMDL
MODEL 2
REMARK VINA RESULT:      -8.5      2.431      3.258
REMARK  3 active torsions:
REMARK  status: ('A' for Active; 'I' for Inactive)
REMARK    1  A    between atoms: O1_2  and  C2_3 
REMARK    2  A    between atoms: C8_11  and  N3_12 
REMARK    3  A    between atoms: N3_12  and  C9_13 
ROOT
HETATM    1  C2  UNL     1      26.241  -0.236  53.209  1.00  0.00     0.097 C 
HETATM    2  C3  UNL     1      25.097   0.134  52.589  1.00  0.00     0.051 C 
HETATM    3  C4  UNL     1      24.588   1.451  52.101  1.00  0.00    -0.020 C 
HETATM    4  C5  UNL     1      23.164   1.519  52.165  1.00  0.00     0.037 A 
HETATM    5  C6  UNL     1      22.371   0.402  52.174  1.00  0.00     0.134 A 
HETATM    6  N1  UNL     1      21.044   0.418  52.269  1.00  0.00    -0.253 NA
HETATM    7  C7  UNL     1      20.370   1.544  52.364  1.00  0.00     0.234 A 
HETATM    8  N2  UNL     1      21.094   2.678  52.362  1.00  0.00    -0.224 NA
HETATM    9  C8  UNL     1      22.431   2.666  52.269  1.00  0.00     0.142 A 
HETATM   10  C15 UNL     1      25.485   2.313  51.800  1.00  0.00     0.006 C 
HETATM   11  C16 UNL     1      26.936   2.490  51.764  1.00  0.00     0.158 C 
HETATM   12  N4  UNL     1      27.619   1.892  52.926  1.00  0.00    -0.335 N 
HETATM   13  C17 UNL     1      28.678   2.475  53.537  1.00  0.00     0.210 A 
HETATM   14  N5  UNL     1      29.040   1.659  54.544  1.00  0.00    -0.254 NA
HETATM   15  C18 UNL     1      28.242   0.580  54.585  1.00  0.00     0.150 A 
HETATM   16  C19 UNL     1      27.330   0.715  53.558  1.00  0.00     0.087 A 
ENDROOT
BRANCH   9  17
HETATM   17  N3  UNL     1      23.023   3.953  52.428  1.00  0.00    -0.340 N 
HETATM   18  H7  UNL     1      23.419   4.601  53.142  1.00  0.00     0.167 HD
BRANCH  17  19
HETATM   19  C9  UNL     1      23.185   4.826  51.313  1.00  0.00     0.035 A 
HETATM   20  C10 UNL     1      23.803   6.026  51.707  1.00  0.00     0.032 A 
HETATM   21  C11 UNL     1      24.069   6.988  50.720  1.00  0.00     0.046 A 
HETATM   22  C12 UNL     1      23.760   6.829  49.391  1.00  0.00     0.138 A 
HETATM   23  F1  UNL     1      24.001   7.728  48.429  1.00  0.00    -0.204 F 
HETATM   24  C13 UNL     1      23.156   5.636  49.063  1.00  0.00     0.074 A 
HETATM   25 CL1  UNL     1      22.678   5.233  47.407  1.00  0.00    -0.081 Cl
HETATM   26  C14 UNL     1      22.877   4.669  49.992  1.00  0.00     0.056 A 
ENDBRANCH  17  19
ENDBRANCH   9  17
BRANCH   1  27
HETATM   27  O1  UNL     1      26.615  -1.518  53.626  1.00  0.00    -0.354 OA
HETATM   28  C1  UNL     1      27.204  -2.384  52.675  1.00  0.00     0.210 C 
ENDBRANCH   1  27
TORSDOF 3
ENDMDL
MODEL 3
REMARK VINA RESULT:      -8.3      3.879      6.511
REMARK  3 active torsions:
REMARK  status: ('A' for Active; 'I' for Inactive)
REMARK    1  A    between atoms: O1_2  and  C2_3 
REMARK    2  A    between atoms: C8_11  and  N3_12 
REMARK    3  A    between atoms: N3_12  and  C9_13 
ROOT
HETATM    1  C2  UNL     1      20.248   2.096  50.945  1.00  0.00     0.097 C 
HETATM    2  C3  UNL     1      20.941   1.744  52.052  1.00  0.00     0.051 C 
HETATM    3  C4  UNL     1      22.401   1.609  52.335  1.00  0.00    -0.020 C 
HETATM    4  C5  UNL     1      22.655   0.601  53.313  1.00  0.00     0.037 A 
HETATM    5  C6  UNL     1      21.709   0.194  54.216  1.00  0.00     0.134 A 
HETATM    6  N1  UNL     1      21.891  -0.764  55.120  1.00  0.00    -0.253 NA
HETATM    7  C7  UNL     1      23.030  -1.415  55.221  1.00  0.00     0.234 A 
HETATM    8  N2  UNL     1      24.000  -1.062  54.359  1.00  0.00    -0.224 NA
HETATM    9  C8  UNL     1      23.820  -0.097  53.444  1.00  0.00     0.142 A 
HETATM   10  C15 UNL     1      23.173   2.329  51.612  1.00  0.00     0.006 C 
HETATM   11  C16 UNL     1      23.140   3.305  50.523  1.00  0.00     0.158 C 
HETATM   12  N4  UNL     1      22.145   2.978  49.485  1.00  0.00    -0.335 N 
HETATM   13  C17 UNL     1      22.371   3.169  48.163  1.00  0.00     0.210 A 
HETATM   14  N5  UNL     1      21.260   2.767  47.519  1.00  0.00    -0.254 NA
HETATM   15  C18 UNL     1      20.342   2.328  48.396  1.00  0.00     0.150 A 
HETATM   16  C19 UNL     1      20.893   2.457  49.654  1.00  0.00     0.087 A 
ENDROOT
BRANCH   9  17
HETATM   17  N3  UNL     1      24.910   0.032  52.534  1.00  0.00    -0.340 N 
HETATM   18  H7  UNL     1      25.161  -0.049  51.526  1.00  0.00     0.167 HD
BRANCH  17  19
HETATM   19  C9  UNL     1      26.217   0.357  53.000  1.00  0.00     0.035 A 
HETATM   20  C10 UNL     1      26.284   1.708  53.386  1.00  0.00     0.032 A 
HETATM   21  C11 UNL     1      27.497   2.187  53.904  1.00  0.00     0.046 A 
HETATM   22  C12 UNL     1      28.625   1.417  54.055  1.00  0.00     0.138 A 
HETATM   23  F1  UNL     1      29.794   1.847  54.545  1.00  0.00    -0.204 F 
HETATM   24  C13 UNL     1      28.501   0.104  53.661  1.00  0.00     0.074 A 
HETATM   25 CL1  UNL     1      29.834  -1.055  53.773  1.00  0.00    -0.081 Cl
HETATM   26  C14 UNL     1      27.338  -0.407  53.150  1.00  0.00     0.056 A 
ENDBRANCH  17  19
ENDBRANCH   9  17
BRANCH   1  27
HETATM   27  O1  UNL     1      18.860   2.188  50.794  1.00  0.00    -0.354 OA
HETATM   28  C1  UNL     1      18.079   1.048  51.095  1.00  0.00     0.210 C 
ENDBRANCH   1  27
TORSDOF 3
ENDMDL
MODEL 4
REMARK VINA RESULT:      -8.2      1.689      4.305
REMARK  3 active torsions:
REMARK  status: ('A' for Active; 'I' for Inactive)
REMARK    1  A    between atoms: O1_2  and  C2_3 
REMARK    2  A    between atoms: C8_11  and  N3_12 
REMARK    3  A    between atoms: N3_12  and  C9_13 
ROOT
HETATM    1  C2  UNL     1      21.574   0.999  52.969  1.00  0.00     0.097 C 
HETATM    2  C3  UNL     1      22.782   1.586  53.131  1.00  0.00     0.051 C 
HETATM    3  C4  UNL     1      23.580   2.517  52.278  1.00  0.00    -0.020 C 
HETATM    4  C5  UNL     1      24.982   2.329  52.465  1.00  0.00     0.037 A 
HETATM    5  C6  UNL     1      25.507   1.768  53.599  1.00  0.00     0.134 A 
HETATM    6  N1  UNL     1      26.802   1.541  53.800  1.00  0.00    -0.253 NA
HETATM    7  C7  UNL     1      27.708   1.849  52.897  1.00  0.00     0.234 A 
HETATM    8  N2  UNL     1      27.254   2.403  51.758  1.00  0.00    -0.224 NA
HETATM    9  C8  UNL     1      25.949   2.631  51.551  1.00  0.00     0.142 A 
HETATM   10  C15 UNL     1      22.903   3.247  51.474  1.00  0.00     0.006 C 
HETATM   11  C16 UNL     1      21.528   3.515  51.053  1.00  0.00     0.158 C 
HETATM   12  N4  UNL     1      20.709   2.293  50.948  1.00  0.00    -0.335 N 
HETATM   13  C17 UNL     1      19.795   2.103  49.967  1.00  0.00     0.210 A 
HETATM   14  N5  UNL     1      19.242   0.894  50.183  1.00  0.00    -0.254 NA
HETATM   15  C18 UNL     1      19.780   0.320  51.271  1.00  0.00     0.150 A 
HETATM   16  C19 UNL     1      20.718   1.201  51.771  1.00  0.00     0.087 A 
ENDROOT
BRANCH   9  17
HETATM   17  N3  UNL     1      25.655   3.089  50.233  1.00  0.00    -0.340 N 
HETATM   18  H7  UNL     1      25.231   2.794  49.328  1.00  0.00     0.167 HD
BRANCH  17  19
HETATM   19  C9  UNL     1      26.035   4.397  49.812  1.00  0.00     0.035 A 
HETATM   20  C10 UNL     1      27.167   4.341  48.980  1.00  0.00     0.032 A 
HETATM   21  C11 UNL     1      27.656   5.545  48.448  1.00  0.00     0.046 A 
HETATM   22  C12 UNL     1      27.096   6.775  48.692  1.00  0.00     0.138 A 
HETATM   23  F1  UNL     1      27.540   7.937  48.199  1.00  0.00    -0.204 F 
HETATM   24  C13 UNL     1      25.990   6.769  49.513  1.00  0.00     0.074 A 
HETATM   25 CL1  UNL     1      25.120   8.247  49.951  1.00  0.00    -0.081 Cl
HETATM   26  C14 UNL     1      25.479   5.620  50.055  1.00  0.00     0.056 A 
ENDBRANCH  17  19
ENDBRANCH   9  17
BRANCH   1  27
HETATM   27  O1  UNL     1      20.917   0.130  53.848  1.00  0.00    -0.354 OA
HETATM   28  C1  UNL     1      21.676  -0.889  54.470  1.00  0.00     0.210 C 
ENDBRANCH   1  27
TORSDOF 3
ENDMDL
MODEL 5
REMARK VINA RESULT:      -8.2      4.168      7.886
REMARK  3 active torsions:
REMARK  status: ('A' for Active; 'I' for Inactive)
REMARK    1  A    between atoms: O1_2  and  C2_3 
REMARK    2  A    between atoms: C8_11  and  N3_12 
REMARK    3  A    between atoms: N3_12  and  C9_13 
ROOT
HETATM    1  C2  UNL     1      25.510   4.867  49.945  1.00  0.00     0.097 C 
HETATM    2  C3  UNL     1      25.477   3.552  50.261  1.00  0.00     0.051 C 
HETATM    3  C4  UNL     1      24.478   2.706  50.981  1.00  0.00    -0.020 C 
HETATM    4  C5  UNL     1      25.107   1.631  51.678  1.00  0.00     0.037 A 
HETATM    5  C6  UNL     1      26.339   1.146  51.330  1.00  0.00     0.134 A 
HETATM    6  N1  UNL     1      26.977   0.171  51.973  1.00  0.00    -0.253 NA
HETATM    7  C7  UNL     1      26.455  -0.422  53.025  1.00  0.00     0.234 A 
HETATM    8  N2  UNL     1      25.244   0.012  53.418  1.00  0.00    -0.224 NA
HETATM    9  C8  UNL     1      24.599   0.996  52.774  1.00  0.00     0.142 A 
HETATM   10  C15 UNL     1      23.268   3.120  50.935  1.00  0.00     0.006 C 
HETATM   11  C16 UNL     1      22.451   4.206  50.397  1.00  0.00     0.158 C 
HETATM   12  N4  UNL     1      23.106   5.524  50.492  1.00  0.00    -0.335 N 
HETATM   13  C17 UNL     1      22.435   6.659  50.798  1.00  0.00     0.210 A 
HETATM   14  N5  UNL     1      23.339   7.656  50.794  1.00  0.00    -0.254 NA
HETATM   15  C18 UNL     1      24.559   7.182  50.492  1.00  0.00     0.150 A 
HETATM   16  C19 UNL     1      24.426   5.822  50.296  1.00  0.00     0.087 A 
ENDROOT
BRANCH   9  17
HETATM   17  N3  UNL     1      23.400   1.410  53.425  1.00  0.00    -0.340 N 
HETATM   18  H7  UNL     1      22.999   2.163  54.022  1.00  0.00     0.167 HD
BRANCH  17  19
HETATM   19  C9  UNL     1      22.224   0.605  53.370  1.00  0.00     0.035 A 
HETATM   20  C10 UNL     1      22.256  -0.387  54.367  1.00  0.00     0.032 A 
HETATM   21  C11 UNL     1      21.154  -1.250  54.475  1.00  0.00     0.046 A 
HETATM   22  C12 UNL     1      20.046  -1.184  53.666  1.00  0.00     0.138 A 
HETATM   23  F1  UNL     1      18.982  -1.992  53.746  1.00  0.00    -0.204 F 
HETATM   24  C13 UNL     1      20.070  -0.194  52.709  1.00  0.00     0.074 A 
HETATM   25 CL1  UNL     1      18.742   0.060  51.566  1.00  0.00    -0.081 Cl
HETATM   26  C14 UNL     1      21.123   0.669  52.566  1.00  0.00     0.056 A 
ENDBRANCH  17  19
ENDBRANCH   9  17
BRANCH   1  27
HETATM   27  O1  UNL     1      26.514   5.560  49.259  1.00  0.00    -0.354 OA
HETATM   28  C1  UNL     1      27.573   4.813  48.693  1.00  0.00     0.210 C 
ENDBRANCH   1  27
TORSDOF 3
ENDMDL
MODEL 6
REMARK VINA RESULT:      -8.2      4.399      6.174
REMARK  3 active torsions:
REMARK  status: ('A' for Active; 'I' for Inactive)
REMARK    1  A    between atoms: O1_2  and  C2_3 
REMARK    2  A    between atoms: C8_11  and  N3_12 
REMARK    3  A    between atoms: N3_12  and  C9_13 
ROOT
HETATM    1  C2  UNL     1      26.515   1.600  53.800  1.00  0.00     0.097 C 
HETATM    2  C3  UNL     1      25.368   2.284  53.586  1.00  0.00     0.051 C 
HETATM    3  C4  UNL     1      24.052   1.897  52.995  1.00  0.00    -0.020 C 
HETATM    4  C5  UNL     1      23.425   3.001  52.343  1.00  0.00     0.037 A 
HETATM    5  C6  UNL     1      23.718   4.303  52.650  1.00  0.00     0.134 A 
HETATM    6  N1  UNL     1      23.186   5.361  52.044  1.00  0.00    -0.253 NA
HETATM    7  C7  UNL     1      22.307   5.234  51.073  1.00  0.00     0.234 A 
HETATM    8  N2  UNL     1      21.977   3.977  50.724  1.00  0.00    -0.224 NA
HETATM    9  C8  UNL     1      22.514   2.908  51.331  1.00  0.00     0.142 A 
HETATM   10  C15 UNL     1      23.749   0.657  53.084  1.00  0.00     0.006 C 
HETATM   11  C16 UNL     1      24.267  -0.614  53.587  1.00  0.00     0.158 C 
HETATM   12  N4  UNL     1      25.714  -0.781  53.354  1.00  0.00    -0.335 N 
HETATM   13  C17 UNL     1      26.271  -1.964  53.005  1.00  0.00     0.210 A 
HETATM   14  N5  UNL     1      27.593  -1.747  52.879  1.00  0.00    -0.254 NA
HETATM   15  C18 UNL     1      27.885  -0.462  53.140  1.00  0.00     0.150 A 
HETATM   16  C19 UNL     1      26.695   0.167  53.445  1.00  0.00     0.087 A 
ENDROOT
BRANCH   9  17
HETATM   17  N3  UNL     1      22.150   1.670  50.726  1.00  0.00    -0.340 N 
HETATM   18  H7  UNL     1      22.500   0.924  50.089  1.00  0.00     0.167 HD
BRANCH  17  19
HETATM   19  C9  UNL     1      20.856   1.108  50.934  1.00  0.00     0.035 A 
HETATM   20  C10 UNL     1      20.006   1.406  49.854  1.00  0.00     0.032 A 
HETATM   21  C11 UNL     1      18.698   0.898  49.883  1.00  0.00     0.046 A 
HETATM   22  C12 UNL     1      18.197   0.126  50.903  1.00  0.00     0.138 A 
HETATM   23  F1  UNL     1      16.956  -0.372  50.957  1.00  0.00    -0.204 F 
HETATM   24  C13 UNL     1      19.074  -0.134  51.933  1.00  0.00     0.074 A 
HETATM   25 CL1  UNL     1      18.627  -1.108  53.342  1.00  0.00    -0.081 Cl
HETATM   26  C14 UNL     1      20.358   0.342  51.948  1.00  0.00     0.056 A 
ENDBRANCH  17  19
ENDBRANCH   9  17
BRANCH   1  27
HETATM   27  O1  UNL     1      27.703   2.073  54.369  1.00  0.00    -0.354 OA
HETATM   28  C1  UNL     1      28.683   2.621  53.508  1.00  0.00     0.210 C 
ENDBRANCH   1  27
TORSDOF 3
ENDMDL
MODEL 7
REMARK VINA RESULT:      -8.2      3.541      6.593
REMARK  3 active torsions:
REMARK  status: ('A' for Active; 'I' for Inactive)
REMARK    1  A    between atoms: O1_2  and  C2_3 
REMARK    2  A    between atoms: C8_11  and  N3_12 
REMARK    3  A    between atoms: N3_12  and  C9_13 
ROOT
HETATM    1  C2  UNL     1      21.344   4.173  50.979  1.00  0.00     0.097 C 
HETATM    2  C3  UNL     1      21.793   3.356  51.959  1.00  0.00     0.051 C 
HETATM    3  C4  UNL     1      23.127   2.743  52.237  1.00  0.00    -0.020 C 
HETATM    4  C5  UNL     1      22.998   1.481  52.891  1.00  0.00     0.037 A 
HETATM    5  C6  UNL     1      21.884   1.131  53.607  1.00  0.00     0.134 A 
HETATM    6  N1  UNL     1      21.707  -0.045  54.202  1.00  0.00    -0.253 NA
HETATM    7  C7  UNL     1      22.617  -0.994  54.146  1.00  0.00     0.234 A 
HETATM    8  N2  UNL     1      23.735  -0.712  53.454  1.00  0.00    -0.224 NA
HETATM    9  C8  UNL     1      23.917   0.472  52.851  1.00  0.00     0.142 A 
HETATM   10  C15 UNL     1      24.136   3.382  51.777  1.00  0.00     0.006 C 
HETATM   11  C16 UNL     1      24.480   4.582  51.016  1.00  0.00     0.158 C 
HETATM   12  N4  UNL     1      23.556   4.840  49.896  1.00  0.00    -0.335 N 
HETATM   13  C17 UNL     1      23.969   5.307  48.694  1.00  0.00     0.210 A 
HETATM   14  N5  UNL     1      22.870   5.423  47.926  1.00  0.00    -0.254 NA
HETATM   15  C18 UNL     1      21.777   5.044  48.610  1.00  0.00     0.150 A 
HETATM   16  C19 UNL     1      22.200   4.670  49.869  1.00  0.00     0.087 A 
ENDROOT
BRANCH   9  17
HETATM   17  N3  UNL     1      25.096   0.528  52.052  1.00  0.00    -0.340 N 
HETATM   18  H7  UNL     1      25.428   0.654  51.072  1.00  0.00     0.167 HD
BRANCH  17  19
HETATM   19  C9  UNL     1      26.383   0.329  52.632  1.00  0.00     0.035 A 
HETATM   20  C10 UNL     1      26.788  -1.010  52.492  1.00  0.00     0.032 A 
HETATM   21  C11 UNL     1      28.053  -1.372  52.982  1.00  0.00     0.046 A 
HETATM   22  C12 UNL     1      28.918  -0.497  53.592  1.00  0.00     0.138 A 
HETATM   23  F1  UNL     1      30.129  -0.813  54.068  1.00  0.00    -0.204 F 
HETATM   24  C13 UNL     1      28.469   0.800  53.701  1.00  0.00     0.074 A 
HETATM   25 CL1  UNL     1      29.430   2.083  54.454  1.00  0.00    -0.081 Cl
HETATM   26  C14 UNL     1      27.243   1.198  53.239  1.00  0.00     0.056 A 
ENDBRANCH  17  19
ENDBRANCH   9  17
BRANCH   1  27
HETATM   27  O1  UNL     1      20.054   4.691  50.818  1.00  0.00    -0.354 OA
HETATM   28  C1  UNL     1      18.957   3.823  51.022  1.00  0.00     0.210 C 
ENDBRANCH   1  27
TORSDOF 3
ENDMDL
MODEL 8
REMARK VINA RESULT:      -8.0      5.251      8.009
REMARK  3 active torsions:
REMARK  status: ('A' for Active; 'I' for Inactive)
REMARK    1  A    between atoms: O1_2  and  C2_3 
REMARK    2  A    between atoms: C8_11  and  N3_12 
REMARK    3  A    between atoms: N3_12  and  C9_13 
ROOT
HETATM    1  C2  UNL     1      25.006   6.527  48.929  1.00  0.00     0.097 C 
HETATM    2  C3  UNL     1      26.105   6.972  48.277  1.00  0.00     0.051 C 
HETATM    3  C4  UNL     1      27.530   6.523  48.267  1.00  0.00    -0.020 C 
HETATM    4  C5  UNL     1      28.422   7.613  48.039  1.00  0.00     0.037 A 
HETATM    5  C6  UNL     1      28.031   8.770  47.420  1.00  0.00     0.134 A 
HETATM    6  N1  UNL     1      28.818   9.823  47.219  1.00  0.00    -0.253 NA
HETATM    7  C7  UNL     1      30.074   9.834  47.612  1.00  0.00     0.234 A 
HETATM    8  N2  UNL     1      30.519   8.725  48.229  1.00  0.00    -0.224 NA
HETATM    9  C8  UNL     1      29.727   7.662  48.436  1.00  0.00     0.142 A 
HETATM   10  C15 UNL     1      27.722   5.289  48.547  1.00  0.00     0.006 C 
HETATM   11  C16 UNL     1      26.997   4.071  48.906  1.00  0.00     0.158 C 
HETATM   12  N4  UNL     1      25.887   4.315  49.845  1.00  0.00    -0.335 N 
HETATM   13  C17 UNL     1      25.578   3.469  50.856  1.00  0.00     0.210 A 
HETATM   14  N5  UNL     1      24.522   4.002  51.498  1.00  0.00    -0.254 NA
HETATM   15  C18 UNL     1      24.157   5.159  50.920  1.00  0.00     0.150 A 
HETATM   16  C19 UNL     1      25.018   5.371  49.863  1.00  0.00     0.087 A 
ENDROOT
BRANCH   9  17
HETATM   17  N3  UNL     1      30.336   6.646  49.229  1.00  0.00    -0.340 N 
HETATM   18  H7  UNL     1      30.269   6.162  50.149  1.00  0.00     0.167 HD
BRANCH  17  19
HETATM   19  C9  UNL     1      31.492   5.952  48.766  1.00  0.00     0.035 A 
HETATM   20  C10 UNL     1      31.159   5.085  47.709  1.00  0.00     0.032 A 
HETATM   21  C11 UNL     1      32.192   4.345  47.112  1.00  0.00     0.046 A 
HETATM   22  C12 UNL     1      33.508   4.416  47.497  1.00  0.00     0.138 A 
HETATM   23  F1  UNL     1      34.513   3.724  46.946  1.00  0.00    -0.204 F 
HETATM   24  C13 UNL     1      33.775   5.281  48.535  1.00  0.00     0.074 A 
HETATM   25 CL1  UNL     1      35.406   5.519  49.183  1.00  0.00    -0.081 Cl
HETATM   26  C14 UNL     1      32.800   6.021  49.149  1.00  0.00     0.056 A 
ENDBRANCH  17  19
ENDBRANCH   9  17
BRANCH   1  27
HETATM   27  O1  UNL     1      23.704   7.035  48.861  1.00  0.00    -0.354 OA
HETATM   28  C1  UNL     1      23.508   8.408  49.140  1.00  0.00     0.210 C 
ENDBRANCH   1  27
TORSDOF 3
ENDMDL
MODEL 9
REMARK VINA RESULT:      -7.9      4.383      7.962
REMARK  3 active torsions:
REMARK  status: ('A' for Active; 'I' for Inactive)
REMARK    1  A    between atoms: O1_2  and  C2_3 
REMARK    2  A    between atoms: C8_11  and  N3_12 
REMARK    3  A    between atoms: N3_12  and  C9_13 
ROOT
HETATM    1  C2  UNL     1      26.245   5.372  48.884  1.00  0.00     0.097 C 
HETATM    2  C3  UNL     1      26.199   4.213  49.579  1.00  0.00     0.051 C 
HETATM    3  C4  UNL     1      25.083   3.466  50.234  1.00  0.00    -0.020 C 
HETATM    4  C5  UNL     1      25.536   2.742  51.377  1.00  0.00     0.037 A 
HETATM    5  C6  UNL     1      26.843   2.369  51.545  1.00  0.00     0.134 A 
HETATM    6  N1  UNL     1      27.316   1.726  52.609  1.00  0.00    -0.253 NA
HETATM    7  C7  UNL     1      26.538   1.386  53.614  1.00  0.00     0.234 A 
HETATM    8  N2  UNL     1      25.241   1.726  53.510  1.00  0.00    -0.224 NA
HETATM    9  C8  UNL     1      24.761   2.377  52.440  1.00  0.00     0.142 A 
HETATM   10  C15 UNL     1      23.920   3.663  49.737  1.00  0.00     0.006 C 
HETATM   11  C16 UNL     1      23.238   4.415  48.685  1.00  0.00     0.158 C 
HETATM   12  N4  UNL     1      23.753   5.787  48.530  1.00  0.00    -0.335 N 
HETATM   13  C17 UNL     1      22.953   6.849  48.270  1.00  0.00     0.210 A 
HETATM   14  N5  UNL     1      23.754   7.927  48.192  1.00  0.00    -0.254 NA
HETATM   15  C18 UNL     1      25.035   7.576  48.394  1.00  0.00     0.150 A 
HETATM   16  C19 UNL     1      25.050   6.213  48.611  1.00  0.00     0.087 A 
ENDROOT
BRANCH   9  17
HETATM   17  N3  UNL     1      23.399   2.773  52.580  1.00  0.00    -0.340 N 
HETATM   18  H7  UNL     1      22.786   3.609  52.685  1.00  0.00     0.167 HD
BRANCH  17  19
HETATM   19  C9  UNL     1      22.359   1.801  52.650  1.00  0.00     0.035 A 
HETATM   20  C10 UNL     1      21.322   2.119  51.755  1.00  0.00     0.032 A 
HETATM   21  C11 UNL     1      20.228   1.242  51.673  1.00  0.00     0.046 A 
HETATM   22  C12 UNL     1      20.110   0.092  52.415  1.00  0.00     0.138 A 
HETATM   23  F1  UNL     1      19.080  -0.762  52.357  1.00  0.00    -0.204 F 
HETATM   24  C13 UNL     1      21.154  -0.169  53.274  1.00  0.00     0.074 A 
HETATM   25 CL1  UNL     1      21.197  -1.597  54.318  1.00  0.00    -0.081 Cl
HETATM   26  C14 UNL     1      22.240   0.658  53.388  1.00  0.00     0.056 A 
ENDBRANCH  17  19
ENDBRANCH   9  17
BRANCH   1  27
HETATM   27  O1  UNL     1      27.365   5.984  48.309  1.00  0.00    -0.354 OA
HETATM   28  C1  UNL     1      28.599   5.295  48.356  1.00  0.00     0.210 C 
ENDBRANCH   1  27
TORSDOF 3
ENDMDL
