MODEL 1
REMARK VINA RESULT:      -8.7      0.000      0.000
REMARK  5 active torsions:
REMARK  status: ('A' for Active; 'I' for Inactive)
REMARK    1  A    between atoms: N1_6  and  C6_7 
REMARK    2  A    between atoms: C8_9  and  C9_10 
REMARK    3  A    between atoms: C9_10  and  N2_11 
REMARK       I    between atoms: N2_11  and  C10_12 
REMARK    4  A    between atoms: C10_12  and  C11_14 
REMARK    5  A    between atoms: N3_19  and  O2_20 
ROOT
HETATM    1  N2  UNL     1      24.579   0.742  52.181  1.00  0.00    -0.339 N 
HETATM    2  C10 UNL     1      23.507   1.437  51.675  1.00  0.00     0.225 C 
HETATM    3  O1  UNL     1      24.085   2.167  50.832  1.00  0.00    -0.273 OA
HETATM    4  H9  UNL     1      24.374   0.017  52.949  1.00  0.00     0.167 HD
ENDROOT
BRANCH   2   5
HETATM    5  C11 UNL     1      22.133   1.172  52.192  1.00  0.00     0.083 C 
HETATM    6  C12 UNL     1      21.174   0.875  51.032  1.00  0.00     0.046 C 
HETATM    7  C13 UNL     1      19.802   0.915  51.695  1.00  0.00     0.048 C 
HETATM    8  C14 UNL     1      19.500   2.371  51.943  1.00  0.00     0.040 C 
HETATM    9  C15 UNL     1      18.805   0.448  50.639  1.00  0.00     0.040 C 
HETATM   10  N3  UNL     1      19.655   0.096  52.825  1.00  0.00    -0.278 N 
HETATM   11  C16 UNL     1      20.761  -0.240  53.618  1.00  0.00     0.048 C 
HETATM   12  C17 UNL     1      20.817   0.512  54.945  1.00  0.00     0.040 C 
HETATM   13  C18 UNL     1      20.605  -1.712  54.012  1.00  0.00     0.040 C 
HETATM   14  C19 UNL     1      22.123  -0.114  52.990  1.00  0.00     0.046 C 
BRANCH  10  15
HETATM   15  O2  UNL     1      18.560  -0.646  52.925  1.00  0.00    -0.291 OA
HETATM   16  H19 UNL     1      17.930  -0.136  53.529  1.00  0.00     0.244 HD
ENDBRANCH  10  15
ENDBRANCH   2   5
BRANCH   1  17
HETATM   17  C9  UNL     1      25.933   0.903  51.771  1.00  0.00     0.081 C 
BRANCH  17  18
HETATM   18  C8  UNL     1      27.007   0.669  52.641  1.00  0.00     0.049 A 
HETATM   19  C4  UNL     1      28.147   1.001  53.504  1.00  0.00     0.042 A 
HETATM   20  C3  UNL     1      29.273   1.232  54.366  1.00  0.00     0.103 A 
HETATM   21  C5  UNL     1      28.344   2.401  53.516  1.00  0.00     0.116 A 
HETATM   22  C2  UNL     1      29.054  -0.239  54.320  1.00  0.00     0.044 A 
HETATM   23  C6  UNL     1      27.870   0.019  53.385  1.00  0.00     0.053 A 
HETATM   24  N1  UNL     1      28.607   1.115  53.854  1.00  0.00    -0.387 N 
HETATM   25  C1  UNL     1      30.087  -1.027  53.516  1.00  0.00     0.015 C 
HETATM   26  C7  UNL     1      26.971  -0.751  52.756  1.00  0.00    -0.004 A 
ENDBRANCH  17  18
ENDBRANCH   1  17
TORSDOF 5
ENDMDL
MODEL 2
REMARK VINA RESULT:      -8.7      2.191      8.253
REMARK  5 active torsions:
REMARK  status: ('A' for Active; 'I' for Inactive)
REMARK    1  A    between atoms: N1_6  and  C6_7 
REMARK    2  A    between atoms: C8_9  and  C9_10 
REMARK    3  A    between atoms: C9_10  and  N2_11 
REMARK       I    between atoms: N2_11  and  C10_12 
REMARK    4  A    between atoms: C10_12  and  C11_14 
REMARK    5  A    between atoms: N3_19  and  O2_20 
ROOT
HETATM    1  N2  UNL     1      21.312  -0.534  53.531  1.00  0.00    -0.339 N 
HETATM    2  C10 UNL     1      22.484  -0.651  54.240  1.00  0.00     0.225 C 
HETATM    3  O1  UNL     1      22.137  -1.477  55.120  1.00  0.00    -0.273 OA
HETATM    4  H9  UNL     1      21.316   0.133  52.686  1.00  0.00     0.167 HD
ENDROOT
BRANCH   2   5
HETATM    5  C11 UNL     1      23.687   0.129  53.829  1.00  0.00     0.083 C 
HETATM    6  C12 UNL     1      24.788  -0.815  53.327  1.00  0.00     0.046 C 
HETATM    7  C13 UNL     1      26.007   0.095  53.226  1.00  0.00     0.048 C 
HETATM    8  C14 UNL     1      26.467   0.334  54.643  1.00  0.00     0.040 C 
HETATM    9  C15 UNL     1      27.101  -0.732  52.558  1.00  0.00     0.040 C 
HETATM   10  N3  UNL     1      25.825   1.266  52.475  1.00  0.00    -0.278 N 
HETATM   11  C16 UNL     1      24.557   1.848  52.346  1.00  0.00     0.048 C 
HETATM   12  C17 UNL     1      24.370   3.107  53.188  1.00  0.00     0.040 C 
HETATM   13  C18 UNL     1      24.423   2.326  50.897  1.00  0.00     0.040 C 
HETATM   14  C19 UNL     1      23.365   0.968  52.611  1.00  0.00     0.046 C 
BRANCH  10  15
HETATM   15  O2  UNL     1      26.765   1.603  51.600  1.00  0.00    -0.291 OA
HETATM   16  H19 UNL     1      27.175   0.735  51.285  1.00  0.00     0.244 HD
ENDBRANCH  10  15
ENDBRANCH   2   5
BRANCH   1  17
HETATM   17  C9  UNL     1      20.100  -1.223  53.822  1.00  0.00     0.081 C 
BRANCH  17  18
HETATM   18  C8  UNL     1      18.945  -1.057  53.046  1.00  0.00     0.049 A 
HETATM   19  C4  UNL     1      18.106  -0.530  51.963  1.00  0.00     0.042 A 
HETATM   20  C3  UNL     1      17.213  -0.068  50.937  1.00  0.00     0.103 A 
HETATM   21  C5  UNL     1      18.856   0.374  51.175  1.00  0.00     0.116 A 
HETATM   22  C2  UNL     1      16.442  -1.010  51.794  1.00  0.00     0.044 A 
HETATM   23  C6  UNL     1      17.710  -1.203  52.629  1.00  0.00     0.053 A 
HETATM   24  N1  UNL     1      17.755  -0.330  51.535  1.00  0.00    -0.387 N 
HETATM   25  C1  UNL     1      15.406  -0.359  52.708  1.00  0.00     0.015 C 
HETATM   26  C7  UNL     1      18.033  -1.927  53.711  1.00  0.00    -0.004 A 
ENDBRANCH  17  18
ENDBRANCH   1  17
TORSDOF 5
ENDMDL
MODEL 3
REMARK VINA RESULT:      -8.5      3.979      5.920
REMARK  5 active torsions:
REMARK  status: ('A' for Active; 'I' for Inactive)
REMARK    1  A    between atoms: N1_6  and  C6_7 
REMARK    2  A    between atoms: C8_9  and  C9_10 
REMARK    3  A    between atoms: C9_10  and  N2_11 
REMARK       I    between atoms: N2_11  and  C10_12 
REMARK    4  A    between atoms: C10_12  and  C11_14 
REMARK    5  A    between atoms: N3_19  and  O2_20 
ROOT
HETATM    1  N2  UNL     1      24.156   2.783  50.529  1.00  0.00    -0.339 N 
HETATM    2  C10 UNL     1      23.504   2.450  51.692  1.00  0.00     0.225 C 
HETATM    3  O1  UNL     1      22.710   3.418  51.794  1.00  0.00    -0.273 OA
HETATM    4  H9  UNL     1      24.921   2.108  50.185  1.00  0.00     0.167 HD
ENDROOT
BRANCH   2   5
HETATM    5  C11 UNL     1      23.867   1.201  52.420  1.00  0.00     0.083 C 
HETATM    6  C12 UNL     1      25.052   1.456  53.362  1.00  0.00     0.046 C 
HETATM    7  C13 UNL     1      25.463   0.054  53.794  1.00  0.00     0.048 C 
HETATM    8  C14 UNL     1      26.171  -0.557  52.611  1.00  0.00     0.040 C 
HETATM    9  C15 UNL     1      26.523   0.236  54.876  1.00  0.00     0.040 C 
HETATM   10  N3  UNL     1      24.433  -0.741  54.321  1.00  0.00    -0.278 N 
HETATM   11  C16 UNL     1      23.099  -0.531  53.945  1.00  0.00     0.048 C 
HETATM   12  C17 UNL     1      22.563  -1.581  52.976  1.00  0.00     0.040 C 
HETATM   13  C18 UNL     1      22.243  -0.691  55.204  1.00  0.00     0.040 C 
HETATM   14  C19 UNL     1      22.750   0.813  53.365  1.00  0.00     0.046 C 
BRANCH  10  15
HETATM   15  O2  UNL     1      24.674  -1.424  55.432  1.00  0.00    -0.291 OA
HETATM   16  H19 UNL     1      23.775  -1.570  55.870  1.00  0.00     0.244 HD
ENDBRANCH  10  15
ENDBRANCH   2   5
BRANCH   1  17
HETATM   17  C9  UNL     1      23.902   3.944  49.745  1.00  0.00     0.081 C 
BRANCH  17  18
HETATM   18  C8  UNL     1      24.935   4.767  49.276  1.00  0.00     0.049 A 
HETATM   19  C4  UNL     1      26.307   5.146  48.918  1.00  0.00     0.042 A 
HETATM   20  C3  UNL     1      27.616   5.603  48.542  1.00  0.00     0.103 A 
HETATM   21  C5  UNL     1      27.183   4.066  49.176  1.00  0.00     0.116 A 
HETATM   22  C2  UNL     1      26.675   6.729  48.297  1.00  0.00     0.044 A 
HETATM   23  C6  UNL     1      25.545   5.822  48.791  1.00  0.00     0.053 A 
HETATM   24  N1  UNL     1      26.851   5.316  48.769  1.00  0.00    -0.387 N 
HETATM   25  C1  UNL     1      26.775   7.888  49.286  1.00  0.00     0.015 C 
HETATM   26  C7  UNL     1      24.221   5.957  48.952  1.00  0.00    -0.004 A 
ENDBRANCH  17  18
ENDBRANCH   1  17
TORSDOF 5
ENDMDL
MODEL 4
REMARK VINA RESULT:      -8.4      2.275      8.255
REMARK  5 active torsions:
REMARK  status: ('A' for Active; 'I' for Inactive)
REMARK    1  A    between atoms: N1_6  and  C6_7 
REMARK    2  A    between atoms: C8_9  and  C9_10 
REMARK    3  A    between atoms: C9_10  and  N2_11 
REMARK       I    between atoms: N2_11  and  C10_12 
REMARK    4  A    between atoms: C10_12  and  C11_14 
REMARK    5  A    between atoms: N3_19  and  O2_20 
ROOT
HETATM    1  N2  UNL     1      20.925  -0.374  53.289  1.00  0.00    -0.339 N 
HETATM    2  C10 UNL     1      22.181  -0.906  53.461  1.00  0.00     0.225 C 
HETATM    3  O1  UNL     1      21.890  -2.030  53.941  1.00  0.00    -0.273 OA
HETATM    4  H9  UNL     1      20.866   0.618  52.877  1.00  0.00     0.167 HD
ENDROOT
BRANCH   2   5
HETATM    5  C11 UNL     1      23.386  -0.113  53.084  1.00  0.00     0.083 C 
HETATM    6  C12 UNL     1      23.127   1.385  53.295  1.00  0.00     0.046 C 
HETATM    7  C13 UNL     1      24.317   2.045  52.609  1.00  0.00     0.048 C 
HETATM    8  C14 UNL     1      24.065   1.923  51.127  1.00  0.00     0.040 C 
HETATM    9  C15 UNL     1      24.225   3.533  52.934  1.00  0.00     0.040 C 
HETATM   10  N3  UNL     1      25.579   1.587  53.017  1.00  0.00    -0.278 N 
HETATM   11  C16 UNL     1      25.744   0.289  53.520  1.00  0.00     0.048 C 
HETATM   12  C17 UNL     1      26.408  -0.671  52.536  1.00  0.00     0.040 C 
HETATM   13  C18 UNL     1      26.722   0.379  54.695  1.00  0.00     0.040 C 
HETATM   14  C19 UNL     1      24.518  -0.408  54.044  1.00  0.00     0.046 C 
BRANCH  10  15
HETATM   15  O2  UNL     1      26.521   2.486  53.273  1.00  0.00    -0.291 OA
HETATM   16  H19 UNL     1      27.247   1.994  53.776  1.00  0.00     0.244 HD
ENDBRANCH  10  15
ENDBRANCH   2   5
BRANCH   1  17
HETATM   17  C9  UNL     1      19.702  -1.030  53.609  1.00  0.00     0.081 C 
BRANCH  17  18
HETATM   18  C8  UNL     1      18.567  -0.926  52.794  1.00  0.00     0.049 A 
HETATM   19  C4  UNL     1      17.745  -0.460  51.671  1.00  0.00     0.042 A 
HETATM   20  C3  UNL     1      16.869  -0.058  50.604  1.00  0.00     0.103 A 
HETATM   21  C5  UNL     1      18.489   0.444  50.878  1.00  0.00     0.116 A 
HETATM   22  C2  UNL     1      16.103  -0.999  51.467  1.00  0.00     0.044 A 
HETATM   23  C6  UNL     1      17.350  -1.125  52.346  1.00  0.00     0.053 A 
HETATM   24  N1  UNL     1      17.400  -0.284  51.227  1.00  0.00    -0.387 N 
HETATM   25  C1  UNL     1      15.019  -0.356  52.329  1.00  0.00     0.015 C 
HETATM   26  C7  UNL     1      17.663  -1.805  53.458  1.00  0.00    -0.004 A 
ENDBRANCH  17  18
ENDBRANCH   1  17
TORSDOF 5
ENDMDL
MODEL 5
REMARK VINA RESULT:      -8.4      3.479      5.354
REMARK  5 active torsions:
REMARK  status: ('A' for Active; 'I' for Inactive)
REMARK    1  A    between atoms: N1_6  and  C6_7 
REMARK    2  A    between atoms: C8_9  and  C9_10 
REMARK    3  A    between atoms: C9_10  and  N2_11 
REMARK       I    between atoms: N2_11  and  C10_12 
REMARK    4  A    between atoms: C10_12  and  C11_14 
REMARK    5  A    between atoms: N3_19  and  O2_20 
ROOT
HETATM    1  N2  UNL     1      25.317   2.067  51.353  1.00  0.00    -0.339 N 
HETATM    2  C10 UNL     1      24.150   2.791  51.369  1.00  0.00     0.225 C 
HETATM    3  O1  UNL     1      23.452   2.084  52.137  1.00  0.00    -0.273 OA
HETATM    4  H9  UNL     1      26.124   2.452  50.754  1.00  0.00     0.167 HD
ENDROOT
BRANCH   2   5
HETATM    5  C11 UNL     1      24.041   4.051  50.578  1.00  0.00     0.083 C 
HETATM    6  C12 UNL     1      25.399   4.413  49.962  1.00  0.00     0.046 C 
HETATM    7  C13 UNL     1      25.181   5.831  49.448  1.00  0.00     0.048 C 
HETATM    8  C14 UNL     1      25.179   6.721  50.665  1.00  0.00     0.040 C 
HETATM    9  C15 UNL     1      26.435   6.195  48.658  1.00  0.00     0.040 C 
HETATM   10  N3  UNL     1      24.071   6.004  48.607  1.00  0.00    -0.278 N 
HETATM   11  C16 UNL     1      22.956   5.161  48.707  1.00  0.00     0.048 C 
HETATM   12  C17 UNL     1      21.753   5.810  49.387  1.00  0.00     0.040 C 
HETATM   13  C18 UNL     1      22.482   4.865  47.281  1.00  0.00     0.040 C 
HETATM   14  C19 UNL     1      23.159   3.825  49.369  1.00  0.00     0.046 C 
BRANCH  10  15
HETATM   15  O2  UNL     1      24.229   6.710  47.495  1.00  0.00    -0.291 OA
HETATM   16  H19 UNL     1      25.140   7.142  47.566  1.00  0.00     0.244 HD
ENDBRANCH  10  15
ENDBRANCH   2   5
BRANCH   1  17
HETATM   17  C9  UNL     1      25.544   0.853  52.063  1.00  0.00     0.081 C 
BRANCH  17  18
HETATM   18  C8  UNL     1      26.712   0.633  52.805  1.00  0.00     0.049 A 
HETATM   19  C4  UNL     1      27.957   0.975  53.503  1.00  0.00     0.042 A 
HETATM   20  C3  UNL     1      29.186   1.217  54.207  1.00  0.00     0.103 A 
HETATM   21  C5  UNL     1      28.184   2.368  53.418  1.00  0.00     0.116 A 
HETATM   22  C2  UNL     1      28.931  -0.248  54.266  1.00  0.00     0.044 A 
HETATM   23  C6  UNL     1      27.646  -0.003  53.471  1.00  0.00     0.053 A 
HETATM   24  N1  UNL     1      28.459   1.093  53.788  1.00  0.00    -0.387 N 
HETATM   25  C1  UNL     1      29.839  -1.103  53.384  1.00  0.00     0.015 C 
HETATM   26  C7  UNL     1      26.660  -0.778  52.999  1.00  0.00    -0.004 A 
ENDBRANCH  17  18
ENDBRANCH   1  17
TORSDOF 5
ENDMDL
MODEL 6
REMARK VINA RESULT:      -8.2      3.317      4.971
REMARK  5 active torsions:
REMARK  status: ('A' for Active; 'I' for Inactive)
REMARK    1  A    between atoms: N1_6  and  C6_7 
REMARK    2  A    between atoms: C8_9  and  C9_10 
REMARK    3  A    between atoms: C9_10  and  N2_11 
REMARK       I    between atoms: N2_11  and  C10_12 
REMARK    4  A    between atoms: C10_12  and  C11_14 
REMARK    5  A    between atoms: N3_19  and  O2_20 
ROOT
HETATM    1  N2  UNL     1      25.269   1.878  51.432  1.00  0.00    -0.339 N 
HETATM    2  C10 UNL     1      24.053   2.260  50.920  1.00  0.00     0.225 C 
HETATM    3  O1  UNL     1      23.321   1.337  51.356  1.00  0.00    -0.273 OA
HETATM    4  H9  UNL     1      26.113   2.508  51.211  1.00  0.00     0.167 HD
ENDROOT
BRANCH   2   5
HETATM    5  C11 UNL     1      23.944   3.499  50.097  1.00  0.00     0.083 C 
HETATM    6  C12 UNL     1      22.499   4.016  50.098  1.00  0.00     0.046 C 
HETATM    7  C13 UNL     1      22.510   5.084  49.011  1.00  0.00     0.048 C 
HETATM    8  C14 UNL     1      22.542   4.342  47.698  1.00  0.00     0.040 C 
HETATM    9  C15 UNL     1      21.151   5.772  49.077  1.00  0.00     0.040 C 
HETATM   10  N3  UNL     1      23.504   6.067  49.140  1.00  0.00    -0.278 N 
HETATM   11  C16 UNL     1      24.706   5.790  49.805  1.00  0.00     0.048 C 
HETATM   12  C17 UNL     1      25.896   5.602  48.867  1.00  0.00     0.040 C 
HETATM   13  C18 UNL     1      25.060   7.025  50.638  1.00  0.00     0.040 C 
HETATM   14  C19 UNL     1      24.716   4.623  50.755  1.00  0.00     0.046 C 
BRANCH  10  15
HETATM   15  O2  UNL     1      23.157   7.336  48.968  1.00  0.00    -0.291 OA
HETATM   16  H19 UNL     1      23.346   7.798  49.847  1.00  0.00     0.244 HD
ENDBRANCH  10  15
ENDBRANCH   2   5
BRANCH   1  17
HETATM   17  C9  UNL     1      25.501   0.721  52.230  1.00  0.00     0.081 C 
BRANCH  17  18
HETATM   18  C8  UNL     1      26.700   0.527  52.929  1.00  0.00     0.049 A 
HETATM   19  C4  UNL     1      27.969   0.895  53.569  1.00  0.00     0.042 A 
HETATM   20  C3  UNL     1      29.222   1.163  54.217  1.00  0.00     0.103 A 
HETATM   21  C5  UNL     1      28.178   2.288  53.446  1.00  0.00     0.116 A 
HETATM   22  C2  UNL     1      28.985  -0.303  54.316  1.00  0.00     0.044 A 
HETATM   23  C6  UNL     1      27.666  -0.086  53.569  1.00  0.00     0.053 A 
HETATM   24  N1  UNL     1      28.480   1.024  53.830  1.00  0.00    -0.387 N 
HETATM   25  C1  UNL     1      29.865  -1.168  53.416  1.00  0.00     0.015 C 
HETATM   26  C7  UNL     1      26.669  -0.880  53.153  1.00  0.00    -0.004 A 
ENDBRANCH  17  18
ENDBRANCH   1  17
TORSDOF 5
ENDMDL
MODEL 7
REMARK VINA RESULT:      -8.1      4.938      7.268
REMARK  5 active torsions:
REMARK  status: ('A' for Active; 'I' for Inactive)
REMARK    1  A    between atoms: N1_6  and  C6_7 
REMARK    2  A    between atoms: C8_9  and  C9_10 
REMARK    3  A    between atoms: C9_10  and  N2_11 
REMARK       I    between atoms: N2_11  and  C10_12 
REMARK    4  A    between atoms: C10_12  and  C11_14 
REMARK    5  A    between atoms: N3_19  and  O2_20 
ROOT
HETATM    1  N2  UNL     1      26.331   3.667  51.071  1.00  0.00    -0.339 N 
HETATM    2  C10 UNL     1      26.458   4.120  49.780  1.00  0.00     0.225 C 
HETATM    3  O1  UNL     1      26.979   3.116  49.235  1.00  0.00    -0.273 OA
HETATM    4  H9  UNL     1      25.897   4.343  51.787  1.00  0.00     0.167 HD
ENDROOT
BRANCH   2   5
HETATM    5  C11 UNL     1      26.007   5.496  49.423  1.00  0.00     0.083 C 
HETATM    6  C12 UNL     1      26.927   6.100  48.354  1.00  0.00     0.046 C 
HETATM    7  C13 UNL     1      26.509   7.565  48.320  1.00  0.00     0.048 C 
HETATM    8  C14 UNL     1      27.080   8.191  49.568  1.00  0.00     0.040 C 
HETATM    9  C15 UNL     1      27.256   8.194  47.149  1.00  0.00     0.040 C 
HETATM   10  N3  UNL     1      25.136   7.796  48.137  1.00  0.00    -0.278 N 
HETATM   11  C16 UNL     1      24.187   6.848  48.544  1.00  0.00     0.048 C 
HETATM   12  C17 UNL     1      23.443   7.233  49.820  1.00  0.00     0.040 C 
HETATM   13  C18 UNL     1      23.104   6.799  47.463  1.00  0.00     0.040 C 
HETATM   14  C19 UNL     1      24.663   5.432  48.730  1.00  0.00     0.046 C 
BRANCH  10  15
HETATM   15  O2  UNL     1      24.767   8.721  47.260  1.00  0.00    -0.291 OA
HETATM   16  H19 UNL     1      24.339   9.461  47.799  1.00  0.00     0.244 HD
ENDBRANCH  10  15
ENDBRANCH   2   5
BRANCH   1  17
HETATM   17  C9  UNL     1      26.723   2.379  51.534  1.00  0.00     0.081 C 
BRANCH  17  18
HETATM   18  C8  UNL     1      25.816   1.497  52.138  1.00  0.00     0.049 A 
HETATM   19  C4  UNL     1      24.543   1.052  52.718  1.00  0.00     0.042 A 
HETATM   20  C3  UNL     1      23.337   0.530  53.301  1.00  0.00     0.103 A 
HETATM   21  C5  UNL     1      23.603   2.108  52.674  1.00  0.00     0.116 A 
HETATM   22  C2  UNL     1      24.352  -0.558  53.350  1.00  0.00     0.044 A 
HETATM   23  C6  UNL     1      25.335   0.400  52.674  1.00  0.00     0.053 A 
HETATM   24  N1  UNL     1      24.040   0.855  52.954  1.00  0.00    -0.387 N 
HETATM   25  C1  UNL     1      24.915  -0.861  54.738  1.00  0.00     0.015 C 
HETATM   26  C7  UNL     1      26.612   0.322  52.271  1.00  0.00    -0.004 A 
ENDBRANCH  17  18
ENDBRANCH   1  17
TORSDOF 5
ENDMDL
MODEL 8
REMARK VINA RESULT:      -8.0      5.221      6.923
REMARK  5 active torsions:
REMARK  status: ('A' for Active; 'I' for Inactive)
REMARK    1  A    between atoms: N1_6  and  C6_7 
REMARK    2  A    between atoms: C8_9  and  C9_10 
REMARK    3  A    between atoms: C9_10  and  N2_11 
REMARK       I    between atoms: N2_11  and  C10_12 
REMARK    4  A    between atoms: C10_12  and  C11_14 
REMARK    5  A    between atoms: N3_19  and  O2_20 
ROOT
HETATM    1  N2  UNL     1      27.056   4.289  49.607  1.00  0.00    -0.339 N 
HETATM    2  C10 UNL     1      25.756   3.929  49.868  1.00  0.00     0.225 C 
HETATM    3  O1  UNL     1      25.163   4.510  48.926  1.00  0.00    -0.273 OA
HETATM    4  H9  UNL     1      27.811   3.918  50.278  1.00  0.00     0.167 HD
ENDROOT
BRANCH   2   5
HETATM    5  C11 UNL     1      25.442   3.062  51.041  1.00  0.00     0.083 C 
HETATM    6  C12 UNL     1      24.132   2.298  50.804  1.00  0.00     0.046 C 
HETATM    7  C13 UNL     1      23.822   1.705  52.174  1.00  0.00     0.048 C 
HETATM    8  C14 UNL     1      23.330   2.851  53.023  1.00  0.00     0.040 C 
HETATM    9  C15 UNL     1      22.627   0.779  51.976  1.00  0.00     0.040 C 
HETATM   10  N3  UNL     1      24.859   0.962  52.757  1.00  0.00    -0.278 N 
HETATM   11  C16 UNL     1      26.199   1.224  52.441  1.00  0.00     0.048 C 
HETATM   12  C17 UNL     1      26.956   1.964  53.540  1.00  0.00     0.040 C 
HETATM   13  C18 UNL     1      26.910  -0.127  52.321  1.00  0.00     0.040 C 
HETATM   14  C19 UNL     1      26.472   1.960  51.156  1.00  0.00     0.046 C 
BRANCH  10  15
HETATM   15  O2  UNL     1      24.560  -0.209  53.307  1.00  0.00    -0.291 OA
HETATM   16  H19 UNL     1      25.160  -0.299  54.115  1.00  0.00     0.244 HD
ENDBRANCH  10  15
ENDBRANCH   2   5
BRANCH   1  17
HETATM   17  C9  UNL     1      27.482   5.108  48.522  1.00  0.00     0.081 C 
BRANCH  17  18
HETATM   18  C8  UNL     1      27.618   6.497  48.647  1.00  0.00     0.049 A 
HETATM   19  C4  UNL     1      27.316   7.848  49.135  1.00  0.00     0.042 A 
HETATM   20  C3  UNL     1      27.092   9.203  49.557  1.00  0.00     0.103 A 
HETATM   21  C5  UNL     1      26.232   7.797  50.042  1.00  0.00     0.116 A 
HETATM   22  C2  UNL     1      28.219   9.230  48.585  1.00  0.00     0.044 A 
HETATM   23  C6  UNL     1      28.081   7.710  48.464  1.00  0.00     0.053 A 
HETATM   24  N1  UNL     1      27.209   8.397  49.319  1.00  0.00    -0.387 N 
HETATM   25  C1  UNL     1      27.883   9.814  47.214  1.00  0.00     0.015 C 
HETATM   26  C7  UNL     1      28.710   6.752  47.768  1.00  0.00    -0.004 A 
ENDBRANCH  17  18
ENDBRANCH   1  17
TORSDOF 5
ENDMDL
MODEL 9
REMARK VINA RESULT:      -7.9      5.200      6.969
REMARK  5 active torsions:
REMARK  status: ('A' for Active; 'I' for Inactive)
REMARK    1  A    between atoms: N1_6  and  C6_7 
REMARK    2  A    between atoms: C8_9  and  C9_10 
REMARK    3  A    between atoms: C9_10  and  N2_11 
REMARK       I    between atoms: N2_11  and  C10_12 
REMARK    4  A    between atoms: C10_12  and  C11_14 
REMARK    5  A    between atoms: N3_19  and  O2_20 
ROOT
HETATM    1  N2  UNL     1      27.306   4.798  49.470  1.00  0.00    -0.339 N 
HETATM    2  C10 UNL     1      26.039   4.350  49.755  1.00  0.00     0.225 C 
HETATM    3  O1  UNL     1      25.403   4.831  48.785  1.00  0.00    -0.273 OA
HETATM    4  H9  UNL     1      28.088   4.526  50.158  1.00  0.00     0.167 HD
ENDROOT
BRANCH   2   5
HETATM    5  C11 UNL     1      25.794   3.526  50.974  1.00  0.00     0.083 C 
HETATM    6  C12 UNL     1      24.341   3.035  51.003  1.00  0.00     0.046 C 
HETATM    7  C13 UNL     1      24.191   2.473  52.411  1.00  0.00     0.048 C 
HETATM    8  C14 UNL     1      24.102   3.666  53.329  1.00  0.00     0.040 C 
HETATM    9  C15 UNL     1      22.823   1.798  52.457  1.00  0.00     0.040 C 
HETATM   10  N3  UNL     1      25.157   1.527  52.789  1.00  0.00    -0.278 N 
HETATM   11  C16 UNL     1      26.436   1.537  52.216  1.00  0.00     0.048 C 
HETATM   12  C17 UNL     1      27.518   2.086  53.141  1.00  0.00     0.040 C 
HETATM   13  C18 UNL     1      26.835   0.079  51.973  1.00  0.00     0.040 C 
HETATM   14  C19 UNL     1      26.594   2.244  50.897  1.00  0.00     0.046 C 
BRANCH  10  15
HETATM   15  O2  UNL     1      24.747   0.420  53.396  1.00  0.00    -0.291 OA
HETATM   16  H19 UNL     1      24.012   0.705  54.029  1.00  0.00     0.244 HD
ENDBRANCH  10  15
ENDBRANCH   2   5
BRANCH   1  17
HETATM   17  C9  UNL     1      27.666   5.589  48.341  1.00  0.00     0.081 C 
BRANCH  17  18
HETATM   18  C8  UNL     1      28.751   6.476  48.369  1.00  0.00     0.049 A 
HETATM   19  C4  UNL     1      30.144   6.906  48.541  1.00  0.00     0.042 A 
HETATM   20  C3  UNL     1      31.479   7.416  48.688  1.00  0.00     0.103 A 
HETATM   21  C5  UNL     1      30.945   5.796  48.897  1.00  0.00     0.116 A 
HETATM   22  C2  UNL     1      30.609   8.569  48.330  1.00  0.00     0.044 A 
HETATM   23  C6  UNL     1      29.429   7.595  48.281  1.00  0.00     0.053 A 
HETATM   24  N1  UNL     1      30.697   7.097  48.606  1.00  0.00    -0.387 N 
HETATM   25  C1  UNL     1      30.326   9.549  49.467  1.00  0.00     0.015 C 
HETATM   26  C7  UNL     1      28.118   7.705  48.022  1.00  0.00    -0.004 A 
ENDBRANCH  17  18
ENDBRANCH   1  17
TORSDOF 5
ENDMDL
