MODEL 1
REMARK VINA RESULT:      -9.1      0.000      0.000
REMARK  2 active torsions:
REMARK  status: ('A' for Active; 'I' for Inactive)
REMARK       I    between atoms: N3_16  and  C14_17 
REMARK    1  A    between atoms: C14_17  and  C15_19 
REMARK    2  A    between atoms: C20_26  and  C21_27 
ROOT
HETATM    1  C1  UNL     1      23.051   2.974  48.546  1.00  0.00     0.010 C 
HETATM    2  C2  UNL     1      23.402   4.254  49.293  1.00  0.00    -0.014 C 
HETATM    3  C3  UNL     1      22.924   4.210  50.694  1.00  0.00     0.039 C 
HETATM    4  C4  UNL     1      23.936   4.570  51.748  1.00  0.00     0.219 C 
HETATM    5  C5  UNL     1      23.726   3.664  52.968  1.00  0.00     0.042 C 
HETATM    6  N1  UNL     1      23.759   5.928  52.223  1.00  0.00     0.116 N 
HETATM    7  C6  UNL     1      24.452   6.890  51.408  1.00  0.00     0.541 C 
HETATM    8  N2  UNL     1      24.216   6.572  50.022  1.00  0.00     0.124 N 
HETATM    9  C7  UNL     1      23.943   7.741  49.219  1.00  0.00     0.291 C 
HETATM   10  C8  UNL     1      24.462   7.348  47.846  1.00  0.00     0.036 A 
HETATM   11  C9  UNL     1      23.589   7.249  46.695  1.00  0.00     0.053 A 
HETATM   12  C10 UNL     1      24.475   8.436  46.878  1.00  0.00    -0.066 A 
HETATM   13  C11 UNL     1      25.157   9.557  46.827  1.00  0.00     0.005 C 
HETATM   14  C12 UNL     1      26.126   9.849  47.924  1.00  0.00     0.018 C 
HETATM   15  C13 UNL     1      26.829   8.931  48.588  1.00  0.00     0.095 C 
HETATM   16  N3  UNL     1      26.847   7.493  48.432  1.00  0.00    -0.315 N 
HETATM   17  C14 UNL     1      27.841   6.528  48.417  1.00  0.00     0.284 C 
HETATM   18  O1  UNL     1      27.726   5.288  48.406  1.00  0.00    -0.265 OA
HETATM   19  C22 UNL     1      25.702   6.653  48.157  1.00  0.00     0.141 C 
HETATM   20  C23 UNL     1      25.327   5.881  49.410  1.00  0.00     0.249 C 
HETATM   21  C24 UNL     1      24.859   4.483  49.110  1.00  0.00     0.042 C 
HETATM   22  H11 UNL     1      24.086   5.958  53.216  1.00  0.00     0.318 HD
ENDROOT
BRANCH  17  23
HETATM   23  C15 UNL     1      29.276   6.592  48.404  1.00  0.00     0.218 A 
HETATM   24  C16 UNL     1      29.407   5.250  48.131  1.00  0.00     0.080 A 
HETATM   25  S1  UNL     1      32.159   5.794  48.184  1.00  0.00    -0.085 SA
HETATM   26  C17 UNL     1      33.305   6.012  48.185  1.00  0.00     0.086 A 
HETATM   27  C21 UNL     1      31.885   5.748  48.185  1.00  0.00     0.183 A 
HETATM   28  H22 UNL     1      30.765   5.495  48.184  1.00  0.00     0.155 HD
HETATM   29  C20 UNL     1      32.424   7.350  48.489  1.00  0.00     0.133 A 
HETATM   30  N4  UNL     1      30.673   7.017  48.465  1.00  0.00     0.005 N 
HETATM   31  C18 UNL     1      34.528   6.222  48.176  1.00  0.00     0.061 A 
HETATM   32  C19 UNL     1      33.941   7.357  48.431  1.00  0.00     0.142 A 
HETATM   33  F1  UNL     1      35.248   7.690  48.445  1.00  0.00    -0.239 F 
HETATM   34  H25 UNL     1      30.066   8.087  48.693  1.00  0.00     0.300 HD
ENDBRANCH  17  23
TORSDOF 2
ENDMDL
MODEL 2
REMARK VINA RESULT:      -9.0      6.050      7.830
REMARK  2 active torsions:
REMARK  status: ('A' for Active; 'I' for Inactive)
REMARK       I    between atoms: N3_16  and  C14_17 
REMARK    1  A    between atoms: C14_17  and  C15_19 
REMARK    2  A    between atoms: C20_26  and  C21_27 
ROOT
HETATM    1  C1  UNL     1      21.027   7.781  50.397  1.00  0.00     0.010 C 
HETATM    2  C2  UNL     1      21.087   6.466  49.630  1.00  0.00    -0.014 C 
HETATM    3  C3  UNL     1      21.230   6.697  48.174  1.00  0.00     0.039 C 
HETATM    4  C4  UNL     1      22.327   5.926  47.489  1.00  0.00     0.219 C 
HETATM    5  C5  UNL     1      22.974   6.821  46.425  1.00  0.00     0.042 C 
HETATM    6  N1  UNL     1      21.812   4.771  46.781  1.00  0.00     0.116 N 
HETATM    7  C6  UNL     1      21.698   3.613  47.628  1.00  0.00     0.541 C 
HETATM    8  N2  UNL     1      21.109   4.016  48.879  1.00  0.00     0.124 N 
HETATM    9  C7  UNL     1      20.110   3.086  49.351  1.00  0.00     0.291 C 
HETATM   10  C8  UNL     1      20.186   3.232  50.862  1.00  0.00     0.036 A 
HETATM   11  C9  UNL     1      19.064   3.708  51.645  1.00  0.00     0.053 A 
HETATM   12  C10 UNL     1      19.396   2.254  51.598  1.00  0.00    -0.066 A 
HETATM   13  C11 UNL     1      19.497   0.949  51.708  1.00  0.00     0.005 C 
HETATM   14  C12 UNL     1      20.600   0.258  50.979  1.00  0.00     0.018 C 
HETATM   15  C13 UNL     1      21.806   0.779  50.745  1.00  0.00     0.095 C 
HETATM   16  N3  UNL     1      22.340   2.071  51.116  1.00  0.00    -0.315 N 
HETATM   17  C14 UNL     1      23.552   2.515  51.618  1.00  0.00     0.284 C 
HETATM   18  O1  UNL     1      23.950   3.685  51.778  1.00  0.00    -0.265 OA
HETATM   19  C22 UNL     1      21.618   3.324  51.106  1.00  0.00     0.141 C 
HETATM   20  C23 UNL     1      22.085   4.169  49.933  1.00  0.00     0.249 C 
HETATM   21  C24 UNL     1      22.142   5.636  50.264  1.00  0.00     0.042 C 
HETATM   22  H11 UNL     1      22.447   4.593  45.968  1.00  0.00     0.318 HD
ENDROOT
BRANCH  17  23
HETATM   23  C15 UNL     1      24.720   1.841  52.113  1.00  0.00     0.218 A 
HETATM   24  C16 UNL     1      24.833   2.678  53.198  1.00  0.00     0.080 A 
HETATM   25  S1  UNL     1      27.068   1.101  53.826  1.00  0.00    -0.085 SA
HETATM   26  C17 UNL     1      27.987   0.441  54.108  1.00  0.00     0.086 A 
HETATM   27  C21 UNL     1      26.848   1.255  53.755  1.00  0.00     0.183 A 
HETATM   28  H22 UNL     1      25.953   1.931  53.506  1.00  0.00     0.155 HD
HETATM   29  C20 UNL     1      27.274  -0.054  52.728  1.00  0.00     0.133 A 
HETATM   30  N4  UNL     1      25.856   0.943  52.313  1.00  0.00     0.005 N 
HETATM   31  C18 UNL     1      28.966  -0.252  54.429  1.00  0.00     0.061 A 
HETATM   32  C19 UNL     1      28.490  -0.741  53.320  1.00  0.00     0.142 A 
HETATM   33  F1  UNL     1      29.537  -1.553  53.578  1.00  0.00    -0.239 F 
HETATM   34  H25 UNL     1      25.357   0.499  51.256  1.00  0.00     0.300 HD
ENDBRANCH  17  23
TORSDOF 2
ENDMDL
MODEL 3
REMARK VINA RESULT:      -9.0      7.819     12.302
REMARK  2 active torsions:
REMARK  status: ('A' for Active; 'I' for Inactive)
REMARK       I    between atoms: N3_16  and  C14_17 
REMARK    1  A    between atoms: C14_17  and  C15_19 
REMARK    2  A    between atoms: C20_26  and  C21_27 
ROOT
HETATM    1  C1  UNL     1      21.791   5.294  46.645  1.00  0.00     0.010 C 
HETATM    2  C2  UNL     1      22.057   5.168  48.140  1.00  0.00    -0.014 C 
HETATM    3  C3  UNL     1      22.912   6.274  48.631  1.00  0.00     0.039 C 
HETATM    4  C4  UNL     1      22.415   6.998  49.853  1.00  0.00     0.219 C 
HETATM    5  C5  UNL     1      22.730   8.492  49.708  1.00  0.00     0.042 C 
HETATM    6  N1  UNL     1      23.099   6.560  51.054  1.00  0.00     0.116 N 
HETATM    7  C6  UNL     1      22.484   5.401  51.645  1.00  0.00     0.541 C 
HETATM    8  N2  UNL     1      22.184   4.457  50.598  1.00  0.00     0.124 N 
HETATM    9  C7  UNL     1      22.509   3.098  50.962  1.00  0.00     0.291 C 
HETATM   10  C8  UNL     1      21.505   2.277  50.171  1.00  0.00     0.036 A 
HETATM   11  C9  UNL     1      21.917   1.333  49.153  1.00  0.00     0.053 A 
HETATM   12  C10 UNL     1      21.497   0.859  50.504  1.00  0.00    -0.066 A 
HETATM   13  C11 UNL     1      21.171   0.218  51.604  1.00  0.00     0.005 C 
HETATM   14  C12 UNL     1      20.708   1.013  52.778  1.00  0.00     0.018 C 
HETATM   15  C13 UNL     1      20.019   2.152  52.707  1.00  0.00     0.095 C 
HETATM   16  N3  UNL     1      19.555   2.878  51.545  1.00  0.00    -0.315 N 
HETATM   17  C14 UNL     1      18.378   3.527  51.208  1.00  0.00     0.284 C 
HETATM   18  O1  UNL     1      18.135   4.241  50.217  1.00  0.00    -0.265 OA
HETATM   19  C22 UNL     1      20.279   3.050  50.305  1.00  0.00     0.141 C 
HETATM   20  C23 UNL     1      20.793   4.476  50.211  1.00  0.00     0.249 C 
HETATM   21  C24 UNL     1      20.739   5.019  48.808  1.00  0.00     0.042 C 
HETATM   22  H11 UNL     1      23.115   7.369  51.718  1.00  0.00     0.318 HD
ENDROOT
BRANCH  17  23
HETATM   23  C15 UNL     1      17.086   3.610  51.830  1.00  0.00     0.218 A 
HETATM   24  C16 UNL     1      16.685   2.393  51.328  1.00  0.00     0.080 A 
HETATM   25  S1  UNL     1      14.297   2.931  52.700  1.00  0.00    -0.085 SA
HETATM   26  C17 UNL     1      13.307   3.134  53.283  1.00  0.00     0.086 A 
HETATM   27  C21 UNL     1      14.535   2.887  52.564  1.00  0.00     0.183 A 
HETATM   28  H22 UNL     1      15.492   2.656  51.973  1.00  0.00     0.155 HD
HETATM   29  C20 UNL     1      14.384   4.346  53.458  1.00  0.00     0.133 A 
HETATM   30  N4  UNL     1      15.903   4.020  52.585  1.00  0.00     0.005 N 
HETATM   31  C18 UNL     1      12.247   3.328  53.898  1.00  0.00     0.061 A 
HETATM   32  C19 UNL     1      13.015   4.357  54.113  1.00  0.00     0.142 A 
HETATM   33  F1  UNL     1      11.904   4.664  54.816  1.00  0.00    -0.239 F 
HETATM   34  H25 UNL     1      16.681   4.982  52.775  1.00  0.00     0.300 HD
ENDBRANCH  17  23
TORSDOF 2
ENDMDL
MODEL 4
REMARK VINA RESULT:      -8.9      5.273      8.720
REMARK  2 active torsions:
REMARK  status: ('A' for Active; 'I' for Inactive)
REMARK       I    between atoms: N3_16  and  C14_17 
REMARK    1  A    between atoms: C14_17  and  C15_19 
REMARK    2  A    between atoms: C20_26  and  C21_27 
ROOT
HETATM    1  C1  UNL     1      31.586  10.158  47.980  1.00  0.00     0.010 C 
HETATM    2  C2  UNL     1      31.220   8.682  48.065  1.00  0.00    -0.014 C 
HETATM    3  C3  UNL     1      29.821   8.498  48.518  1.00  0.00     0.039 C 
HETATM    4  C4  UNL     1      28.974   7.574  47.685  1.00  0.00     0.219 C 
HETATM    5  C5  UNL     1      27.551   8.141  47.606  1.00  0.00     0.042 C 
HETATM    6  N1  UNL     1      28.849   6.263  48.292  1.00  0.00     0.116 N 
HETATM    7  C6  UNL     1      29.934   5.387  47.935  1.00  0.00     0.541 C 
HETATM    8  N2  UNL     1      31.170   6.120  48.043  1.00  0.00     0.124 N 
HETATM    9  C7  UNL     1      32.221   5.352  48.667  1.00  0.00     0.291 C 
HETATM   10  C8  UNL     1      33.484   5.914  48.036  1.00  0.00     0.036 A 
HETATM   11  C9  UNL     1      34.503   6.582  48.820  1.00  0.00     0.053 A 
HETATM   12  C10 UNL     1      34.697   5.175  48.362  1.00  0.00    -0.066 A 
HETATM   13  C11 UNL     1      35.083   3.953  48.074  1.00  0.00     0.005 C 
HETATM   14  C12 UNL     1      34.174   3.094  47.261  1.00  0.00     0.018 C 
HETATM   15  C13 UNL     1      33.353   3.537  46.308  1.00  0.00     0.095 C 
HETATM   16  N3  UNL     1      33.138   4.885  45.829  1.00  0.00    -0.315 N 
HETATM   17  C14 UNL     1      32.982   5.460  44.578  1.00  0.00     0.284 C 
HETATM   18  O1  UNL     1      32.667   6.630  44.290  1.00  0.00    -0.265 OA
HETATM   19  C22 UNL     1      33.102   6.080  46.642  1.00  0.00     0.141 C 
HETATM   20  C23 UNL     1      31.668   6.567  46.763  1.00  0.00     0.249 C 
HETATM   21  C24 UNL     1      31.565   8.068  46.757  1.00  0.00     0.042 C 
HETATM   22  H11 UNL     1      27.925   5.870  48.001  1.00  0.00     0.318 HD
ENDROOT
BRANCH  17  23
HETATM   23  C15 UNL     1      33.120   4.959  43.239  1.00  0.00     0.218 A 
HETATM   24  C16 UNL     1      34.412   5.415  43.123  1.00  0.00     0.080 A 
HETATM   25  S1  UNL     1      34.280   4.291  40.555  1.00  0.00    -0.085 SA
HETATM   26  C17 UNL     1      34.244   3.811  39.493  1.00  0.00     0.086 A 
HETATM   27  C21 UNL     1      34.284   4.403  40.809  1.00  0.00     0.183 A 
HETATM   28  H22 UNL     1      34.354   4.894  41.845  1.00  0.00     0.155 HD
HETATM   29  C20 UNL     1      32.841   3.621  40.302  1.00  0.00     0.133 A 
HETATM   30  N4  UNL     1      32.909   4.336  41.933  1.00  0.00     0.005 N 
HETATM   31  C18 UNL     1      34.228   3.303  38.360  1.00  0.00     0.061 A 
HETATM   32  C19 UNL     1      33.061   3.089  38.898  1.00  0.00     0.142 A 
HETATM   33  F1  UNL     1      32.941   2.507  37.687  1.00  0.00    -0.239 F 
HETATM   34  H25 UNL     1      31.808   4.142  42.495  1.00  0.00     0.300 HD
ENDBRANCH  17  23
TORSDOF 2
ENDMDL
MODEL 5
REMARK VINA RESULT:      -8.8      3.737      7.926
REMARK  2 active torsions:
REMARK  status: ('A' for Active; 'I' for Inactive)
REMARK       I    between atoms: N3_16  and  C14_17 
REMARK    1  A    between atoms: C14_17  and  C15_19 
REMARK    2  A    between atoms: C20_26  and  C21_27 
ROOT
HETATM    1  C1  UNL     1      28.646  11.119  44.854  1.00  0.00     0.010 C 
HETATM    2  C2  UNL     1      29.394  10.689  46.109  1.00  0.00    -0.014 C 
HETATM    3  C3  UNL     1      29.640  11.838  47.011  1.00  0.00     0.039 C 
HETATM    4  C4  UNL     1      29.252  11.640  48.452  1.00  0.00     0.219 C 
HETATM    5  C5  UNL     1      28.666  12.950  48.994  1.00  0.00     0.042 C 
HETATM    6  N1  UNL     1      30.402  11.343  49.284  1.00  0.00     0.116 N 
HETATM    7  C6  UNL     1      30.716   9.939  49.305  1.00  0.00     0.541 C 
HETATM    8  N2  UNL     1      30.647   9.432  47.958  1.00  0.00     0.124 N 
HETATM    9  C7  UNL     1      31.736   8.539  47.641  1.00  0.00     0.291 C 
HETATM   10  C8  UNL     1      31.128   7.602  46.611  1.00  0.00     0.036 A 
HETATM   11  C9  UNL     1      31.630   7.522  45.255  1.00  0.00     0.053 A 
HETATM   12  C10 UNL     1      31.976   6.471  46.256  1.00  0.00    -0.066 A 
HETATM   13  C11 UNL     1      32.405   5.444  46.953  1.00  0.00     0.005 C 
HETATM   14  C12 UNL     1      31.992   5.333  48.382  1.00  0.00     0.018 C 
HETATM   15  C13 UNL     1      30.824   5.748  48.875  1.00  0.00     0.095 C 
HETATM   16  N3  UNL     1      29.708   6.373  48.200  1.00  0.00    -0.315 N 
HETATM   17  C14 UNL     1      28.331   6.228  48.255  1.00  0.00     0.284 C 
HETATM   18  O1  UNL     1      27.450   6.922  47.715  1.00  0.00    -0.265 OA
HETATM   19  C22 UNL     1      29.796   7.357  47.144  1.00  0.00     0.141 C 
HETATM   20  C23 UNL     1      29.418   8.722  47.690  1.00  0.00     0.249 C 
HETATM   21  C24 UNL     1      28.646   9.549  46.698  1.00  0.00     0.042 C 
HETATM   22  H11 UNL     1      30.198  11.707  50.243  1.00  0.00     0.318 HD
ENDROOT
BRANCH  17  23
HETATM   23  C15 UNL     1      27.466   5.285  48.908  1.00  0.00     0.218 A 
HETATM   24  C16 UNL     1      26.329   5.978  48.562  1.00  0.00     0.080 A 
HETATM   25  S1  UNL     1      24.998   3.923  49.934  1.00  0.00    -0.085 SA
HETATM   26  C17 UNL     1      24.433   3.064  50.484  1.00  0.00     0.086 A 
HETATM   27  C21 UNL     1      25.137   4.124  49.803  1.00  0.00     0.183 A 
HETATM   28  H22 UNL     1      25.660   4.990  49.259  1.00  0.00     0.155 HD
HETATM   29  C20 UNL     1      26.049   2.855  50.515  1.00  0.00     0.133 A 
HETATM   30  N4  UNL     1      26.908   4.157  49.652  1.00  0.00     0.005 N 
HETATM   31  C18 UNL     1      23.811   2.158  51.061  1.00  0.00     0.061 A 
HETATM   32  C19 UNL     1      25.080   1.880  51.157  1.00  0.00     0.142 A 
HETATM   33  F1  UNL     1      24.501   0.849  51.808  1.00  0.00    -0.239 F 
HETATM   34  H25 UNL     1      28.136   3.923  49.707  1.00  0.00     0.300 HD
ENDBRANCH  17  23
TORSDOF 2
ENDMDL
MODEL 6
REMARK VINA RESULT:      -8.7      2.395      4.761
REMARK  2 active torsions:
REMARK  status: ('A' for Active; 'I' for Inactive)
REMARK       I    between atoms: N3_16  and  C14_17 
REMARK    1  A    between atoms: C14_17  and  C15_19 
REMARK    2  A    between atoms: C20_26  and  C21_27 
ROOT
HETATM    1  C1  UNL     1      20.549   6.650  49.639  1.00  0.00     0.010 C 
HETATM    2  C2  UNL     1      21.202   5.306  49.341  1.00  0.00    -0.014 C 
HETATM    3  C3  UNL     1      20.441   4.552  48.318  1.00  0.00     0.039 C 
HETATM    4  C4  UNL     1      21.246   4.004  47.169  1.00  0.00     0.219 C 
HETATM    5  C5  UNL     1      20.422   4.129  45.882  1.00  0.00     0.042 C 
HETATM    6  N1  UNL     1      21.522   2.590  47.332  1.00  0.00     0.116 N 
HETATM    7  C6  UNL     1      22.706   2.348  48.113  1.00  0.00     0.541 C 
HETATM    8  N2  UNL     1      22.683   3.217  49.262  1.00  0.00     0.124 N 
HETATM    9  C7  UNL     1      23.088   2.548  50.476  1.00  0.00     0.291 C 
HETATM   10  C8  UNL     1      23.704   3.667  51.300  1.00  0.00     0.036 A 
HETATM   11  C9  UNL     1      23.150   4.077  52.574  1.00  0.00     0.053 A 
HETATM   12  C10 UNL     1      24.369   3.218  52.516  1.00  0.00    -0.066 A 
HETATM   13  C11 UNL     1      25.433   2.474  52.710  1.00  0.00     0.005 C 
HETATM   14  C12 UNL     1      26.162   1.952  51.518  1.00  0.00     0.018 C 
HETATM   15  C13 UNL     1      26.270   2.586  50.349  1.00  0.00     0.095 C 
HETATM   16  N3  UNL     1      25.749   3.874  49.948  1.00  0.00    -0.315 N 
HETATM   17  C14 UNL     1      26.251   4.946  49.228  1.00  0.00     0.284 C 
HETATM   18  O1  UNL     1      25.657   5.964  48.826  1.00  0.00    -0.265 OA
HETATM   19  C22 UNL     1      24.459   4.419  50.309  1.00  0.00     0.141 C 
HETATM   20  C23 UNL     1      23.534   4.373  49.105  1.00  0.00     0.249 C 
HETATM   21  C24 UNL     1      22.629   5.573  49.026  1.00  0.00     0.042 C 
HETATM   22  H11 UNL     1      21.600   2.174  46.375  1.00  0.00     0.318 HD
ENDROOT
BRANCH  17  23
HETATM   23  C15 UNL     1      27.555   5.265  48.716  1.00  0.00     0.218 A 
HETATM   24  C16 UNL     1      27.219   6.576  48.472  1.00  0.00     0.080 A 
HETATM   25  S1  UNL     1      29.864   6.789  47.557  1.00  0.00    -0.085 SA
HETATM   26  C17 UNL     1      30.966   6.895  47.193  1.00  0.00     0.086 A 
HETATM   27  C21 UNL     1      29.602   6.759  47.646  1.00  0.00     0.183 A 
HETATM   28  H22 UNL     1      28.509   6.690  47.990  1.00  0.00     0.155 HD
HETATM   29  C20 UNL     1      30.626   5.380  47.693  1.00  0.00     0.133 A 
HETATM   30  N4  UNL     1      28.947   5.229  48.270  1.00  0.00     0.005 N 
HETATM   31  C18 UNL     1      32.138   7.030  46.805  1.00  0.00     0.061 A 
HETATM   32  C19 UNL     1      31.991   5.789  47.171  1.00  0.00     0.142 A 
HETATM   33  F1  UNL     1      33.279   5.830  46.770  1.00  0.00    -0.239 F 
HETATM   34  H25 UNL     1      28.764   4.050  48.647  1.00  0.00     0.300 HD
ENDBRANCH  17  23
TORSDOF 2
ENDMDL
MODEL 7
REMARK VINA RESULT:      -8.5      4.935      6.084
REMARK  2 active torsions:
REMARK  status: ('A' for Active; 'I' for Inactive)
REMARK       I    between atoms: N3_16  and  C14_17 
REMARK    1  A    between atoms: C14_17  and  C15_19 
REMARK    2  A    between atoms: C20_26  and  C21_27 
ROOT
HETATM    1  C1  UNL     1      21.482   3.889  45.042  1.00  0.00     0.010 C 
HETATM    2  C2  UNL     1      21.224   4.533  46.399  1.00  0.00    -0.014 C 
HETATM    3  C3  UNL     1      19.792   4.453  46.770  1.00  0.00     0.039 C 
HETATM    4  C4  UNL     1      19.496   3.923  48.147  1.00  0.00     0.219 C 
HETATM    5  C5  UNL     1      18.236   3.051  48.084  1.00  0.00     0.042 C 
HETATM    6  N1  UNL     1      19.197   4.990  49.082  1.00  0.00     0.116 N 
HETATM    7  C6  UNL     1      20.382   5.540  49.685  1.00  0.00     0.541 C 
HETATM    8  N2  UNL     1      21.372   5.736  48.656  1.00  0.00     0.124 N 
HETATM    9  C7  UNL     1      22.065   6.997  48.780  1.00  0.00     0.291 C 
HETATM   10  C8  UNL     1      23.433   6.702  48.189  1.00  0.00     0.036 A 
HETATM   11  C9  UNL     1      23.921   7.381  47.006  1.00  0.00     0.053 A 
HETATM   12  C10 UNL     1      24.404   7.774  48.362  1.00  0.00    -0.066 A 
HETATM   13  C11 UNL     1      24.966   8.282  49.435  1.00  0.00     0.005 C 
HETATM   14  C12 UNL     1      24.602   7.714  50.765  1.00  0.00     0.018 C 
HETATM   15  C13 UNL     1      24.288   6.438  50.991  1.00  0.00     0.095 C 
HETATM   16  N3  UNL     1      24.225   5.326  50.068  1.00  0.00    -0.315 N 
HETATM   17  C14 UNL     1      24.627   4.001  50.111  1.00  0.00     0.284 C 
HETATM   18  O1  UNL     1      24.399   3.088  49.294  1.00  0.00    -0.265 OA
HETATM   19  C22 UNL     1      23.731   5.376  48.710  1.00  0.00     0.141 C 
HETATM   20  C23 UNL     1      22.374   4.696  48.639  1.00  0.00     0.249 C 
HETATM   21  C24 UNL     1      22.180   3.926  47.361  1.00  0.00     0.042 C 
HETATM   22  H11 UNL     1      18.544   4.603  49.801  1.00  0.00     0.318 HD
ENDROOT
BRANCH  17  23
HETATM   23  C15 UNL     1      25.406   3.237  51.045  1.00  0.00     0.218 A 
HETATM   24  C16 UNL     1      24.309   2.920  51.812  1.00  0.00     0.080 A 
HETATM   25  S1  UNL     1      26.166   1.527  53.389  1.00  0.00    -0.085 SA
HETATM   26  C17 UNL     1      26.925   0.929  54.041  1.00  0.00     0.086 A 
HETATM   27  C21 UNL     1      25.989   1.671  53.231  1.00  0.00     0.183 A 
HETATM   28  H22 UNL     1      25.214   2.255  52.616  1.00  0.00     0.155 HD
HETATM   29  C20 UNL     1      27.646   1.667  52.779  1.00  0.00     0.133 A 
HETATM   30  N4  UNL     1      26.479   2.561  51.772  1.00  0.00     0.005 N 
HETATM   31  C18 UNL     1      27.716   0.282  54.747  1.00  0.00     0.061 A 
HETATM   32  C19 UNL     1      28.407   0.821  53.784  1.00  0.00     0.142 A 
HETATM   33  F1  UNL     1      29.346   0.151  54.483  1.00  0.00    -0.239 F 
HETATM   34  H25 UNL     1      27.100   3.087  50.822  1.00  0.00     0.300 HD
ENDBRANCH  17  23
TORSDOF 2
ENDMDL
MODEL 8
REMARK VINA RESULT:      -8.4      2.599      4.290
REMARK  2 active torsions:
REMARK  status: ('A' for Active; 'I' for Inactive)
REMARK       I    between atoms: N3_16  and  C14_17 
REMARK    1  A    between atoms: C14_17  and  C15_19 
REMARK    2  A    between atoms: C20_26  and  C21_27 
ROOT
HETATM    1  C1  UNL     1      24.273   9.094  45.821  1.00  0.00     0.010 C 
HETATM    2  C2  UNL     1      25.077   9.299  47.099  1.00  0.00    -0.014 C 
HETATM    3  C3  UNL     1      24.249   9.056  48.303  1.00  0.00     0.039 C 
HETATM    4  C4  UNL     1      24.840   8.133  49.335  1.00  0.00     0.219 C 
HETATM    5  C5  UNL     1      23.720   7.268  49.927  1.00  0.00     0.042 C 
HETATM    6  N1  UNL     1      25.411   8.865  50.448  1.00  0.00     0.116 N 
HETATM    7  C6  UNL     1      26.772   9.261  50.205  1.00  0.00     0.541 C 
HETATM    8  N2  UNL     1      26.864   9.791  48.868  1.00  0.00     0.124 N 
HETATM    9  C7  UNL     1      27.671  10.986  48.795  1.00  0.00     0.291 C 
HETATM   10  C8  UNL     1      28.244  10.933  47.389  1.00  0.00     0.036 A 
HETATM   11  C9  UNL     1      27.948  11.949  46.400  1.00  0.00     0.053 A 
HETATM   12  C10 UNL     1      29.257  11.945  47.117  1.00  0.00    -0.066 A 
HETATM   13  C11 UNL     1      30.458  12.139  47.611  1.00  0.00     0.005 C 
HETATM   14  C12 UNL     1      30.962  11.190  48.647  1.00  0.00     0.018 C 
HETATM   15  C13 UNL     1      30.660   9.892  48.706  1.00  0.00     0.095 C 
HETATM   16  N3  UNL     1      29.822   9.099  47.833  1.00  0.00    -0.315 N 
HETATM   17  C14 UNL     1      29.922   7.837  47.270  1.00  0.00     0.284 C 
HETATM   18  O1  UNL     1      29.066   7.197  46.631  1.00  0.00    -0.265 OA
HETATM   19  C22 UNL     1      28.579   9.526  47.230  1.00  0.00     0.141 C 
HETATM   20  C23 UNL     1      27.416   8.843  47.928  1.00  0.00     0.249 C 
HETATM   21  C24 UNL     1      26.308   8.476  46.979  1.00  0.00     0.042 C 
HETATM   22  H11 UNL     1      25.332   8.257  51.296  1.00  0.00     0.318 HD
ENDROOT
BRANCH  17  23
HETATM   23  C15 UNL     1      30.978   6.865  47.212  1.00  0.00     0.218 A 
HETATM   24  C16 UNL     1      30.571   6.247  48.372  1.00  0.00     0.080 A 
HETATM   25  S1  UNL     1      32.749   4.543  47.895  1.00  0.00    -0.085 SA
HETATM   26  C17 UNL     1      33.640   3.816  47.696  1.00  0.00     0.086 A 
HETATM   27  C21 UNL     1      32.538   4.718  47.937  1.00  0.00     0.183 A 
HETATM   28  H22 UNL     1      31.657   5.418  48.168  1.00  0.00     0.155 HD
HETATM   29  C20 UNL     1      33.518   4.967  46.548  1.00  0.00     0.133 A 
HETATM   30  N4  UNL     1      32.142   6.061  46.843  1.00  0.00     0.005 N 
HETATM   31  C18 UNL     1      34.579   3.029  47.502  1.00  0.00     0.061 A 
HETATM   32  C19 UNL     1      34.590   3.894  46.528  1.00  0.00     0.142 A 
HETATM   33  F1  UNL     1      35.636   3.095  46.227  1.00  0.00    -0.239 F 
HETATM   34  H25 UNL     1      32.105   6.905  45.919  1.00  0.00     0.300 HD
ENDBRANCH  17  23
TORSDOF 2
ENDMDL
MODEL 9
REMARK VINA RESULT:      -8.3      6.437     10.268
REMARK  2 active torsions:
REMARK  status: ('A' for Active; 'I' for Inactive)
REMARK       I    between atoms: N3_16  and  C14_17 
REMARK    1  A    between atoms: C14_17  and  C15_19 
REMARK    2  A    between atoms: C20_26  and  C21_27 
ROOT
HETATM    1  C1  UNL     1      22.993   6.060  46.458  1.00  0.00     0.010 C 
HETATM    2  C2  UNL     1      23.139   6.174  47.970  1.00  0.00    -0.014 C 
HETATM    3  C3  UNL     1      22.799   7.536  48.444  1.00  0.00     0.039 C 
HETATM    4  C4  UNL     1      21.829   7.611  49.593  1.00  0.00     0.219 C 
HETATM    5  C5  UNL     1      20.899   8.811  49.380  1.00  0.00     0.042 C 
HETATM    6  N1  UNL     1      22.505   7.848  50.853  1.00  0.00     0.116 N 
HETATM    7  C6  UNL     1      22.953   6.629  51.474  1.00  0.00     0.541 C 
HETATM    8  N2  UNL     1      23.568   5.800  50.468  1.00  0.00     0.124 N 
HETATM    9  C7  UNL     1      24.787   5.177  50.927  1.00  0.00     0.291 C 
HETATM   10  C8  UNL     1      24.837   3.885  50.129  1.00  0.00     0.036 A 
HETATM   11  C9  UNL     1      25.905   3.603  49.192  1.00  0.00     0.053 A 
HETATM   12  C10 UNL     1      25.891   2.968  50.542  1.00  0.00    -0.066 A 
HETATM   13  C11 UNL     1      26.086   2.300  51.656  1.00  0.00     0.005 C 
HETATM   14  C12 UNL     1      25.088   2.447  52.756  1.00  0.00     0.018 C 
HETATM   15  C13 UNL     1      23.781   2.648  52.581  1.00  0.00     0.095 C 
HETATM   16  N3  UNL     1      23.022   2.764  51.355  1.00  0.00    -0.315 N 
HETATM   17  C14 UNL     1      21.801   2.279  50.916  1.00  0.00     0.284 C 
HETATM   18  O1  UNL     1      21.179   2.556  49.873  1.00  0.00    -0.265 OA
HETATM   19  C22 UNL     1      23.453   3.438  50.150  1.00  0.00     0.141 C 
HETATM   20  C23 UNL     1      22.696   4.747  50.003  1.00  0.00     0.249 C 
HETATM   21  C24 UNL     1      22.359   5.062  48.571  1.00  0.00     0.042 C 
HETATM   22  H11 UNL     1      21.844   8.374  51.470  1.00  0.00     0.318 HD
ENDROOT
BRANCH  17  23
HETATM   23  C15 UNL     1      20.863   1.336  51.458  1.00  0.00     0.218 A 
HETATM   24  C16 UNL     1      19.875   1.699  50.574  1.00  0.00     0.080 A 
HETATM   25  S1  UNL     1      18.359  -0.255  51.902  1.00  0.00    -0.085 SA
HETATM   26  C17 UNL     1      17.726  -1.077  52.433  1.00  0.00     0.086 A 
HETATM   27  C21 UNL     1      18.515  -0.060  51.778  1.00  0.00     0.183 A 
HETATM   28  H22 UNL     1      19.105   0.762  51.236  1.00  0.00     0.155 HD
HETATM   29  C20 UNL     1      19.222  -0.945  53.069  1.00  0.00     0.133 A 
HETATM   30  N4  UNL     1      20.193   0.297  52.239  1.00  0.00     0.005 N 
HETATM   31  C18 UNL     1      17.036  -1.951  52.982  1.00  0.00     0.061 A 
HETATM   32  C19 UNL     1      18.196  -1.941  53.576  1.00  0.00     0.142 A 
HETATM   33  F1  UNL     1      17.531  -2.911  54.239  1.00  0.00    -0.239 F 
HETATM   34  H25 UNL     1      21.326   0.333  52.771  1.00  0.00     0.300 HD
ENDBRANCH  17  23
TORSDOF 2
ENDMDL
