MODEL 1
REMARK VINA RESULT:      -9.2      0.000      0.000
REMARK  2 active torsions:
REMARK  status: ('A' for Active; 'I' for Inactive)
REMARK    1  A    between atoms: C15_17  and  C16_18 
REMARK    2  A    between atoms: C21_23  and  O1_24 
ROOT
HETATM    1  C1  UNL     1      23.350  -0.911  54.391  1.00  0.00     0.050 C 
HETATM    2  C2  UNL     1      22.395  -0.279  53.467  1.00  0.00    -0.040 C 
HETATM    3  C3  UNL     1      21.064  -0.457  53.485  1.00  0.00    -0.018 C 
HETATM    4  C4  UNL     1      20.221   0.588  53.253  1.00  0.00     0.026 C 
HETATM    5  C5  UNL     1      20.630   1.557  52.130  1.00  0.00    -0.008 C 
HETATM    6  C6  UNL     1      20.297   2.873  52.571  1.00  0.00     0.014 C 
HETATM    7  C7  UNL     1      21.325   3.991  52.285  1.00  0.00     0.015 C 
HETATM    8  C8  UNL     1      22.592   3.902  51.774  1.00  0.00     0.004 C 
HETATM    9  C9  UNL     1      22.906   2.722  51.124  1.00  0.00     0.052 C 
HETATM   10  N1  UNL     1      23.454   3.078  49.819  1.00  0.00    -0.387 N 
HETATM   11  C10 UNL     1      23.008   2.365  48.663  1.00  0.00     0.139 C 
HETATM   12  C11 UNL     1      22.001   1.378  48.519  1.00  0.00     0.139 C 
HETATM   13  N2  UNL     1      20.991   1.009  49.490  1.00  0.00    -0.387 N 
HETATM   14  C12 UNL     1      21.375   1.240  50.851  1.00  0.00     0.051 C 
HETATM   15  C13 UNL     1      22.592   1.346  51.619  1.00  0.00     0.029 C 
HETATM   16  C14 UNL     1      23.356   0.549  52.654  1.00  0.00    -0.014 C 
HETATM   17  C15 UNL     1      24.552   0.872  52.482  1.00  0.00     0.027 C 
HETATM   18  H7  UNL     1      24.113   3.865  50.006  1.00  0.00     0.159 HD
HETATM   19  H12 UNL     1      20.048   0.639  49.715  1.00  0.00     0.159 HD
ENDROOT
BRANCH  17  20
HETATM   20  C16 UNL     1      25.921   0.719  52.897  1.00  0.00    -0.002 A 
HETATM   21  C17 UNL     1      26.331  -0.519  52.449  1.00  0.00     0.014 A 
HETATM   22  C18 UNL     1      27.624  -0.959  52.742  1.00  0.00     0.001 A 
HETATM   23  C19 UNL     1      28.479  -0.174  53.463  1.00  0.00     0.003 A 
HETATM   24  C20 UNL     1      28.095   1.064  53.920  1.00  0.00     0.037 A 
HETATM   25  C21 UNL     1      26.799   1.493  53.620  1.00  0.00     0.075 A 
BRANCH  25  26
HETATM   26  O1  UNL     1      26.186   2.705  53.975  1.00  0.00    -0.360 OA
HETATM   27  H18 UNL     1      25.814   2.757  54.926  1.00  0.00     0.217 HD
ENDBRANCH  25  26
ENDBRANCH  17  20
TORSDOF 2
ENDMDL
MODEL 2
REMARK VINA RESULT:      -8.8      2.645      5.270
REMARK  2 active torsions:
REMARK  status: ('A' for Active; 'I' for Inactive)
REMARK    1  A    between atoms: C15_17  and  C16_18 
REMARK    2  A    between atoms: C21_23  and  O1_24 
ROOT
HETATM    1  C1  UNL     1      21.119   0.956  49.338  1.00  0.00     0.050 C 
HETATM    2  C2  UNL     1      22.310   1.820  49.386  1.00  0.00    -0.040 C 
HETATM    3  C3  UNL     1      22.814   2.506  48.349  1.00  0.00    -0.018 C 
HETATM    4  C4  UNL     1      23.305   3.765  48.523  1.00  0.00     0.026 C 
HETATM    5  C5  UNL     1      24.139   4.003  49.793  1.00  0.00    -0.008 C 
HETATM    6  C6  UNL     1      23.800   5.302  50.279  1.00  0.00     0.014 C 
HETATM    7  C7  UNL     1      23.616   5.455  51.806  1.00  0.00     0.015 C 
HETATM    8  C8  UNL     1      23.603   4.497  52.785  1.00  0.00     0.004 C 
HETATM    9  C9  UNL     1      24.135   3.268  52.441  1.00  0.00     0.052 C 
HETATM   10  N1  UNL     1      25.112   2.915  53.468  1.00  0.00    -0.387 N 
HETATM   11  C10 UNL     1      26.382   2.396  53.067  1.00  0.00     0.139 C 
HETATM   12  C11 UNL     1      26.947   2.234  51.777  1.00  0.00     0.139 C 
HETATM   13  N2  UNL     1      26.458   2.788  50.531  1.00  0.00    -0.387 N 
HETATM   14  C12 UNL     1      25.045   3.025  50.510  1.00  0.00     0.051 C 
HETATM   15  C13 UNL     1      23.864   2.526  51.171  1.00  0.00     0.029 C 
HETATM   16  C14 UNL     1      22.652   1.679  50.848  1.00  0.00    -0.014 C 
HETATM   17  C15 UNL     1      22.335   1.152  51.937  1.00  0.00     0.027 C 
HETATM   18  H7  UNL     1      24.649   3.148  54.374  1.00  0.00     0.159 HD
HETATM   19  H12 UNL     1      26.630   3.136  49.568  1.00  0.00     0.159 HD
ENDROOT
BRANCH  17  20
HETATM   20  C16 UNL     1      21.433   0.285  52.647  1.00  0.00    -0.002 A 
HETATM   21  C17 UNL     1      22.204  -0.711  53.209  1.00  0.00     0.014 A 
HETATM   22  C18 UNL     1      21.584  -1.728  53.937  1.00  0.00     0.001 A 
HETATM   23  C19 UNL     1      20.227  -1.742  54.097  1.00  0.00     0.003 A 
HETATM   24  C20 UNL     1      19.436  -0.761  53.549  1.00  0.00     0.037 A 
HETATM   25  C21 UNL     1      20.068   0.253  52.822  1.00  0.00     0.075 A 
BRANCH  25  26
HETATM   26  O1  UNL     1      19.478   1.350  52.175  1.00  0.00    -0.360 OA
HETATM   27  H18 UNL     1      18.461   1.318  52.078  1.00  0.00     0.217 HD
ENDBRANCH  25  26
ENDBRANCH  17  20
TORSDOF 2
ENDMDL
MODEL 3
REMARK VINA RESULT:      -8.5      1.694      3.854
REMARK  2 active torsions:
REMARK  status: ('A' for Active; 'I' for Inactive)
REMARK    1  A    between atoms: C15_17  and  C16_18 
REMARK    2  A    between atoms: C21_23  and  O1_24 
ROOT
HETATM    1  C1  UNL     1      26.392   3.566  50.193  1.00  0.00     0.050 C 
HETATM    2  C2  UNL     1      24.949   3.732  49.951  1.00  0.00    -0.040 C 
HETATM    3  C3  UNL     1      24.404   4.566  49.051  1.00  0.00    -0.018 C 
HETATM    4  C4  UNL     1      23.318   4.187  48.322  1.00  0.00     0.026 C 
HETATM    5  C5  UNL     1      22.228   3.408  49.078  1.00  0.00    -0.008 C 
HETATM    6  C6  UNL     1      21.745   2.398  48.192  1.00  0.00     0.014 C 
HETATM    7  C7  UNL     1      21.491   0.997  48.796  1.00  0.00     0.015 C 
HETATM    8  C8  UNL     1      21.777   0.520  50.047  1.00  0.00     0.004 C 
HETATM    9  C9  UNL     1      22.032   1.471  51.018  1.00  0.00     0.052 C 
HETATM   10  N1  UNL     1      21.176   1.166  52.161  1.00  0.00    -0.387 N 
HETATM   11  C10 UNL     1      20.467   2.231  52.799  1.00  0.00     0.139 C 
HETATM   12  C11 UNL     1      20.357   3.602  52.456  1.00  0.00     0.139 C 
HETATM   13  N2  UNL     1      20.752   4.228  51.211  1.00  0.00    -0.387 N 
HETATM   14  C12 UNL     1      21.814   3.552  50.527  1.00  0.00     0.051 C 
HETATM   15  C13 UNL     1      22.910   2.671  50.853  1.00  0.00     0.029 C 
HETATM   16  C14 UNL     1      24.421   2.718  50.932  1.00  0.00    -0.014 C 
HETATM   17  C15 UNL     1      24.718   1.865  51.798  1.00  0.00     0.027 C 
HETATM   18  H7  UNL     1      21.248   0.132  52.285  1.00  0.00     0.159 HD
HETATM   19  H12 UNL     1      20.639   4.977  50.501  1.00  0.00     0.159 HD
ENDROOT
BRANCH  17  20
HETATM   20  C16 UNL     1      25.757   1.194  52.533  1.00  0.00    -0.002 A 
HETATM   21  C17 UNL     1      25.928  -0.038  51.936  1.00  0.00     0.014 A 
HETATM   22  C18 UNL     1      26.860  -0.932  52.466  1.00  0.00     0.001 A 
HETATM   23  C19 UNL     1      27.599  -0.596  53.565  1.00  0.00     0.003 A 
HETATM   24  C20 UNL     1      27.449   0.625  54.178  1.00  0.00     0.037 A 
HETATM   25  C21 UNL     1      26.513   1.512  53.637  1.00  0.00     0.075 A 
BRANCH  25  26
HETATM   26  O1  UNL     1      26.185   2.802  54.085  1.00  0.00    -0.360 OA
HETATM   27  H18 UNL     1      26.729   3.151  54.877  1.00  0.00     0.217 HD
ENDBRANCH  25  26
ENDBRANCH  17  20
TORSDOF 2
ENDMDL
MODEL 4
REMARK VINA RESULT:      -8.2      3.323      4.502
REMARK  2 active torsions:
REMARK  status: ('A' for Active; 'I' for Inactive)
REMARK    1  A    between atoms: C15_17  and  C16_18 
REMARK    2  A    between atoms: C21_23  and  O1_24 
ROOT
HETATM    1  C1  UNL     1      26.808   2.598  51.459  1.00  0.00     0.050 C 
HETATM    2  C2  UNL     1      25.423   2.104  51.403  1.00  0.00    -0.040 C 
HETATM    3  C3  UNL     1      24.945   1.053  52.088  1.00  0.00    -0.018 C 
HETATM    4  C4  UNL     1      23.697   1.089  52.632  1.00  0.00     0.026 C 
HETATM    5  C5  UNL     1      22.595   1.727  51.770  1.00  0.00    -0.008 C 
HETATM    6  C6  UNL     1      21.757   2.476  52.650  1.00  0.00     0.014 C 
HETATM    7  C7  UNL     1      21.289   3.866  52.162  1.00  0.00     0.015 C 
HETATM    8  C8  UNL     1      21.657   4.569  51.046  1.00  0.00     0.004 C 
HETATM    9  C9  UNL     1      22.278   3.844  50.046  1.00  0.00     0.052 C 
HETATM   10  N1  UNL     1      21.572   4.128  48.800  1.00  0.00    -0.387 N 
HETATM   11  C10 UNL     1      21.240   3.045  47.928  1.00  0.00     0.139 C 
HETATM   12  C11 UNL     1      21.394   1.646  48.096  1.00  0.00     0.139 C 
HETATM   13  N2  UNL     1      21.714   0.940  49.320  1.00  0.00    -0.387 N 
HETATM   14  C12 UNL     1      22.467   1.714  50.262  1.00  0.00     0.051 C 
HETATM   15  C13 UNL     1      23.369   2.840  50.247  1.00  0.00     0.029 C 
HETATM   16  C14 UNL     1      24.842   3.119  50.453  1.00  0.00    -0.014 C 
HETATM   17  C15 UNL     1      25.072   4.131  49.755  1.00  0.00     0.027 C 
HETATM   18  H7  UNL     1      21.424   5.162  48.802  1.00  0.00     0.159 HD
HETATM   19  H12 UNL     1      21.663   0.089  49.911  1.00  0.00     0.159 HD
ENDROOT
BRANCH  17  20
HETATM   20  C16 UNL     1      26.035   5.103  49.308  1.00  0.00    -0.002 A 
HETATM   21  C17 UNL     1      27.139   4.395  48.880  1.00  0.00     0.014 A 
HETATM   22  C18 UNL     1      28.260   5.087  48.419  1.00  0.00     0.001 A 
HETATM   23  C19 UNL     1      28.270   6.453  48.388  1.00  0.00     0.003 A 
HETATM   24  C20 UNL     1      27.183   7.182  48.807  1.00  0.00     0.037 A 
HETATM   25  C21 UNL     1      26.066   6.478  49.266  1.00  0.00     0.075 A 
BRANCH  25  26
HETATM   26  O1  UNL     1      24.851   6.997  49.741  1.00  0.00    -0.360 OA
HETATM   27  H18 UNL     1      24.599   6.740  50.698  1.00  0.00     0.217 HD
ENDBRANCH  25  26
ENDBRANCH  17  20
TORSDOF 2
ENDMDL
MODEL 5
REMARK VINA RESULT:      -8.0      2.403      4.521
REMARK  2 active torsions:
REMARK  status: ('A' for Active; 'I' for Inactive)
REMARK    1  A    between atoms: C15_17  and  C16_18 
REMARK    2  A    between atoms: C21_23  and  O1_24 
ROOT
HETATM    1  C1  UNL     1      23.990   3.674  52.979  1.00  0.00     0.050 C 
HETATM    2  C2  UNL     1      23.169   4.057  51.819  1.00  0.00    -0.040 C 
HETATM    3  C3  UNL     1      23.234   5.233  51.176  1.00  0.00    -0.018 C 
HETATM    4  C4  UNL     1      23.131   5.289  49.819  1.00  0.00     0.026 C 
HETATM    5  C5  UNL     1      22.076   4.371  49.177  1.00  0.00    -0.008 C 
HETATM    6  C6  UNL     1      22.643   3.865  47.969  1.00  0.00     0.014 C 
HETATM    7  C7  UNL     1      22.406   2.370  47.654  1.00  0.00     0.015 C 
HETATM    8  C8  UNL     1      21.831   1.396  48.426  1.00  0.00     0.004 C 
HETATM    9  C9  UNL     1      21.069   1.834  49.493  1.00  0.00     0.052 C 
HETATM   10  N1  UNL     1      19.774   1.165  49.407  1.00  0.00    -0.387 N 
HETATM   11  C10 UNL     1      18.584   1.932  49.602  1.00  0.00     0.139 C 
HETATM   12  C11 UNL     1      18.404   3.326  49.784  1.00  0.00     0.139 C 
HETATM   13  N2  UNL     1      19.385   4.371  49.575  1.00  0.00    -0.387 N 
HETATM   14  C12 UNL     1      20.742   3.943  49.748  1.00  0.00     0.051 C 
HETATM   15  C13 UNL     1      21.458   2.910  50.457  1.00  0.00     0.029 C 
HETATM   16  C14 UNL     1      22.385   2.781  51.646  1.00  0.00    -0.014 C 
HETATM   17  C15 UNL     1      22.186   1.625  52.078  1.00  0.00     0.027 C 
HETATM   18  H7  UNL     1      19.997   0.170  49.185  1.00  0.00     0.159 HD
HETATM   19  H12 UNL     1      19.622   5.353  49.335  1.00  0.00     0.159 HD
ENDROOT
BRANCH  17  20
HETATM   20  C16 UNL     1      22.522   0.618  53.051  1.00  0.00    -0.002 A 
HETATM   21  C17 UNL     1      21.375   0.374  53.777  1.00  0.00     0.014 A 
HETATM   22  C18 UNL     1      21.412  -0.545  54.827  1.00  0.00     0.001 A 
HETATM   23  C19 UNL     1      22.570  -1.199  55.138  1.00  0.00     0.003 A 
HETATM   24  C20 UNL     1      23.727  -0.975  54.430  1.00  0.00     0.037 A 
HETATM   25  C21 UNL     1      23.677  -0.053  53.380  1.00  0.00     0.075 A 
BRANCH  25  26
HETATM   26  O1  UNL     1      24.718   0.339  52.523  1.00  0.00    -0.360 OA
HETATM   27  H18 UNL     1      24.499   0.339  51.524  1.00  0.00     0.217 HD
ENDBRANCH  25  26
ENDBRANCH  17  20
TORSDOF 2
ENDMDL
MODEL 6
REMARK VINA RESULT:      -7.9      2.334      5.660
REMARK  2 active torsions:
REMARK  status: ('A' for Active; 'I' for Inactive)
REMARK    1  A    between atoms: C15_17  and  C16_18 
REMARK    2  A    between atoms: C21_23  and  O1_24 
ROOT
HETATM    1  C1  UNL     1      22.888  -0.981  53.346  1.00  0.00     0.050 C 
HETATM    2  C2  UNL     1      23.578   0.266  52.979  1.00  0.00    -0.040 C 
HETATM    3  C3  UNL     1      24.897   0.487  53.097  1.00  0.00    -0.018 C 
HETATM    4  C4  UNL     1      25.573   1.177  52.137  1.00  0.00     0.026 C 
HETATM    5  C5  UNL     1      24.861   2.410  51.554  1.00  0.00    -0.008 C 
HETATM    6  C6  UNL     1      25.147   2.436  50.156  1.00  0.00     0.014 C 
HETATM    7  C7  UNL     1      23.980   2.793  49.207  1.00  0.00     0.015 C 
HETATM    8  C8  UNL     1      22.652   2.973  49.486  1.00  0.00     0.004 C 
HETATM    9  C9  UNL     1      22.331   3.184  50.814  1.00  0.00     0.052 C 
HETATM   10  N1  UNL     1      21.505   4.387  50.876  1.00  0.00    -0.387 N 
HETATM   11  C10 UNL     1      21.782   5.367  51.879  1.00  0.00     0.139 C 
HETATM   12  C11 UNL     1      22.831   5.443  52.830  1.00  0.00     0.139 C 
HETATM   13  N2  UNL     1      24.043   4.650  52.863  1.00  0.00    -0.387 N 
HETATM   14  C12 UNL     1      23.913   3.357  52.257  1.00  0.00     0.051 C 
HETATM   15  C13 UNL     1      22.866   2.406  51.974  1.00  0.00     0.029 C 
HETATM   16  C14 UNL     1      22.401   1.050  52.459  1.00  0.00    -0.014 C 
HETATM   17  C15 UNL     1      21.169   1.043  52.243  1.00  0.00     0.027 C 
HETATM   18  H7  UNL     1      20.823   4.289  50.092  1.00  0.00     0.159 HD
HETATM   19  H12 UNL     1      25.043   4.539  53.118  1.00  0.00     0.159 HD
ENDROOT
BRANCH  17  20
HETATM   20  C16 UNL     1      19.929   0.317  52.315  1.00  0.00    -0.002 A 
HETATM   21  C17 UNL     1      19.318   0.458  51.086  1.00  0.00     0.014 A 
HETATM   22  C18 UNL     1      18.065  -0.120  50.875  1.00  0.00     0.001 A 
HETATM   23  C19 UNL     1      17.444  -0.820  51.870  1.00  0.00     0.003 A 
HETATM   24  C20 UNL     1      18.032  -0.977  53.103  1.00  0.00     0.037 A 
HETATM   25  C21 UNL     1      19.287  -0.394  53.303  1.00  0.00     0.075 A 
BRANCH  25  26
HETATM   26  O1  UNL     1      20.076  -0.417  54.464  1.00  0.00    -0.360 OA
HETATM   27  H18 UNL     1      20.147  -1.320  54.938  1.00  0.00     0.217 HD
ENDBRANCH  25  26
ENDBRANCH  17  20
TORSDOF 2
ENDMDL
MODEL 7
REMARK VINA RESULT:      -7.8      4.268      6.597
REMARK  2 active torsions:
REMARK  status: ('A' for Active; 'I' for Inactive)
REMARK    1  A    between atoms: C15_17  and  C16_18 
REMARK    2  A    between atoms: C21_23  and  O1_24 
ROOT
HETATM    1  C1  UNL     1      27.549   4.844  48.807  1.00  0.00     0.050 C 
HETATM    2  C2  UNL     1      26.534   3.941  49.375  1.00  0.00    -0.040 C 
HETATM    3  C3  UNL     1      26.728   2.647  49.676  1.00  0.00    -0.018 C 
HETATM    4  C4  UNL     1      26.182   2.108  50.801  1.00  0.00     0.026 C 
HETATM    5  C5  UNL     1      24.743   2.539  51.136  1.00  0.00    -0.008 C 
HETATM    6  C6  UNL     1      24.671   2.690  52.553  1.00  0.00     0.014 C 
HETATM    7  C7  UNL     1      23.895   3.914  53.091  1.00  0.00     0.015 C 
HETATM    8  C8  UNL     1      23.355   4.973  52.411  1.00  0.00     0.004 C 
HETATM    9  C9  UNL     1      23.185   4.800  51.050  1.00  0.00     0.052 C 
HETATM   10  N1  UNL     1      21.803   5.151  50.737  1.00  0.00    -0.387 N 
HETATM   11  C10 UNL     1      21.050   4.297  49.873  1.00  0.00     0.139 C 
HETATM   12  C11 UNL     1      21.380   3.044  49.298  1.00  0.00     0.139 C 
HETATM   13  N2  UNL     1      22.496   2.188  49.643  1.00  0.00    -0.387 N 
HETATM   14  C12 UNL     1      23.628   2.889  50.174  1.00  0.00     0.051 C 
HETATM   15  C13 UNL     1      24.194   4.215  50.113  1.00  0.00     0.029 C 
HETATM   16  C14 UNL     1      25.390   4.913  49.503  1.00  0.00    -0.014 C 
HETATM   17  C15 UNL     1      25.010   6.091  49.324  1.00  0.00     0.027 C 
HETATM   18  H7  UNL     1      21.619   6.031  51.268  1.00  0.00     0.159 HD
HETATM   19  H12 UNL     1      22.923   1.245  49.714  1.00  0.00     0.159 HD
ENDROOT
BRANCH  17  20
HETATM   20  C16 UNL     1      25.338   7.415  48.865  1.00  0.00    -0.002 A 
HETATM   21  C17 UNL     1      24.736   7.565  47.633  1.00  0.00     0.014 A 
HETATM   22  C18 UNL     1      24.914   8.754  46.924  1.00  0.00     0.001 A 
HETATM   23  C19 UNL     1      25.676   9.764  47.440  1.00  0.00     0.003 A 
HETATM   24  C20 UNL     1      26.286   9.641  48.666  1.00  0.00     0.037 A 
HETATM   25  C21 UNL     1      26.100   8.445  49.366  1.00  0.00     0.075 A 
BRANCH  25  26
HETATM   26  O1  UNL     1      26.616   8.089  50.622  1.00  0.00    -0.360 OA
HETATM   27  H18 UNL     1      26.192   7.270  51.064  1.00  0.00     0.217 HD
ENDBRANCH  25  26
ENDBRANCH  17  20
TORSDOF 2
ENDMDL
MODEL 8
REMARK VINA RESULT:      -7.7      9.907     12.629
REMARK  2 active torsions:
REMARK  status: ('A' for Active; 'I' for Inactive)
REMARK    1  A    between atoms: C15_17  and  C16_18 
REMARK    2  A    between atoms: C21_23  and  O1_24 
ROOT
HETATM    1  C1  UNL     1      30.746  10.027  47.666  1.00  0.00     0.050 C 
HETATM    2  C2  UNL     1      31.993   9.382  47.224  1.00  0.00    -0.040 C 
HETATM    3  C3  UNL     1      33.177   9.998  47.081  1.00  0.00    -0.018 C 
HETATM    4  C4  UNL     1      34.332   9.375  47.446  1.00  0.00     0.026 C 
HETATM    5  C5  UNL     1      34.444   7.883  47.089  1.00  0.00    -0.008 C 
HETATM    6  C6  UNL     1      35.095   7.238  48.184  1.00  0.00     0.014 C 
HETATM    7  C7  UNL     1      34.533   5.868  48.627  1.00  0.00     0.015 C 
HETATM    8  C8  UNL     1      33.408   5.209  48.210  1.00  0.00     0.004 C 
HETATM    9  C9  UNL     1      32.853   5.643  47.020  1.00  0.00     0.052 C 
HETATM   10  N1  UNL     1      32.672   4.470  46.171  1.00  0.00    -0.387 N 
HETATM   11  C10 UNL     1      33.059   4.542  44.797  1.00  0.00     0.139 C 
HETATM   12  C11 UNL     1      33.713   5.573  44.076  1.00  0.00     0.139 C 
HETATM   13  N2  UNL     1      34.378   6.738  44.622  1.00  0.00    -0.387 N 
HETATM   14  C12 UNL     1      33.863   7.166  45.889  1.00  0.00     0.051 C 
HETATM   15  C13 UNL     1      32.630   7.071  46.633  1.00  0.00     0.029 C 
HETATM   16  C14 UNL     1      31.492   7.970  47.066  1.00  0.00    -0.014 C 
HETATM   17  C15 UNL     1      30.505   7.207  47.158  1.00  0.00     0.027 C 
HETATM   18  H7  UNL     1      32.272   3.738  46.800  1.00  0.00     0.159 HD
HETATM   19  H12 UNL     1      35.105   7.476  44.557  1.00  0.00     0.159 HD
ENDROOT
BRANCH  17  20
HETATM   20  C16 UNL     1      29.108   7.064  47.472  1.00  0.00    -0.002 A 
HETATM   21  C17 UNL     1      28.434   7.977  46.688  1.00  0.00     0.014 A 
HETATM   22  C18 UNL     1      27.047   8.089  46.807  1.00  0.00     0.001 A 
HETATM   23  C19 UNL     1      26.359   7.305  47.688  1.00  0.00     0.003 A 
HETATM   24  C20 UNL     1      27.006   6.387  48.480  1.00  0.00     0.037 A 
HETATM   25  C21 UNL     1      28.395   6.283  48.352  1.00  0.00     0.075 A 
BRANCH  25  26
HETATM   26  O1  UNL     1      29.266   5.429  49.046  1.00  0.00    -0.360 OA
HETATM   27  H18 UNL     1      28.954   5.128  49.972  1.00  0.00     0.217 HD
ENDBRANCH  25  26
ENDBRANCH  17  20
TORSDOF 2
ENDMDL
MODEL 9
REMARK VINA RESULT:      -7.6      8.256     10.790
REMARK  2 active torsions:
REMARK  status: ('A' for Active; 'I' for Inactive)
REMARK    1  A    between atoms: C15_17  and  C16_18 
REMARK    2  A    between atoms: C21_23  and  O1_24 
ROOT
HETATM    1  C1  UNL     1      26.445   8.230  46.102  1.00  0.00     0.050 C 
HETATM    2  C2  UNL     1      27.908   8.385  46.052  1.00  0.00    -0.040 C 
HETATM    3  C3  UNL     1      28.599   8.903  45.024  1.00  0.00    -0.018 C 
HETATM    4  C4  UNL     1      29.669   9.716  45.246  1.00  0.00     0.026 C 
HETATM    5  C5  UNL     1      30.613   9.304  46.389  1.00  0.00    -0.008 C 
HETATM    6  C6  UNL     1      31.016  10.502  47.051  1.00  0.00     0.014 C 
HETATM    7  C7  UNL     1      31.064  10.469  48.596  1.00  0.00     0.015 C 
HETATM    8  C8  UNL     1      30.654   9.491  49.462  1.00  0.00     0.004 C 
HETATM    9  C9  UNL     1      30.464   8.234  48.916  1.00  0.00     0.052 C 
HETATM   10  N1  UNL     1      31.213   7.286  49.736  1.00  0.00    -0.387 N 
HETATM   11  C10 UNL     1      32.011   6.291  49.091  1.00  0.00     0.139 C 
HETATM   12  C11 UNL     1      32.306   6.092  47.718  1.00  0.00     0.139 C 
HETATM   13  N2  UNL     1      32.059   7.012  46.627  1.00  0.00    -0.387 N 
HETATM   14  C12 UNL     1      30.961   7.905  46.851  1.00  0.00     0.051 C 
HETATM   15  C13 UNL     1      29.750   7.940  47.635  1.00  0.00     0.029 C 
HETATM   16  C14 UNL     1      28.255   7.856  47.420  1.00  0.00    -0.014 C 
HETATM   17  C15 UNL     1      27.809   7.376  48.485  1.00  0.00     0.027 C 
HETATM   18  H7  UNL     1      31.010   7.560  50.722  1.00  0.00     0.159 HD
HETATM   19  H12 UNL     1      32.301   7.388  45.690  1.00  0.00     0.159 HD
ENDROOT
BRANCH  17  20
HETATM   20  C16 UNL     1      26.657   6.952  49.236  1.00  0.00    -0.002 A 
HETATM   21  C17 UNL     1      26.338   5.687  48.788  1.00  0.00     0.014 A 
HETATM   22  C18 UNL     1      25.226   5.032  49.320  1.00  0.00     0.001 A 
HETATM   23  C19 UNL     1      24.457   5.632  50.277  1.00  0.00     0.003 A 
HETATM   24  C20 UNL     1      24.753   6.892  50.741  1.00  0.00     0.037 A 
HETATM   25  C21 UNL     1      25.869   7.537  50.201  1.00  0.00     0.075 A 
BRANCH  25  26
HETATM   26  O1  UNL     1      26.365   8.813  50.512  1.00  0.00    -0.360 OA
HETATM   27  H18 UNL     1      26.183   9.545  49.821  1.00  0.00     0.217 HD
ENDBRANCH  25  26
ENDBRANCH  17  20
TORSDOF 2
ENDMDL
