MODEL 1
REMARK VINA RESULT:      -7.3      0.000      0.000
REMARK  7 active torsions:
REMARK  status: ('A' for Active; 'I' for Inactive)
REMARK    1  A    between atoms: C2_2  and  C3_3 
REMARK    2  A    between atoms: C3_3  and  C4_4 
REMARK    3  A    between atoms: C4_4  and  C5_5 
REMARK    4  A    between atoms: C5_5  and  C6_6 
REMARK    5  A    between atoms: C6_6  and  O1_7 
REMARK    6  A    between atoms: O1_7  and  C7_8 
REMARK    7  A    between atoms: C19_25  and  O2_26 
ROOT
HETATM    1  C7  UNL     1      21.205   4.688  51.556  1.00  0.00     0.077 C 
HETATM    2  C8  UNL     1      22.190   4.023  52.156  1.00  0.00     0.039 C 
HETATM    3  C9  UNL     1      23.524   4.703  52.343  1.00  0.00     0.159 C 
HETATM    4  N1  UNL     1      24.392   3.794  53.016  1.00  0.00    -0.374 N 
HETATM    5  C10 UNL     1      25.264   2.679  52.720  1.00  0.00     0.057 A 
HETATM    6  C11 UNL     1      25.305   1.814  53.820  1.00  0.00     0.058 A 
HETATM    7  C12 UNL     1      26.062   0.683  53.770  1.00  0.00     0.074 A 
HETATM    8 CL1  UNL     1      26.087  -0.372  55.160  1.00  0.00    -0.081 Cl
HETATM    9  C13 UNL     1      26.794   0.389  52.627  1.00  0.00     0.140 A 
HETATM   10  F1  UNL     1      27.557  -0.737  52.555  1.00  0.00    -0.204 F 
HETATM   11  C14 UNL     1      26.772   1.217  51.538  1.00  0.00     0.075 A 
HETATM   12  C15 UNL     1      26.005   2.363  51.590  1.00  0.00     0.062 A 
HETATM   13  N2  UNL     1      26.231   2.948  50.314  1.00  0.00    -0.349 N 
HETATM   14  C16 UNL     1      25.881   4.232  49.833  1.00  0.00     0.208 C 
HETATM   15  N3  UNL     1      24.981   5.126  50.093  1.00  0.00    -0.246 NA
HETATM   16  C17 UNL     1      23.931   5.160  51.023  1.00  0.00     0.061 C 
HETATM   17  C18 UNL     1      23.021   5.880  50.399  1.00  0.00     0.041 C 
HETATM   18  C19 UNL     1      21.444   6.311  50.995  1.00  0.00     0.202 C 
HETATM   19  H16 UNL     1      24.454   3.930  54.073  1.00  0.00     0.160 HD
HETATM   20  H19 UNL     1      26.728   2.378  49.590  1.00  0.00     0.167 HD
ENDROOT
BRANCH   1  21
HETATM   21  O1  UNL     1      20.110   3.799  51.536  1.00  0.00    -0.353 OA
BRANCH  21  22
HETATM   22  C6  UNL     1      20.186   2.589  52.321  1.00  0.00     0.175 C 
BRANCH  22  23
HETATM   23  C5  UNL     1      19.808   1.484  51.394  1.00  0.00     0.027 C 
BRANCH  23  24
HETATM   24  C4  UNL     1      20.791   0.397  51.337  1.00  0.00     0.002 C 
BRANCH  24  25
HETATM   25  C3  UNL     1      22.089   0.458  52.004  1.00  0.00    -0.000 C 
BRANCH  25  26
HETATM   26  C2  UNL     1      22.477  -0.511  53.046  1.00  0.00    -0.005 C 
HETATM   27  C1  UNL     1      21.762  -0.326  54.366  1.00  0.00     0.005 C 
ENDBRANCH  25  26
ENDBRANCH  24  25
ENDBRANCH  23  24
ENDBRANCH  22  23
ENDBRANCH  21  22
ENDBRANCH   1  21
BRANCH  18  28
HETATM   28  O2  UNL     1      20.886   6.112  49.855  1.00  0.00    -0.380 OA
HETATM   29  C20 UNL     1      19.913   6.785  49.246  1.00  0.00     0.202 C 
ENDBRANCH  18  28
TORSDOF 7
ENDMDL
MODEL 2
REMARK VINA RESULT:      -6.9      3.831      6.985
REMARK  7 active torsions:
REMARK  status: ('A' for Active; 'I' for Inactive)
REMARK    1  A    between atoms: C2_2  and  C3_3 
REMARK    2  A    between atoms: C3_3  and  C4_4 
REMARK    3  A    between atoms: C4_4  and  C5_5 
REMARK    4  A    between atoms: C5_5  and  C6_6 
REMARK    5  A    between atoms: C6_6  and  O1_7 
REMARK    6  A    between atoms: O1_7  and  C7_8 
REMARK    7  A    between atoms: C19_25  and  O2_26 
ROOT
HETATM    1  C7  UNL     1      26.609   2.472  52.019  1.00  0.00     0.077 C 
HETATM    2  C8  UNL     1      25.302   2.664  51.852  1.00  0.00     0.039 C 
HETATM    3  C9  UNL     1      24.375   2.438  53.021  1.00  0.00     0.159 C 
HETATM    4  N1  UNL     1      23.046   2.721  52.590  1.00  0.00    -0.374 N 
HETATM    5  C10 UNL     1      21.951   2.078  51.897  1.00  0.00     0.057 A 
HETATM    6  C11 UNL     1      21.204   3.042  51.210  1.00  0.00     0.058 A 
HETATM    7  C12 UNL     1      20.119   2.668  50.476  1.00  0.00     0.074 A 
HETATM    8 CL1  UNL     1      19.214   3.897  49.632  1.00  0.00    -0.081 Cl
HETATM    9  C13 UNL     1      19.755   1.329  50.410  1.00  0.00     0.140 A 
HETATM   10  F1  UNL     1      18.675   0.932  49.681  1.00  0.00    -0.204 F 
HETATM   11  C14 UNL     1      20.468   0.367  51.073  1.00  0.00     0.075 A 
HETATM   12  C15 UNL     1      21.566   0.748  51.816  1.00  0.00     0.062 A 
HETATM   13  N2  UNL     1      22.031  -0.489  52.341  1.00  0.00    -0.349 N 
HETATM   14  C16 UNL     1      23.005  -0.741  53.336  1.00  0.00     0.208 C 
HETATM   15  N3  UNL     1      24.047  -0.136  53.813  1.00  0.00    -0.246 NA
HETATM   16  C17 UNL     1      24.649   1.091  53.497  1.00  0.00     0.061 C 
HETATM   17  C18 UNL     1      25.921   0.855  53.743  1.00  0.00     0.041 C 
HETATM   18  C19 UNL     1      27.244   1.971  53.553  1.00  0.00     0.202 C 
HETATM   19  H16 UNL     1      22.697   3.703  52.822  1.00  0.00     0.160 HD
HETATM   20  H19 UNL     1      21.618  -1.374  51.963  1.00  0.00     0.167 HD
ENDROOT
BRANCH   1  21
HETATM   21  O1  UNL     1      27.193   2.760  50.767  1.00  0.00    -0.353 OA
BRANCH  21  22
HETATM   22  C6  UNL     1      26.343   3.229  49.698  1.00  0.00     0.175 C 
BRANCH  22  23
HETATM   23  C5  UNL     1      27.098   4.332  49.037  1.00  0.00     0.027 C 
BRANCH  23  24
HETATM   24  C4  UNL     1      26.359   5.597  48.971  1.00  0.00     0.002 C 
BRANCH  24  25
HETATM   25  C3  UNL     1      24.966   5.732  49.389  1.00  0.00    -0.000 C 
BRANCH  25  26
HETATM   26  C2  UNL     1      23.857   5.738  48.417  1.00  0.00    -0.005 C 
HETATM   27  C1  UNL     1      23.055   4.456  48.379  1.00  0.00     0.005 C 
ENDBRANCH  25  26
ENDBRANCH  24  25
ENDBRANCH  23  24
ENDBRANCH  22  23
ENDBRANCH  21  22
ENDBRANCH   1  21
BRANCH  18  28
HETATM   28  O2  UNL     1      28.018   1.072  53.059  1.00  0.00    -0.380 OA
HETATM   29  C20 UNL     1      29.178   0.599  53.505  1.00  0.00     0.202 C 
ENDBRANCH  18  28
TORSDOF 7
ENDMDL
MODEL 3
REMARK VINA RESULT:      -6.9      2.112      4.685
REMARK  7 active torsions:
REMARK  status: ('A' for Active; 'I' for Inactive)
REMARK    1  A    between atoms: C2_2  and  C3_3 
REMARK    2  A    between atoms: C3_3  and  C4_4 
REMARK    3  A    between atoms: C4_4  and  C5_5 
REMARK    4  A    between atoms: C5_5  and  C6_6 
REMARK    5  A    between atoms: C6_6  and  O1_7 
REMARK    6  A    between atoms: O1_7  and  C7_8 
REMARK    7  A    between atoms: C19_25  and  O2_26 
ROOT
HETATM    1  C7  UNL     1      22.104   3.772  51.298  1.00  0.00     0.077 C 
HETATM    2  C8  UNL     1      23.253   3.140  51.530  1.00  0.00     0.039 C 
HETATM    3  C9  UNL     1      23.378   1.685  51.151  1.00  0.00     0.159 C 
HETATM    4  N1  UNL     1      24.695   1.253  51.488  1.00  0.00    -0.374 N 
HETATM    5  C10 UNL     1      25.441   0.779  52.632  1.00  0.00     0.057 A 
HETATM    6  C11 UNL     1      26.783   1.153  52.503  1.00  0.00     0.058 A 
HETATM    7  C12 UNL     1      27.681   0.818  53.470  1.00  0.00     0.074 A 
HETATM    8 CL1  UNL     1      29.345   1.303  53.274  1.00  0.00    -0.081 Cl
HETATM    9  C13 UNL     1      27.264   0.105  54.587  1.00  0.00     0.140 A 
HETATM   10  F1  UNL     1      28.144  -0.239  55.567  1.00  0.00    -0.204 F 
HETATM   11  C14 UNL     1      25.957  -0.274  54.738  1.00  0.00     0.075 A 
HETATM   12  C15 UNL     1      25.049   0.065  53.756  1.00  0.00     0.062 A 
HETATM   13  N2  UNL     1      23.834  -0.484  54.251  1.00  0.00    -0.349 N 
HETATM   14  C16 UNL     1      22.584  -0.641  53.608  1.00  0.00     0.208 C 
HETATM   15  N3  UNL     1      21.941  -0.070  52.640  1.00  0.00    -0.246 NA
HETATM   16  C17 UNL     1      22.268   1.004  51.799  1.00  0.00     0.061 C 
HETATM   17  C18 UNL     1      21.091   1.544  51.556  1.00  0.00     0.041 C 
HETATM   18  C19 UNL     1      20.768   2.941  50.570  1.00  0.00     0.202 C 
HETATM   19  H16 UNL     1      25.393   1.267  50.680  1.00  0.00     0.160 HD
HETATM   20  H19 UNL     1      23.817  -0.839  55.236  1.00  0.00     0.167 HD
ENDROOT
BRANCH   1  21
HETATM   21  O1  UNL     1      22.303   5.092  51.753  1.00  0.00    -0.353 OA
BRANCH  21  22
HETATM   22  C6  UNL     1      23.597   5.704  51.557  1.00  0.00     0.175 C 
BRANCH  22  23
HETATM   23  C5  UNL     1      23.510   6.420  50.252  1.00  0.00     0.027 C 
BRANCH  23  24
HETATM   24  C4  UNL     1      24.400   5.877  49.220  1.00  0.00     0.002 C 
BRANCH  24  25
HETATM   25  C3  UNL     1      25.839   6.124  49.194  1.00  0.00    -0.000 C 
BRANCH  25  26
HETATM   26  C2  UNL     1      26.809   5.051  48.911  1.00  0.00    -0.005 C 
HETATM   27  C1  UNL     1      26.486   3.728  49.571  1.00  0.00     0.005 C 
ENDBRANCH  25  26
ENDBRANCH  24  25
ENDBRANCH  23  24
ENDBRANCH  22  23
ENDBRANCH  21  22
ENDBRANCH   1  21
BRANCH  18  28
HETATM   28  O2  UNL     1      19.896   3.403  51.393  1.00  0.00    -0.380 OA
HETATM   29  C20 UNL     1      18.659   3.841  51.177  1.00  0.00     0.202 C 
ENDBRANCH  18  28
TORSDOF 7
ENDMDL
MODEL 4
REMARK VINA RESULT:      -6.9      1.350      1.804
REMARK  7 active torsions:
REMARK  status: ('A' for Active; 'I' for Inactive)
REMARK    1  A    between atoms: C2_2  and  C3_3 
REMARK    2  A    between atoms: C3_3  and  C4_4 
REMARK    3  A    between atoms: C4_4  and  C5_5 
REMARK    4  A    between atoms: C5_5  and  C6_6 
REMARK    5  A    between atoms: C6_6  and  O1_7 
REMARK    6  A    between atoms: O1_7  and  C7_8 
REMARK    7  A    between atoms: C19_25  and  O2_26 
ROOT
HETATM    1  C7  UNL     1      21.200   5.221  51.191  1.00  0.00     0.077 C 
HETATM    2  C8  UNL     1      22.074   4.409  51.782  1.00  0.00     0.039 C 
HETATM    3  C9  UNL     1      23.417   4.958  52.197  1.00  0.00     0.159 C 
HETATM    4  N1  UNL     1      24.153   3.902  52.812  1.00  0.00    -0.374 N 
HETATM    5  C10 UNL     1      24.986   2.779  52.443  1.00  0.00     0.057 A 
HETATM    6  C11 UNL     1      24.858   1.768  53.403  1.00  0.00     0.058 A 
HETATM    7  C12 UNL     1      25.550   0.603  53.264  1.00  0.00     0.074 A 
HETATM    8 CL1  UNL     1      25.363  -0.634  54.479  1.00  0.00    -0.081 Cl
HETATM    9  C13 UNL     1      26.382   0.419  52.168  1.00  0.00     0.140 A 
HETATM   10  F1  UNL     1      27.082  -0.738  52.007  1.00  0.00    -0.204 F 
HETATM   11  C14 UNL     1      26.527   1.391  51.215  1.00  0.00     0.075 A 
HETATM   12  C15 UNL     1      25.826   2.571  51.359  1.00  0.00     0.062 A 
HETATM   13  N2  UNL     1      26.222   3.311  50.210  1.00  0.00    -0.349 N 
HETATM   14  C16 UNL     1      26.001   4.671  49.890  1.00  0.00     0.208 C 
HETATM   15  N3  UNL     1      25.131   5.583  50.189  1.00  0.00    -0.246 NA
HETATM   16  C17 UNL     1      23.990   5.563  51.005  1.00  0.00     0.061 C 
HETATM   17  C18 UNL     1      23.197   6.428  50.406  1.00  0.00     0.041 C 
HETATM   18  C19 UNL     1      21.592   6.885  50.900  1.00  0.00     0.202 C 
HETATM   19  H16 UNL     1      24.108   3.885  53.878  1.00  0.00     0.160 HD
HETATM   20  H19 UNL     1      26.761   2.813  49.463  1.00  0.00     0.167 HD
ENDROOT
BRANCH   1  21
HETATM   21  O1  UNL     1      20.064   4.426  50.933  1.00  0.00    -0.353 OA
BRANCH  21  22
HETATM   22  C6  UNL     1      19.771   3.327  51.823  1.00  0.00     0.175 C 
BRANCH  22  23
HETATM   23  C5  UNL     1      19.208   2.249  50.960  1.00  0.00     0.027 C 
BRANCH  23  24
HETATM   24  C4  UNL     1      19.725   2.261  49.588  1.00  0.00     0.002 C 
BRANCH  24  25
HETATM   25  C3  UNL     1      20.815   1.401  49.136  1.00  0.00    -0.000 C 
BRANCH  25  26
HETATM   26  C2  UNL     1      22.212   1.632  49.546  1.00  0.00    -0.005 C 
HETATM   27  C1  UNL     1      22.937   2.678  48.728  1.00  0.00     0.005 C 
ENDBRANCH  25  26
ENDBRANCH  24  25
ENDBRANCH  23  24
ENDBRANCH  22  23
ENDBRANCH  21  22
ENDBRANCH   1  21
BRANCH  18  28
HETATM   28  O2  UNL     1      21.150   6.888  49.694  1.00  0.00    -0.380 OA
HETATM   29  C20 UNL     1      20.299   7.716  49.094  1.00  0.00     0.202 C 
ENDBRANCH  18  28
TORSDOF 7
ENDMDL
MODEL 5
REMARK VINA RESULT:      -6.8      7.414      9.388
REMARK  7 active torsions:
REMARK  status: ('A' for Active; 'I' for Inactive)
REMARK    1  A    between atoms: C2_2  and  C3_3 
REMARK    2  A    between atoms: C3_3  and  C4_4 
REMARK    3  A    between atoms: C4_4  and  C5_5 
REMARK    4  A    between atoms: C5_5  and  C6_6 
REMARK    5  A    between atoms: C6_6  and  O1_7 
REMARK    6  A    between atoms: O1_7  and  C7_8 
REMARK    7  A    between atoms: C19_25  and  O2_26 
ROOT
HETATM    1  C7  UNL     1      29.438   8.246  48.377  1.00  0.00     0.077 C 
HETATM    2  C8  UNL     1      30.156   7.125  48.322  1.00  0.00     0.039 C 
HETATM    3  C9  UNL     1      31.392   7.005  49.179  1.00  0.00     0.159 C 
HETATM    4  N1  UNL     1      31.965   5.721  48.948  1.00  0.00    -0.374 N 
HETATM    5  C10 UNL     1      32.838   5.056  48.005  1.00  0.00     0.057 A 
HETATM    6  C11 UNL     1      32.495   3.701  47.926  1.00  0.00     0.058 A 
HETATM    7  C12 UNL     1      33.181   2.872  47.092  1.00  0.00     0.074 A 
HETATM    8 CL1  UNL     1      32.724   1.190  47.020  1.00  0.00    -0.081 Cl
HETATM    9  C13 UNL     1      34.221   3.371  46.319  1.00  0.00     0.140 A 
HETATM   10  F1  UNL     1      34.919   2.560  45.477  1.00  0.00    -0.204 F 
HETATM   11  C14 UNL     1      34.577   4.691  46.376  1.00  0.00     0.075 A 
HETATM   12  C15 UNL     1      33.882   5.530  47.223  1.00  0.00     0.062 A 
HETATM   13  N2  UNL     1      34.521   6.784  47.014  1.00  0.00    -0.349 N 
HETATM   14  C16 UNL     1      34.394   7.995  47.735  1.00  0.00     0.208 C 
HETATM   15  N3  UNL     1      33.497   8.565  48.474  1.00  0.00    -0.246 NA
HETATM   16  C17 UNL     1      32.211   8.166  48.868  1.00  0.00     0.061 C 
HETATM   17  C18 UNL     1      31.575   9.316  48.967  1.00  0.00     0.041 C 
HETATM   18  C19 UNL     1      29.910   9.550  49.417  1.00  0.00     0.202 C 
HETATM   19  H16 UNL     1      31.699   4.974  49.663  1.00  0.00     0.160 HD
HETATM   20  H19 UNL     1      35.195   6.868  46.218  1.00  0.00     0.167 HD
ENDROOT
BRANCH   1  21
HETATM   21  O1  UNL     1      28.367   8.050  47.480  1.00  0.00    -0.353 OA
BRANCH  21  22
HETATM   22  C6  UNL     1      27.026   8.344  47.927  1.00  0.00     0.175 C 
BRANCH  22  23
HETATM   23  C5  UNL     1      26.274   7.061  47.815  1.00  0.00     0.027 C 
BRANCH  23  24
HETATM   24  C4  UNL     1      26.494   6.147  48.941  1.00  0.00     0.002 C 
BRANCH  24  25
HETATM   25  C3  UNL     1      27.211   4.881  48.815  1.00  0.00    -0.000 C 
BRANCH  25  26
HETATM   26  C2  UNL     1      26.684   3.627  49.384  1.00  0.00    -0.005 C 
HETATM   27  C1  UNL     1      25.560   3.818  50.379  1.00  0.00     0.005 C 
ENDBRANCH  25  26
ENDBRANCH  24  25
ENDBRANCH  23  24
ENDBRANCH  22  23
ENDBRANCH  21  22
ENDBRANCH   1  21
BRANCH  18  28
HETATM   28  O2  UNL     1      29.729  10.462  48.530  1.00  0.00    -0.380 OA
HETATM   29  C20 UNL     1      29.315  11.720  48.664  1.00  0.00     0.202 C 
ENDBRANCH  18  28
TORSDOF 7
ENDMDL
MODEL 6
REMARK VINA RESULT:      -6.7      6.600      9.902
REMARK  7 active torsions:
REMARK  status: ('A' for Active; 'I' for Inactive)
REMARK    1  A    between atoms: C2_2  and  C3_3 
REMARK    2  A    between atoms: C3_3  and  C4_4 
REMARK    3  A    between atoms: C4_4  and  C5_5 
REMARK    4  A    between atoms: C5_5  and  C6_6 
REMARK    5  A    between atoms: C6_6  and  O1_7 
REMARK    6  A    between atoms: O1_7  and  C7_8 
REMARK    7  A    between atoms: C19_25  and  O2_26 
ROOT
HETATM    1  C7  UNL     1      30.883   6.105  48.281  1.00  0.00     0.077 C 
HETATM    2  C8  UNL     1      29.564   5.930  48.320  1.00  0.00     0.039 C 
HETATM    3  C9  UNL     1      28.664   7.047  47.849  1.00  0.00     0.159 C 
HETATM    4  N1  UNL     1      27.313   6.608  47.979  1.00  0.00    -0.374 N 
HETATM    5  C10 UNL     1      26.278   6.511  48.983  1.00  0.00     0.057 A 
HETATM    6  C11 UNL     1      25.446   5.423  48.692  1.00  0.00     0.058 A 
HETATM    7  C12 UNL     1      24.396   5.130  49.509  1.00  0.00     0.074 A 
HETATM    8 CL1  UNL     1      23.382   3.766  49.114  1.00  0.00    -0.081 Cl
HETATM    9  C13 UNL     1      24.152   5.910  50.631  1.00  0.00     0.140 A 
HETATM   10  F1  UNL     1      23.109   5.634  51.462  1.00  0.00    -0.204 F 
HETATM   11  C14 UNL     1      24.949   6.979  50.939  1.00  0.00     0.075 A 
HETATM   12  C15 UNL     1      26.011   7.276  50.110  1.00  0.00     0.062 A 
HETATM   13  N2  UNL     1      26.586   8.416  50.735  1.00  0.00    -0.349 N 
HETATM   14  C16 UNL     1      27.582   9.303  50.261  1.00  0.00     0.208 C 
HETATM   15  N3  UNL     1      28.567   9.255  49.422  1.00  0.00    -0.246 NA
HETATM   16  C17 UNL     1      29.057   8.226  48.604  1.00  0.00     0.061 C 
HETATM   17  C18 UNL     1      30.347   8.492  48.554  1.00  0.00     0.041 C 
HETATM   18  C19 UNL     1      31.564   7.589  47.698  1.00  0.00     0.202 C 
HETATM   19  H16 UNL     1      26.880   6.217  47.085  1.00  0.00     0.160 HD
HETATM   20  H19 UNL     1      26.252   8.676  51.693  1.00  0.00     0.167 HD
ENDROOT
BRANCH   1  21
HETATM   21  O1  UNL     1      31.435   4.905  48.775  1.00  0.00    -0.353 OA
BRANCH  21  22
HETATM   22  C6  UNL     1      32.556   4.319  48.078  1.00  0.00     0.175 C 
BRANCH  22  23
HETATM   23  C5  UNL     1      31.997   3.765  46.811  1.00  0.00     0.027 C 
BRANCH  23  24
HETATM   24  C4  UNL     1      32.778   4.111  45.619  1.00  0.00     0.002 C 
BRANCH  24  25
HETATM   25  C3  UNL     1      32.945   5.482  45.143  1.00  0.00    -0.000 C 
BRANCH  25  26
HETATM   26  C2  UNL     1      33.089   5.797  43.710  1.00  0.00    -0.005 C 
HETATM   27  C1  UNL     1      33.384   4.599  42.835  1.00  0.00     0.005 C 
ENDBRANCH  25  26
ENDBRANCH  24  25
ENDBRANCH  23  24
ENDBRANCH  22  23
ENDBRANCH  21  22
ENDBRANCH   1  21
BRANCH  18  28
HETATM   28  O2  UNL     1      32.413   7.699  48.656  1.00  0.00    -0.380 OA
HETATM   29  C20 UNL     1      33.725   7.920  48.620  1.00  0.00     0.202 C 
ENDBRANCH  18  28
TORSDOF 7
ENDMDL
MODEL 7
REMARK VINA RESULT:      -6.7      3.835      6.375
REMARK  7 active torsions:
REMARK  status: ('A' for Active; 'I' for Inactive)
REMARK    1  A    between atoms: C2_2  and  C3_3 
REMARK    2  A    between atoms: C3_3  and  C4_4 
REMARK    3  A    between atoms: C4_4  and  C5_5 
REMARK    4  A    between atoms: C5_5  and  C6_6 
REMARK    5  A    between atoms: C6_6  and  O1_7 
REMARK    6  A    between atoms: O1_7  and  C7_8 
REMARK    7  A    between atoms: C19_25  and  O2_26 
ROOT
HETATM    1  C7  UNL     1      24.293   1.953  52.844  1.00  0.00     0.077 C 
HETATM    2  C8  UNL     1      24.511   3.186  52.393  1.00  0.00     0.039 C 
HETATM    3  C9  UNL     1      23.330   4.088  52.129  1.00  0.00     0.159 C 
HETATM    4  N1  UNL     1      23.828   5.343  51.671  1.00  0.00    -0.374 N 
HETATM    5  C10 UNL     1      24.284   5.969  50.449  1.00  0.00     0.057 A 
HETATM    6  C11 UNL     1      25.239   6.946  50.754  1.00  0.00     0.058 A 
HETATM    7  C12 UNL     1      25.818   7.669  49.755  1.00  0.00     0.074 A 
HETATM    8 CL1  UNL     1      27.006   8.876  50.173  1.00  0.00    -0.081 Cl
HETATM    9  C13 UNL     1      25.460   7.436  48.434  1.00  0.00     0.140 A 
HETATM   10  F1  UNL     1      26.027   8.145  47.419  1.00  0.00    -0.204 F 
HETATM   11  C14 UNL     1      24.529   6.487  48.108  1.00  0.00     0.075 A 
HETATM   12  C15 UNL     1      23.942   5.757  49.121  1.00  0.00     0.062 A 
HETATM   13  N2  UNL     1      23.055   4.898  48.415  1.00  0.00    -0.349 N 
HETATM   14  C16 UNL     1      22.032   4.053  48.904  1.00  0.00     0.208 C 
HETATM   15  N3  UNL     1      21.769   3.429  50.009  1.00  0.00    -0.246 NA
HETATM   16  C17 UNL     1      22.455   3.351  51.230  1.00  0.00     0.061 C 
HETATM   17  C18 UNL     1      22.148   2.141  51.651  1.00  0.00     0.041 C 
HETATM   18  C19 UNL     1      22.680   1.384  53.126  1.00  0.00     0.202 C 
HETATM   19  H16 UNL     1      23.916   6.094  52.424  1.00  0.00     0.160 HD
HETATM   20  H19 UNL     1      23.137   4.854  47.372  1.00  0.00     0.167 HD
ENDROOT
BRANCH   1  21
HETATM   21  O1  UNL     1      25.572   1.375  52.991  1.00  0.00    -0.353 OA
BRANCH  21  22
HETATM   22  C6  UNL     1      26.660   1.891  52.192  1.00  0.00     0.175 C 
BRANCH  22  23
HETATM   23  C5  UNL     1      27.877   1.770  53.046  1.00  0.00     0.027 C 
BRANCH  23  24
HETATM   24  C4  UNL     1      27.737   0.805  54.141  1.00  0.00     0.002 C 
BRANCH  24  25
HETATM   25  C3  UNL     1      28.839  -0.023  54.623  1.00  0.00    -0.000 C 
BRANCH  25  26
HETATM   26  C2  UNL     1      29.741  -0.736  53.699  1.00  0.00    -0.005 C 
HETATM   27  C1  UNL     1      29.227  -2.084  53.243  1.00  0.00     0.005 C 
ENDBRANCH  25  26
ENDBRANCH  24  25
ENDBRANCH  23  24
ENDBRANCH  22  23
ENDBRANCH  21  22
ENDBRANCH   1  21
BRANCH  18  28
HETATM   28  O2  UNL     1      22.866   0.249  52.554  1.00  0.00    -0.380 OA
HETATM   29  C20 UNL     1      22.557  -0.979  52.962  1.00  0.00     0.202 C 
ENDBRANCH  18  28
TORSDOF 7
ENDMDL
MODEL 8
REMARK VINA RESULT:      -6.7      3.549      6.530
REMARK  7 active torsions:
REMARK  status: ('A' for Active; 'I' for Inactive)
REMARK    1  A    between atoms: C2_2  and  C3_3 
REMARK    2  A    between atoms: C3_3  and  C4_4 
REMARK    3  A    between atoms: C4_4  and  C5_5 
REMARK    4  A    between atoms: C5_5  and  C6_6 
REMARK    5  A    between atoms: C6_6  and  O1_7 
REMARK    6  A    between atoms: O1_7  and  C7_8 
REMARK    7  A    between atoms: C19_25  and  O2_26 
ROOT
HETATM    1  C7  UNL     1      26.376   5.895  48.761  1.00  0.00     0.077 C 
HETATM    2  C8  UNL     1      26.379   4.730  49.405  1.00  0.00     0.039 C 
HETATM    3  C9  UNL     1      25.067   4.026  49.649  1.00  0.00     0.159 C 
HETATM    4  N1  UNL     1      25.341   2.808  50.337  1.00  0.00    -0.374 N 
HETATM    5  C10 UNL     1      25.580   2.331  51.681  1.00  0.00     0.057 A 
HETATM    6  C11 UNL     1      26.422   1.213  51.638  1.00  0.00     0.058 A 
HETATM    7  C12 UNL     1      26.792   0.593  52.792  1.00  0.00     0.074 A 
HETATM    8 CL1  UNL     1      27.844  -0.796  52.697  1.00  0.00    -0.081 Cl
HETATM    9  C13 UNL     1      26.334   1.070  54.013  1.00  0.00     0.140 A 
HETATM   10  F1  UNL     1      26.693   0.466  55.180  1.00  0.00    -0.204 F 
HETATM   11  C14 UNL     1      25.510   2.160  54.085  1.00  0.00     0.075 A 
HETATM   12  C15 UNL     1      25.135   2.787  52.914  1.00  0.00     0.062 A 
HETATM   13  N2  UNL     1      24.303   3.843  53.378  1.00  0.00    -0.349 N 
HETATM   14  C16 UNL     1      23.459   4.716  52.652  1.00  0.00     0.208 C 
HETATM   15  N3  UNL     1      23.398   5.186  51.447  1.00  0.00    -0.246 NA
HETATM   16  C17 UNL     1      24.210   4.992  50.319  1.00  0.00     0.061 C 
HETATM   17  C18 UNL     1      24.114   6.149  49.697  1.00  0.00     0.041 C 
HETATM   18  C19 UNL     1      24.891   6.598  48.206  1.00  0.00     0.202 C 
HETATM   19  H16 UNL     1      25.405   1.944  49.714  1.00  0.00     0.160 HD
HETATM   20  H19 UNL     1      24.281   4.040  54.406  1.00  0.00     0.167 HD
ENDROOT
BRANCH   1  21
HETATM   21  O1  UNL     1      27.729   6.289  48.691  1.00  0.00    -0.353 OA
BRANCH  21  22
HETATM   22  C6  UNL     1      28.712   5.317  48.272  1.00  0.00     0.175 C 
BRANCH  22  23
HETATM   23  C5  UNL     1      29.905   6.107  47.851  1.00  0.00     0.027 C 
BRANCH  23  24
HETATM   24  C4  UNL     1      31.115   5.806  48.622  1.00  0.00     0.002 C 
BRANCH  24  25
HETATM   25  C3  UNL     1      32.157   4.896  48.152  1.00  0.00    -0.000 C 
BRANCH  25  26
HETATM   26  C2  UNL     1      32.224   4.445  46.750  1.00  0.00    -0.005 C 
HETATM   27  C1  UNL     1      31.955   2.969  46.556  1.00  0.00     0.005 C 
ENDBRANCH  25  26
ENDBRANCH  24  25
ENDBRANCH  23  24
ENDBRANCH  22  23
ENDBRANCH  21  22
ENDBRANCH   1  21
BRANCH  18  28
HETATM   28  O2  UNL     1      25.169   7.779  48.630  1.00  0.00    -0.380 OA
HETATM   29  C20 UNL     1      25.084   8.954  48.012  1.00  0.00     0.202 C 
ENDBRANCH  18  28
TORSDOF 7
ENDMDL
MODEL 9
REMARK VINA RESULT:      -6.6      3.035      5.462
REMARK  7 active torsions:
REMARK  status: ('A' for Active; 'I' for Inactive)
REMARK    1  A    between atoms: C2_2  and  C3_3 
REMARK    2  A    between atoms: C3_3  and  C4_4 
REMARK    3  A    between atoms: C4_4  and  C5_5 
REMARK    4  A    between atoms: C5_5  and  C6_6 
REMARK    5  A    between atoms: C6_6  and  O1_7 
REMARK    6  A    between atoms: O1_7  and  C7_8 
REMARK    7  A    between atoms: C19_25  and  O2_26 
ROOT
HETATM    1  C7  UNL     1      19.366   2.896  50.469  1.00  0.00     0.077 C 
HETATM    2  C8  UNL     1      20.300   2.109  50.999  1.00  0.00     0.039 C 
HETATM    3  C9  UNL     1      20.210   0.618  50.783  1.00  0.00     0.159 C 
HETATM    4  N1  UNL     1      21.323   0.010  51.433  1.00  0.00    -0.374 N 
HETATM    5  C10 UNL     1      21.721  -0.439  52.749  1.00  0.00     0.057 A 
HETATM    6  C11 UNL     1      23.109  -0.323  52.883  1.00  0.00     0.058 A 
HETATM    7  C12 UNL     1      23.715  -0.685  54.047  1.00  0.00     0.074 A 
HETATM    8 CL1  UNL     1      25.448  -0.525  54.177  1.00  0.00    -0.081 Cl
HETATM    9  C13 UNL     1      22.954  -1.169  55.103  1.00  0.00     0.140 A 
HETATM   10  F1  UNL     1      23.538  -1.535  56.278  1.00  0.00    -0.204 F 
HETATM   11  C14 UNL     1      21.595  -1.293  55.000  1.00  0.00     0.075 A 
HETATM   12  C15 UNL     1      20.983  -0.927  53.819  1.00  0.00     0.062 A 
HETATM   13  N2  UNL     1      19.611  -1.191  54.083  1.00  0.00    -0.349 N 
HETATM   14  C16 UNL     1      18.506  -1.208  53.200  1.00  0.00     0.208 C 
HETATM   15  N3  UNL     1      18.191  -0.660  52.069  1.00  0.00    -0.246 NA
HETATM   16  C17 UNL     1      18.882   0.227  51.230  1.00  0.00     0.061 C 
HETATM   17  C18 UNL     1      17.905   0.928  50.692  1.00  0.00     0.041 C 
HETATM   18  C19 UNL     1      18.064   2.226  49.542  1.00  0.00     0.202 C 
HETATM   19  H16 UNL     1      22.155  -0.199  50.799  1.00  0.00     0.160 HD
HETATM   20  H19 UNL     1      19.330  -1.411  55.068  1.00  0.00     0.167 HD
ENDROOT
BRANCH   1  21
HETATM   21  O1  UNL     1      19.727   4.208  50.840  1.00  0.00    -0.353 OA
BRANCH  21  22
HETATM   22  C6  UNL     1      20.599   4.960  49.968  1.00  0.00     0.175 C 
BRANCH  22  23
HETATM   23  C5  UNL     1      21.490   5.746  50.870  1.00  0.00     0.027 C 
BRANCH  23  24
HETATM   24  C4  UNL     1      21.953   4.996  52.042  1.00  0.00     0.002 C 
BRANCH  24  25
HETATM   25  C3  UNL     1      23.353   4.650  52.268  1.00  0.00    -0.000 C 
BRANCH  25  26
HETATM   26  C2  UNL     1      23.818   3.250  52.285  1.00  0.00    -0.005 C 
HETATM   27  C1  UNL     1      24.187   2.700  50.925  1.00  0.00     0.005 C 
ENDBRANCH  25  26
ENDBRANCH  24  25
ENDBRANCH  23  24
ENDBRANCH  22  23
ENDBRANCH  21  22
ENDBRANCH   1  21
BRANCH  18  28
HETATM   28  O2  UNL     1      17.154   2.931  50.113  1.00  0.00    -0.380 OA
HETATM   29  C20 UNL     1      16.213   3.709  49.585  1.00  0.00     0.202 C 
ENDBRANCH  18  28
TORSDOF 7
ENDMDL
