MODEL 1
REMARK VINA RESULT:      -7.1      0.000      0.000
REMARK  1 active torsions:
REMARK  status: ('A' for Active; 'I' for Inactive)
REMARK    1  A    between atoms: N1_1  and  C1_2 
ROOT
HETATM    1  C1  UNL     1      25.679   6.008  49.746  1.00  0.00     0.130 A 
HETATM    2  C2  UNL     1      26.756   5.651  49.068  1.00  0.00     0.063 A 
HETATM    3  C3  UNL     1      27.933   5.326  48.280  1.00  0.00     0.287 C 
HETATM    4  N2  UNL     1      29.178   5.427  49.045  1.00  0.00     0.101 NA
HETATM    5  C4  UNL     1      30.252   5.376  48.075  1.00  0.00     0.390 C 
HETATM    6  N3  UNL     1      31.522   5.842  48.376  1.00  0.00    -0.386 N 
HETATM    7  C5  UNL     1      31.774   6.592  49.564  1.00  0.00     0.138 C 
HETATM    8  C6  UNL     1      32.161   8.043  49.213  1.00  0.00     0.142 C 
HETATM    9  N4  UNL     1      31.360   8.306  48.006  1.00  0.00    -0.378 N 
HETATM   10  C7  UNL     1      32.123   7.753  46.891  1.00  0.00     0.142 C 
HETATM   11  C8  UNL     1      32.305   6.286  47.245  1.00  0.00     0.138 C 
HETATM   12  C9  UNL     1      30.047   8.856  48.040  1.00  0.00     0.029 A 
HETATM   13  C10 UNL     1      29.574   9.116  49.301  1.00  0.00     0.028 A 
HETATM   14  C11 UNL     1      28.219   9.342  49.580  1.00  0.00     0.024 A 
HETATM   15  C12 UNL     1      27.826   9.191  48.241  1.00  0.00     0.237 A 
HETATM   16  C13 UNL     1      27.954   8.978  46.904  1.00  0.00     0.024 A 
HETATM   17  C14 UNL     1      29.337   8.785  46.866  1.00  0.00     0.028 A 
HETATM   18  N5  UNL     1      26.538   8.697  48.871  1.00  0.00     0.119 N 
HETATM   19  C15 UNL     1      26.439   7.191  49.085  1.00  0.00     0.230 A 
HETATM   20  O1  UNL     1      27.410   7.669  48.525  1.00  0.00     0.000 OA
HETATM   21  H6  UNL     1      29.249   4.535  49.627  1.00  0.00     0.318 HD
HETATM   22  H21 UNL     1      25.567   8.938  49.286  1.00  0.00     0.319 HD
ENDROOT
BRANCH   1  23
HETATM   23  N1  UNL     1      26.014   4.740  50.367  1.00  0.00    -0.423 N 
HETATM   24  H1  UNL     1      26.217   3.833  50.893  1.00  0.00     0.150 HD
HETATM   25  H2  UNL     1      26.201   3.851  50.911  1.00  0.00     0.150 HD
ENDBRANCH   1  23
TORSDOF 1
ENDMDL
MODEL 2
REMARK VINA RESULT:      -7.0      7.553      9.043
REMARK  1 active torsions:
REMARK  status: ('A' for Active; 'I' for Inactive)
REMARK    1  A    between atoms: N1_1  and  C1_2 
ROOT
HETATM    1  C1  UNL     1      20.260   0.537  53.617  1.00  0.00     0.130 A 
HETATM    2  C2  UNL     1      21.406  -0.056  53.332  1.00  0.00     0.063 A 
HETATM    3  C3  UNL     1      22.674  -0.659  52.957  1.00  0.00     0.287 C 
HETATM    4  N2  UNL     1      23.756  -0.341  53.891  1.00  0.00     0.101 NA
HETATM    5  C4  UNL     1      24.983  -0.744  53.237  1.00  0.00     0.390 C 
HETATM    6  N3  UNL     1      26.213  -0.238  53.629  1.00  0.00    -0.386 N 
HETATM    7  C5  UNL     1      26.307   0.861  54.536  1.00  0.00     0.138 C 
HETATM    8  C6  UNL     1      26.890   2.098  53.824  1.00  0.00     0.142 C 
HETATM    9  N4  UNL     1      26.359   1.961  52.457  1.00  0.00    -0.378 N 
HETATM   10  C7  UNL     1      27.262   1.045  51.767  1.00  0.00     0.142 C 
HETATM   11  C8  UNL     1      27.234  -0.222  52.607  1.00  0.00     0.138 C 
HETATM   12  C9  UNL     1      25.123   2.526  52.035  1.00  0.00     0.029 A 
HETATM   13  C10 UNL     1      24.448   3.207  53.016  1.00  0.00     0.028 A 
HETATM   14  C11 UNL     1      23.092   3.551  52.917  1.00  0.00     0.024 A 
HETATM   15  C12 UNL     1      22.945   2.969  51.647  1.00  0.00     0.237 A 
HETATM   16  C13 UNL     1      23.302   2.316  50.510  1.00  0.00     0.024 A 
HETATM   17  C14 UNL     1      24.643   2.083  50.826  1.00  0.00     0.028 A 
HETATM   18  N5  UNL     1      21.521   2.751  52.119  1.00  0.00     0.119 N 
HETATM   19  C15 UNL     1      21.240   1.408  52.783  1.00  0.00     0.230 A 
HETATM   20  O1  UNL     1      22.340   1.644  52.315  1.00  0.00     0.000 OA
HETATM   21  H6  UNL     1      23.631  -0.986  54.731  1.00  0.00     0.318 HD
HETATM   22  H21 UNL     1      20.516   3.144  52.220  1.00  0.00     0.319 HD
ENDROOT
BRANCH   1  23
HETATM   23  N1  UNL     1      20.349  -0.456  54.670  1.00  0.00    -0.423 N 
HETATM   24  H1  UNL     1      20.332  -1.204  55.433  1.00  0.00     0.150 HD
HETATM   25  H2  UNL     1      20.305  -1.201  55.422  1.00  0.00     0.150 HD
ENDBRANCH   1  23
TORSDOF 1
ENDMDL
MODEL 3
REMARK VINA RESULT:      -7.0      7.087      9.967
REMARK  1 active torsions:
REMARK  status: ('A' for Active; 'I' for Inactive)
REMARK    1  A    between atoms: N1_1  and  C1_2 
ROOT
HETATM    1  C1  UNL     1      21.977  -1.563  54.773  1.00  0.00     0.130 A 
HETATM    2  C2  UNL     1      22.903  -1.030  53.996  1.00  0.00     0.063 A 
HETATM    3  C3  UNL     1      23.869  -0.442  53.083  1.00  0.00     0.287 C 
HETATM    4  N2  UNL     1      24.193   0.948  53.412  1.00  0.00     0.101 NA
HETATM    5  C4  UNL     1      24.908   1.476  52.269  1.00  0.00     0.390 C 
HETATM    6  N3  UNL     1      25.015   2.840  52.049  1.00  0.00    -0.386 N 
HETATM    7  C5  UNL     1      24.244   3.775  52.804  1.00  0.00     0.138 C 
HETATM    8  C6  UNL     1      23.222   4.488  51.896  1.00  0.00     0.142 C 
HETATM    9  N4  UNL     1      22.865   3.437  50.928  1.00  0.00    -0.378 N 
HETATM   10  C7  UNL     1      23.906   3.466  49.905  1.00  0.00     0.142 C 
HETATM   11  C8  UNL     1      25.199   3.235  50.671  1.00  0.00     0.138 C 
HETATM   12  C9  UNL     1      21.789   2.525  51.119  1.00  0.00     0.029 A 
HETATM   13  C10 UNL     1      21.105   2.696  52.297  1.00  0.00     0.028 A 
HETATM   14  C11 UNL     1      20.244   1.726  52.830  1.00  0.00     0.024 A 
HETATM   15  C12 UNL     1      20.458   0.826  51.774  1.00  0.00     0.237 A 
HETATM   16  C13 UNL     1      20.960   0.350  50.604  1.00  0.00     0.024 A 
HETATM   17  C14 UNL     1      21.758   1.446  50.269  1.00  0.00     0.028 A 
HETATM   18  N5  UNL     1      20.188  -0.208  52.850  1.00  0.00     0.119 N 
HETATM   19  C15 UNL     1      21.415  -0.747  53.577  1.00  0.00     0.230 A 
HETATM   20  O1  UNL     1      21.543   0.039  52.654  1.00  0.00     0.000 OA
HETATM   21  H6  UNL     1      24.890   0.913  54.219  1.00  0.00     0.318 HD
HETATM   22  H21 UNL     1      19.460  -0.793  53.400  1.00  0.00     0.319 HD
ENDROOT
BRANCH   1  23
HETATM   23  N1  UNL     1      23.112  -1.491  55.673  1.00  0.00    -0.423 N 
HETATM   24  H1  UNL     1      23.910  -1.371  56.372  1.00  0.00     0.150 HD
HETATM   25  H2  UNL     1      23.891  -1.350  56.377  1.00  0.00     0.150 HD
ENDBRANCH   1  23
TORSDOF 1
ENDMDL
MODEL 4
REMARK VINA RESULT:      -6.9      6.877      9.550
REMARK  1 active torsions:
REMARK  status: ('A' for Active; 'I' for Inactive)
REMARK    1  A    between atoms: N1_1  and  C1_2 
ROOT
HETATM    1  C1  UNL     1      24.693  -0.617  54.009  1.00  0.00     0.130 A 
HETATM    2  C2  UNL     1      24.920   0.267  53.053  1.00  0.00     0.063 A 
HETATM    3  C3  UNL     1      25.105   1.209  51.963  1.00  0.00     0.287 C 
HETATM    4  N2  UNL     1      24.798   2.590  52.343  1.00  0.00     0.101 NA
HETATM    5  C4  UNL     1      24.734   3.343  51.108  1.00  0.00     0.390 C 
HETATM    6  N3  UNL     1      24.080   4.562  51.036  1.00  0.00    -0.386 N 
HETATM    7  C5  UNL     1      23.254   5.025  52.105  1.00  0.00     0.138 C 
HETATM    8  C6  UNL     1      21.779   5.079  51.662  1.00  0.00     0.142 C 
HETATM    9  N4  UNL     1      21.681   3.940  50.732  1.00  0.00    -0.378 N 
HETATM   10  C7  UNL     1      22.164   4.432  49.446  1.00  0.00     0.142 C 
HETATM   11  C8  UNL     1      23.575   4.922  49.730  1.00  0.00     0.138 C 
HETATM   12  C9  UNL     1      21.323   2.624  51.138  1.00  0.00     0.029 A 
HETATM   13  C10 UNL     1      21.082   2.491  52.483  1.00  0.00     0.028 A 
HETATM   14  C11 UNL     1      21.041   1.251  53.135  1.00  0.00     0.024 A 
HETATM   15  C12 UNL     1      21.300   0.524  51.963  1.00  0.00     0.237 A 
HETATM   16  C13 UNL     1      21.546   0.302  50.644  1.00  0.00     0.024 A 
HETATM   17  C14 UNL     1      21.542   1.630  50.214  1.00  0.00     0.028 A 
HETATM   18  N5  UNL     1      21.947  -0.447  52.932  1.00  0.00     0.119 N 
HETATM   19  C15 UNL     1      23.442  -0.258  53.162  1.00  0.00     0.230 A 
HETATM   20  O1  UNL     1      22.853   0.436  52.351  1.00  0.00     0.000 OA
HETATM   21  H6  UNL     1      25.646   2.952  52.878  1.00  0.00     0.318 HD
HETATM   22  H21 UNL     1      21.830  -1.287  53.605  1.00  0.00     0.319 HD
ENDROOT
BRANCH   1  23
HETATM   23  N1  UNL     1      25.874   0.063  54.508  1.00  0.00    -0.423 N 
HETATM   24  H1  UNL     1      26.790   0.504  54.835  1.00  0.00     0.150 HD
HETATM   25  H2  UNL     1      26.796   0.480  54.820  1.00  0.00     0.150 HD
ENDBRANCH   1  23
TORSDOF 1
ENDMDL
MODEL 5
REMARK VINA RESULT:      -6.9      5.103      7.609
REMARK  1 active torsions:
REMARK  status: ('A' for Active; 'I' for Inactive)
REMARK    1  A    between atoms: N1_1  and  C1_2 
ROOT
HETATM    1  C1  UNL     1      26.331   0.824  52.569  1.00  0.00     0.130 A 
HETATM    2  C2  UNL     1      26.396   1.687  51.570  1.00  0.00     0.063 A 
HETATM    3  C3  UNL     1      26.397   2.609  50.447  1.00  0.00     0.287 C 
HETATM    4  N2  UNL     1      26.205   4.003  50.852  1.00  0.00     0.101 NA
HETATM    5  C4  UNL     1      25.929   4.741  49.638  1.00  0.00     0.390 C 
HETATM    6  N3  UNL     1      25.307   5.979  49.668  1.00  0.00    -0.386 N 
HETATM    7  C5  UNL     1      24.712   6.481  50.865  1.00  0.00     0.138 C 
HETATM    8  C6  UNL     1      23.181   6.573  50.708  1.00  0.00     0.142 C 
HETATM    9  N4  UNL     1      22.878   5.427  49.836  1.00  0.00    -0.378 N 
HETATM   10  C7  UNL     1      23.121   5.886  48.471  1.00  0.00     0.142 C 
HETATM   11  C8  UNL     1      24.574   6.336  48.475  1.00  0.00     0.138 C 
HETATM   12  C9  UNL     1      22.567   4.127  50.326  1.00  0.00     0.029 A 
HETATM   13  C10 UNL     1      22.582   4.020  51.694  1.00  0.00     0.028 A 
HETATM   14  C11 UNL     1      22.631   2.791  52.366  1.00  0.00     0.024 A 
HETATM   15  C12 UNL     1      22.643   2.040  51.180  1.00  0.00     0.237 A 
HETATM   16  C13 UNL     1      22.629   1.793  49.843  1.00  0.00     0.024 A 
HETATM   17  C14 UNL     1      22.579   3.115  49.396  1.00  0.00     0.028 A 
HETATM   18  N5  UNL     1      23.435   1.063  52.027  1.00  0.00     0.119 N 
HETATM   19  C15 UNL     1      24.952   1.210  51.967  1.00  0.00     0.230 A 
HETATM   20  O1  UNL     1      24.239   1.910  51.269  1.00  0.00     0.000 OA
HETATM   21  H6  UNL     1      27.149   4.347  51.211  1.00  0.00     0.318 HD
HETATM   22  H21 UNL     1      23.426   0.236  52.726  1.00  0.00     0.319 HD
ENDROOT
BRANCH   1  23
HETATM   23  N1  UNL     1      27.603   1.474  52.822  1.00  0.00    -0.423 N 
HETATM   24  H1  UNL     1      28.554   1.949  52.925  1.00  0.00     0.150 HD
HETATM   25  H2  UNL     1      28.550   1.942  52.896  1.00  0.00     0.150 HD
ENDBRANCH   1  23
TORSDOF 1
ENDMDL
MODEL 6
REMARK VINA RESULT:      -6.8      6.651      9.566
REMARK  1 active torsions:
REMARK  status: ('A' for Active; 'I' for Inactive)
REMARK    1  A    between atoms: N1_1  and  C1_2 
ROOT
HETATM    1  C1  UNL     1      27.154   1.208  52.289  1.00  0.00     0.130 A 
HETATM    2  C2  UNL     1      25.961   1.046  52.836  1.00  0.00     0.063 A 
HETATM    3  C3  UNL     1      24.639   0.946  53.428  1.00  0.00     0.287 C 
HETATM    4  N2  UNL     1      23.672   0.272  52.558  1.00  0.00     0.101 NA
HETATM    5  C4  UNL     1      22.369   0.516  53.139  1.00  0.00     0.390 C 
HETATM    6  N3  UNL     1      21.208   0.387  52.392  1.00  0.00    -0.386 N 
HETATM    7  C5  UNL     1      21.252   0.227  50.974  1.00  0.00     0.138 C 
HETATM    8  C6  UNL     1      20.649   1.461  50.274  1.00  0.00     0.142 C 
HETATM    9  N4  UNL     1      21.029   2.560  51.177  1.00  0.00    -0.378 N 
HETATM   10  C7  UNL     1      20.024   2.575  52.235  1.00  0.00     0.142 C 
HETATM   11  C8  UNL     1      20.088   1.182  52.841  1.00  0.00     0.138 C 
HETATM   12  C9  UNL     1      22.237   3.302  51.046  1.00  0.00     0.029 A 
HETATM   13  C10 UNL     1      23.037   2.901  50.005  1.00  0.00     0.028 A 
HETATM   14  C11 UNL     1      24.388   3.260  49.895  1.00  0.00     0.024 A 
HETATM   15  C12 UNL     1      24.379   4.009  51.082  1.00  0.00     0.237 A 
HETATM   16  C13 UNL     1      23.880   4.576  52.213  1.00  0.00     0.024 A 
HETATM   17  C14 UNL     1      22.571   4.099  52.114  1.00  0.00     0.028 A 
HETATM   18  N5  UNL     1      25.835   3.589  51.138  1.00  0.00     0.119 N 
HETATM   19  C15 UNL     1      26.129   2.317  51.925  1.00  0.00     0.230 A 
HETATM   20  O1  UNL     1      24.996   2.765  51.882  1.00  0.00     0.000 OA
HETATM   21  H6  UNL     1      23.858  -0.774  52.654  1.00  0.00     0.318 HD
HETATM   22  H21 UNL     1      26.859   3.785  50.845  1.00  0.00     0.319 HD
ENDROOT
BRANCH   1  23
HETATM   23  N1  UNL     1      27.134  -0.221  52.540  1.00  0.00    -0.423 N 
HETATM   24  H1  UNL     1      27.051  -1.277  52.674  1.00  0.00     0.150 HD
HETATM   25  H2  UNL     1      27.029  -1.268  52.657  1.00  0.00     0.150 HD
ENDBRANCH   1  23
TORSDOF 1
ENDMDL
MODEL 7
REMARK VINA RESULT:      -6.7      4.217      6.446
REMARK  1 active torsions:
REMARK  status: ('A' for Active; 'I' for Inactive)
REMARK    1  A    between atoms: N1_1  and  C1_2 
ROOT
HETATM    1  C1  UNL     1      31.924   6.512  49.783  1.00  0.00     0.130 A 
HETATM    2  C2  UNL     1      32.671   7.004  48.810  1.00  0.00     0.063 A 
HETATM    3  C3  UNL     1      33.532   7.476  47.740  1.00  0.00     0.287 C 
HETATM    4  N2  UNL     1      32.839   7.582  46.454  1.00  0.00     0.101 NA
HETATM    5  C4  UNL     1      33.871   7.764  45.454  1.00  0.00     0.390 C 
HETATM    6  N3  UNL     1      33.636   7.498  44.114  1.00  0.00    -0.386 N 
HETATM    7  C5  UNL     1      32.449   6.828  43.688  1.00  0.00     0.138 C 
HETATM    8  C6  UNL     1      32.792   5.441  43.109  1.00  0.00     0.142 C 
HETATM    9  N4  UNL     1      33.945   5.028  43.927  1.00  0.00    -0.378 N 
HETATM   10  C7  UNL     1      35.114   5.655  43.317  1.00  0.00     0.142 C 
HETATM   11  C8  UNL     1      34.801   7.143  43.336  1.00  0.00     0.138 C 
HETATM   12  C9  UNL     1      33.824   4.292  45.139  1.00  0.00     0.029 A 
HETATM   13  C10 UNL     1      32.532   4.001  45.499  1.00  0.00     0.028 A 
HETATM   14  C11 UNL     1      32.170   3.585  46.788  1.00  0.00     0.024 A 
HETATM   15  C12 UNL     1      33.487   3.638  47.272  1.00  0.00     0.237 A 
HETATM   16  C13 UNL     1      34.833   3.830  47.250  1.00  0.00     0.024 A 
HETATM   17  C14 UNL     1      34.956   4.223  45.916  1.00  0.00     0.028 A 
HETATM   18  N5  UNL     1      32.793   3.955  48.582  1.00  0.00     0.119 N 
HETATM   19  C15 UNL     1      32.604   5.435  48.893  1.00  0.00     0.230 A 
HETATM   20  O1  UNL     1      33.209   5.090  47.893  1.00  0.00     0.000 OA
HETATM   21  H6  UNL     1      32.281   8.491  46.485  1.00  0.00     0.318 HD
HETATM   22  H21 UNL     1      32.318   3.585  49.483  1.00  0.00     0.319 HD
ENDROOT
BRANCH   1  23
HETATM   23  N1  UNL     1      31.349   7.832  49.607  1.00  0.00    -0.423 N 
HETATM   24  H1  UNL     1      30.987   8.819  49.420  1.00  0.00     0.150 HD
HETATM   25  H2  UNL     1      31.011   8.815  49.404  1.00  0.00     0.150 HD
ENDBRANCH   1  23
TORSDOF 1
ENDMDL
MODEL 8
REMARK VINA RESULT:      -6.5      6.698      9.186
REMARK  1 active torsions:
REMARK  status: ('A' for Active; 'I' for Inactive)
REMARK    1  A    between atoms: N1_1  and  C1_2 
ROOT
HETATM    1  C1  UNL     1      25.017   0.651  53.483  1.00  0.00     0.130 A 
HETATM    2  C2  UNL     1      23.768   0.858  53.103  1.00  0.00     0.063 A 
HETATM    3  C3  UNL     1      22.411   1.163  52.683  1.00  0.00     0.287 C 
HETATM    4  N2  UNL     1      22.123   0.721  51.317  1.00  0.00     0.101 NA
HETATM    5  C4  UNL     1      20.873   1.350  50.945  1.00  0.00     0.390 C 
HETATM    6  N3  UNL     1      20.501   1.492  49.617  1.00  0.00    -0.386 N 
HETATM    7  C5  UNL     1      21.421   1.231  48.558  1.00  0.00     0.138 C 
HETATM    8  C6  UNL     1      21.756   2.533  47.802  1.00  0.00     0.142 C 
HETATM    9  N4  UNL     1      21.710   3.545  48.871  1.00  0.00    -0.378 N 
HETATM   10  C7  UNL     1      20.303   3.905  49.021  1.00  0.00     0.142 C 
HETATM   11  C8  UNL     1      19.606   2.592  49.337  1.00  0.00     0.138 C 
HETATM   12  C9  UNL     1      22.843   3.918  49.648  1.00  0.00     0.029 A 
HETATM   13  C10 UNL     1      23.995   3.245  49.329  1.00  0.00     0.028 A 
HETATM   14  C11 UNL     1      25.121   3.214  50.164  1.00  0.00     0.024 A 
HETATM   15  C12 UNL     1      24.524   4.015  51.149  1.00  0.00     0.237 A 
HETATM   16  C13 UNL     1      23.569   4.772  51.753  1.00  0.00     0.024 A 
HETATM   17  C14 UNL     1      22.580   4.664  50.772  1.00  0.00     0.028 A 
HETATM   18  N5  UNL     1      25.422   3.218  52.075  1.00  0.00     0.119 N 
HETATM   19  C15 UNL     1      24.800   1.970  52.692  1.00  0.00     0.230 A 
HETATM   20  O1  UNL     1      24.131   2.706  51.987  1.00  0.00     0.000 OA
HETATM   21  H6  UNL     1      21.933  -0.328  51.372  1.00  0.00     0.318 HD
HETATM   22  H21 UNL     1      26.393   3.107  52.542  1.00  0.00     0.319 HD
ENDROOT
BRANCH   1  23
HETATM   23  N1  UNL     1      24.483  -0.698  53.472  1.00  0.00    -0.423 N 
HETATM   24  H1  UNL     1      24.013  -1.657  53.474  1.00  0.00     0.150 HD
HETATM   25  H2  UNL     1      23.992  -1.637  53.479  1.00  0.00     0.150 HD
ENDBRANCH   1  23
TORSDOF 1
ENDMDL
MODEL 9
REMARK VINA RESULT:      -6.4      3.737      5.929
REMARK  1 active torsions:
REMARK  status: ('A' for Active; 'I' for Inactive)
REMARK    1  A    between atoms: N1_1  and  C1_2 
ROOT
HETATM    1  C1  UNL     1      34.371   3.099  46.563  1.00  0.00     0.130 A 
HETATM    2  C2  UNL     1      34.014   4.102  45.779  1.00  0.00     0.063 A 
HETATM    3  C3  UNL     1      33.555   5.212  44.962  1.00  0.00     0.287 C 
HETATM    4  N2  UNL     1      34.341   6.431  45.161  1.00  0.00     0.101 NA
HETATM    5  C4  UNL     1      33.595   7.499  44.529  1.00  0.00     0.390 C 
HETATM    6  N3  UNL     1      33.813   8.828  44.857  1.00  0.00    -0.386 N 
HETATM    7  C5  UNL     1      34.616   9.192  45.980  1.00  0.00     0.138 C 
HETATM    8  C6  UNL     1      33.751   9.867  47.063  1.00  0.00     0.142 C 
HETATM    9  N4  UNL     1      32.463   9.166  46.929  1.00  0.00    -0.378 N 
HETATM   10  C7  UNL     1      31.755   9.834  45.841  1.00  0.00     0.142 C 
HETATM   11  C8  UNL     1      32.690   9.713  44.648  1.00  0.00     0.138 C 
HETATM   12  C9  UNL     1      32.131   7.987  47.656  1.00  0.00     0.029 A 
HETATM   13  C10 UNL     1      33.121   7.542  48.494  1.00  0.00     0.028 A 
HETATM   14  C11 UNL     1      33.139   6.251  49.042  1.00  0.00     0.024 A 
HETATM   15  C12 UNL     1      31.942   5.871  48.414  1.00  0.00     0.237 A 
HETATM   16  C13 UNL     1      30.828   5.990  47.643  1.00  0.00     0.024 A 
HETATM   17  C14 UNL     1      31.018   7.308  47.221  1.00  0.00     0.028 A 
HETATM   18  N5  UNL     1      32.578   4.495  48.453  1.00  0.00     0.119 N 
HETATM   19  C15 UNL     1      33.372   4.095  47.215  1.00  0.00     0.230 A 
HETATM   20  O1  UNL     1      32.773   5.156  47.244  1.00  0.00     0.000 OA
HETATM   21  H6  UNL     1      35.238   6.309  44.596  1.00  0.00     0.318 HD
HETATM   22  H21 UNL     1      32.754   3.580  49.005  1.00  0.00     0.319 HD
ENDROOT
BRANCH   1  23
HETATM   23  N1  UNL     1      35.484   3.161  45.635  1.00  0.00    -0.423 N 
HETATM   24  H1  UNL     1      36.297   3.291  44.955  1.00  0.00     0.150 HD
HETATM   25  H2  UNL     1      36.287   3.317  44.962  1.00  0.00     0.150 HD
ENDBRANCH   1  23
TORSDOF 1
ENDMDL
