MODEL 1
REMARK VINA RESULT:      -7.6      0.000      0.000
REMARK  6 active torsions:
REMARK  status: ('A' for Active; 'I' for Inactive)
REMARK    1  A    between atoms: N1_1  and  C1_2 
REMARK    2  A    between atoms: C5_7  and  C6_8 
REMARK    3  A    between atoms: C6_8  and  O1_9 
REMARK       I    between atoms: N3_19  and  C16_20 
REMARK    4  A    between atoms: C16_20  and  C17_22 
REMARK    5  A    between atoms: C17_22  and  C18_23 
REMARK    6  A    between atoms: C18_23  and  S1_24 
ROOT
HETATM    1  C1  UNL     1      20.131   0.664  52.614  1.00  0.00     0.369 A 
HETATM    2  N2  UNL     1      20.196   0.020  53.884  1.00  0.00    -0.262 NA
HETATM    3  C2  UNL     1      21.401  -0.030  54.270  1.00  0.00     0.120 A 
HETATM    4  C3  UNL     1      22.326   0.566  53.325  1.00  0.00    -0.032 A 
HETATM    5  C4  UNL     1      21.556   0.984  52.323  1.00  0.00    -0.008 A 
HETATM    6  C5  UNL     1      21.948   1.653  51.056  1.00  0.00     0.076 C 
HETATM    7  C7  UNL     1      22.625   2.958  51.177  1.00  0.00    -0.041 A 
HETATM    8  C8  UNL     1      21.633   3.902  51.484  1.00  0.00     0.008 A 
HETATM    9  C9  UNL     1      21.918   5.266  51.640  1.00  0.00     0.001 A 
HETATM   10  C10 UNL     1      23.210   5.727  51.494  1.00  0.00     0.001 A 
HETATM   11  C11 UNL     1      24.183   4.796  51.194  1.00  0.00     0.007 A 
HETATM   12  C12 UNL     1      23.924   3.469  51.039  1.00  0.00    -0.051 A 
HETATM   13  C13 UNL     1      24.839   2.363  50.758  1.00  0.00     0.041 C 
HETATM   14  C14 UNL     1      26.133   2.471  51.607  1.00  0.00     0.025 C 
HETATM   15  C15 UNL     1      26.699   1.060  51.738  1.00  0.00     0.126 C 
HETATM   16  N3  UNL     1      25.981   0.326  52.787  1.00  0.00    -0.352 N 
HETATM   17  C16 UNL     1      26.671   0.245  54.066  1.00  0.00     0.220 C 
HETATM   18  O2  UNL     1      26.186  -0.353  55.080  1.00  0.00    -0.273 OA
HETATM   19  C19 UNL     1      24.647  -0.323  52.813  1.00  0.00     0.130 C 
HETATM   20  C20 UNL     1      23.760   0.723  53.428  1.00  0.00     0.060 C 
ENDROOT
BRANCH  17  21
HETATM   21  C17 UNL     1      28.008   0.864  54.281  1.00  0.00     0.113 C 
BRANCH  21  22
HETATM   22  C18 UNL     1      29.035  -0.136  54.693  1.00  0.00     0.080 C 
BRANCH  22  23
HETATM   23  S1  UNL     1      29.417  -1.329  53.394  1.00  0.00    -0.182 SA
HETATM   24  H23 UNL     1      29.874  -0.732  52.218  1.00  0.00     0.101 HD
ENDBRANCH  22  23
ENDBRANCH  21  22
ENDBRANCH  17  21
BRANCH   1  25
HETATM   25  N1  UNL     1      19.501  -0.147  51.596  1.00  0.00     0.107 N 
HETATM   26  H1  UNL     1      18.811  -0.761  52.059  1.00  0.00     0.316 HD
HETATM   27  H2  UNL     1      20.265  -0.667  51.108  1.00  0.00     0.316 HD
ENDBRANCH   1  25
BRANCH   6  28
HETATM   28  C6  UNL     1      20.788   1.775  50.064  1.00  0.00     0.178 C 
BRANCH  28  29
HETATM   29  O1  UNL     1      21.083   0.922  48.991  1.00  0.00    -0.400 OA
HETATM   30  H8  UNL     1      20.597   1.266  48.193  1.00  0.00     0.209 HD
ENDBRANCH  28  29
ENDBRANCH   6  28
TORSDOF 6
ENDMDL
MODEL 2
REMARK VINA RESULT:      -7.4      3.248      6.630
REMARK  6 active torsions:
REMARK  status: ('A' for Active; 'I' for Inactive)
REMARK    1  A    between atoms: N1_1  and  C1_2 
REMARK    2  A    between atoms: C5_7  and  C6_8 
REMARK    3  A    between atoms: C6_8  and  O1_9 
REMARK       I    between atoms: N3_19  and  C16_20 
REMARK    4  A    between atoms: C16_20  and  C17_22 
REMARK    5  A    between atoms: C17_22  and  C18_23 
REMARK    6  A    between atoms: C18_23  and  S1_24 
ROOT
HETATM    1  C1  UNL     1      27.975   0.313  54.033  1.00  0.00     0.369 A 
HETATM    2  N2  UNL     1      28.501   1.621  54.246  1.00  0.00    -0.262 NA
HETATM    3  C2  UNL     1      27.697   2.480  53.779  1.00  0.00     0.120 A 
HETATM    4  C3  UNL     1      26.515   1.888  53.182  1.00  0.00    -0.032 A 
HETATM    5  C4  UNL     1      26.686   0.577  53.335  1.00  0.00    -0.008 A 
HETATM    6  C5  UNL     1      25.809  -0.540  52.899  1.00  0.00     0.076 C 
HETATM    7  C7  UNL     1      24.448  -0.576  53.467  1.00  0.00    -0.041 A 
HETATM    8  C8  UNL     1      24.571  -1.056  54.781  1.00  0.00     0.008 A 
HETATM    9  C9  UNL     1      23.461  -1.251  55.615  1.00  0.00     0.001 A 
HETATM   10  C10 UNL     1      22.191  -0.969  55.159  1.00  0.00     0.001 A 
HETATM   11  C11 UNL     1      22.073  -0.496  53.868  1.00  0.00     0.007 A 
HETATM   12  C12 UNL     1      23.139  -0.301  53.045  1.00  0.00    -0.051 A 
HETATM   13  C13 UNL     1      23.184   0.220  51.679  1.00  0.00     0.041 C 
HETATM   14  C14 UNL     1      22.260   1.456  51.515  1.00  0.00     0.025 C 
HETATM   15  C15 UNL     1      22.811   2.273  50.351  1.00  0.00     0.126 C 
HETATM   16  N3  UNL     1      23.946   3.088  50.802  1.00  0.00    -0.352 N 
HETATM   17  C16 UNL     1      23.638   4.487  51.062  1.00  0.00     0.220 C 
HETATM   18  O2  UNL     1      24.507   5.327  51.461  1.00  0.00    -0.273 OA
HETATM   19  C19 UNL     1      25.361   2.749  51.093  1.00  0.00     0.130 C 
HETATM   20  C20 UNL     1      25.372   2.540  52.582  1.00  0.00     0.060 C 
ENDROOT
BRANCH  17  21
HETATM   21  C17 UNL     1      22.268   5.039  50.877  1.00  0.00     0.113 C 
BRANCH  21  22
HETATM   22  C18 UNL     1      22.228   6.124  49.854  1.00  0.00     0.080 C 
BRANCH  22  23
HETATM   23  S1  UNL     1      22.861   5.600  48.248  1.00  0.00    -0.182 SA
HETATM   24  H23 UNL     1      22.136   6.123  47.175  1.00  0.00     0.101 HD
ENDBRANCH  22  23
ENDBRANCH  21  22
ENDBRANCH  17  21
BRANCH   1  25
HETATM   25  N1  UNL     1      28.869  -0.546  53.290  1.00  0.00     0.107 N 
HETATM   26  H1  UNL     1      29.542   0.054  52.784  1.00  0.00     0.316 HD
HETATM   27  H2  UNL     1      28.274  -1.131  52.661  1.00  0.00     0.316 HD
ENDBRANCH   1  25
BRANCH   6  28
HETATM   28  C6  UNL     1      26.465  -1.913  53.068  1.00  0.00     0.178 C 
BRANCH  28  29
HETATM   29  O1  UNL     1      26.831  -2.346  51.785  1.00  0.00    -0.400 OA
HETATM   30  H8  UNL     1      26.850  -3.341  51.800  1.00  0.00     0.209 HD
ENDBRANCH  28  29
ENDBRANCH   6  28
TORSDOF 6
ENDMDL
MODEL 3
REMARK VINA RESULT:      -7.1      3.225      6.168
REMARK  6 active torsions:
REMARK  status: ('A' for Active; 'I' for Inactive)
REMARK    1  A    between atoms: N1_1  and  C1_2 
REMARK    2  A    between atoms: C5_7  and  C6_8 
REMARK    3  A    between atoms: C6_8  and  O1_9 
REMARK       I    between atoms: N3_19  and  C16_20 
REMARK    4  A    between atoms: C16_20  and  C17_22 
REMARK    5  A    between atoms: C17_22  and  C18_23 
REMARK    6  A    between atoms: C18_23  and  S1_24 
ROOT
HETATM    1  C1  UNL     1      28.029  -0.404  52.889  1.00  0.00     0.369 A 
HETATM    2  N2  UNL     1      27.723  -1.796  52.895  1.00  0.00    -0.262 NA
HETATM    3  C2  UNL     1      26.466  -1.951  52.898  1.00  0.00     0.120 A 
HETATM    4  C3  UNL     1      25.738  -0.697  52.896  1.00  0.00    -0.032 A 
HETATM    5  C4  UNL     1      26.685   0.238  52.892  1.00  0.00    -0.008 A 
HETATM    6  C5  UNL     1      26.542   1.717  52.912  1.00  0.00     0.076 C 
HETATM    7  C7  UNL     1      25.829   2.330  51.775  1.00  0.00    -0.041 A 
HETATM    8  C8  UNL     1      26.721   2.332  50.692  1.00  0.00     0.008 A 
HETATM    9  C9  UNL     1      26.384   2.876  49.444  1.00  0.00     0.001 A 
HETATM   10  C10 UNL     1      25.140   3.433  49.243  1.00  0.00     0.001 A 
HETATM   11  C11 UNL     1      24.265   3.429  50.309  1.00  0.00     0.007 A 
HETATM   12  C12 UNL     1      24.575   2.906  51.526  1.00  0.00    -0.051 A 
HETATM   13  C13 UNL     1      23.756   2.793  52.734  1.00  0.00     0.041 C 
HETATM   14  C14 UNL     1      22.316   2.322  52.398  1.00  0.00     0.025 C 
HETATM   15  C15 UNL     1      21.763   1.652  53.651  1.00  0.00     0.126 C 
HETATM   16  N3  UNL     1      22.271   0.277  53.751  1.00  0.00    -0.352 N 
HETATM   17  C16 UNL     1      21.340  -0.757  53.322  1.00  0.00     0.220 C 
HETATM   18  O2  UNL     1      21.623  -1.998  53.343  1.00  0.00    -0.273 OA
HETATM   19  C19 UNL     1      23.584  -0.270  54.168  1.00  0.00     0.130 C 
HETATM   20  C20 UNL     1      24.310  -0.472  52.867  1.00  0.00     0.060 C 
ENDROOT
BRANCH  17  21
HETATM   21  C17 UNL     1      19.975  -0.431  52.824  1.00  0.00     0.113 C 
BRANCH  21  22
HETATM   22  C18 UNL     1      18.921  -1.258  53.480  1.00  0.00     0.080 C 
BRANCH  22  23
HETATM   23  S1  UNL     1      17.286  -1.015  52.756  1.00  0.00    -0.182 SA
HETATM   24  H23 UNL     1      16.247  -1.412  53.600  1.00  0.00     0.101 HD
ENDBRANCH  22  23
ENDBRANCH  21  22
ENDBRANCH  17  21
BRANCH   1  25
HETATM   25  N1  UNL     1      28.865   0.001  53.996  1.00  0.00     0.107 N 
HETATM   26  H1  UNL     1      28.282   0.008  54.851  1.00  0.00     0.316 HD
HETATM   27  H2  UNL     1      29.261   0.936  53.751  1.00  0.00     0.316 HD
ENDBRANCH   1  25
BRANCH   6  28
HETATM   28  C6  UNL     1      27.875   2.441  53.123  1.00  0.00     0.178 C 
BRANCH  28  29
HETATM   29  O1  UNL     1      27.932   2.794  54.479  1.00  0.00    -0.400 OA
HETATM   30  H8  UNL     1      26.995   2.863  54.810  1.00  0.00     0.209 HD
ENDBRANCH  28  29
ENDBRANCH   6  28
TORSDOF 6
ENDMDL
MODEL 4
REMARK VINA RESULT:      -7.0      2.838      4.944
REMARK  6 active torsions:
REMARK  status: ('A' for Active; 'I' for Inactive)
REMARK    1  A    between atoms: N1_1  and  C1_2 
REMARK    2  A    between atoms: C5_7  and  C6_8 
REMARK    3  A    between atoms: C6_8  and  O1_9 
REMARK       I    between atoms: N3_19  and  C16_20 
REMARK    4  A    between atoms: C16_20  and  C17_22 
REMARK    5  A    between atoms: C17_22  and  C18_23 
REMARK    6  A    between atoms: C18_23  and  S1_24 
ROOT
HETATM    1  C1  UNL     1      25.511   5.547  48.957  1.00  0.00     0.369 A 
HETATM    2  N2  UNL     1      26.890   5.241  48.759  1.00  0.00    -0.262 NA
HETATM    3  C2  UNL     1      27.182   4.186  49.395  1.00  0.00     0.120 A 
HETATM    4  C3  UNL     1      26.056   3.625  50.116  1.00  0.00    -0.032 A 
HETATM    5  C4  UNL     1      25.046   4.451  49.851  1.00  0.00    -0.008 A 
HETATM    6  C5  UNL     1      23.642   4.400  50.334  1.00  0.00     0.076 C 
HETATM    7  C7  UNL     1      22.858   3.205  49.968  1.00  0.00    -0.041 A 
HETATM    8  C8  UNL     1      22.493   3.357  48.621  1.00  0.00     0.008 A 
HETATM    9  C9  UNL     1      21.706   2.413  47.946  1.00  0.00     0.001 A 
HETATM   10  C10 UNL     1      21.261   1.284  48.601  1.00  0.00     0.001 A 
HETATM   11  C11 UNL     1      21.623   1.137  49.924  1.00  0.00     0.007 A 
HETATM   12  C12 UNL     1      22.385   2.043  50.594  1.00  0.00    -0.051 A 
HETATM   13  C13 UNL     1      22.878   2.015  51.971  1.00  0.00     0.041 C 
HETATM   14  C14 UNL     1      23.415   0.609  52.351  1.00  0.00     0.025 C 
HETATM   15  C15 UNL     1      24.426   0.807  53.476  1.00  0.00     0.126 C 
HETATM   16  N3  UNL     1      25.717   1.233  52.920  1.00  0.00    -0.352 N 
HETATM   17  C16 UNL     1      26.716   0.180  52.804  1.00  0.00     0.220 C 
HETATM   18  O2  UNL     1      27.885   0.381  52.341  1.00  0.00    -0.273 OA
HETATM   19  C19 UNL     1      26.197   2.538  52.404  1.00  0.00     0.130 C 
HETATM   20  C20 UNL     1      25.994   2.424  50.919  1.00  0.00     0.060 C 
ENDROOT
BRANCH  17  21
HETATM   21  C17 UNL     1      26.437  -1.220  53.224  1.00  0.00     0.113 C 
BRANCH  21  22
HETATM   22  C18 UNL     1      27.202  -2.216  52.418  1.00  0.00     0.080 C 
BRANCH  22  23
HETATM   23  S1  UNL     1      28.772  -2.678  53.180  1.00  0.00    -0.182 SA
HETATM   24  H23 UNL     1      28.855  -2.323  54.527  1.00  0.00     0.101 HD
ENDBRANCH  22  23
ENDBRANCH  21  22
ENDBRANCH  17  21
BRANCH   1  25
HETATM   25  N1  UNL     1      25.294   6.868  49.502  1.00  0.00     0.107 N 
HETATM   26  H1  UNL     1      26.093   7.095  50.118  1.00  0.00     0.316 HD
HETATM   27  H2  UNL     1      24.375   6.844  49.999  1.00  0.00     0.316 HD
ENDBRANCH   1  25
BRANCH   6  28
HETATM   28  C6  UNL     1      22.844   5.657  49.978  1.00  0.00     0.178 C 
BRANCH  28  29
HETATM   29  O1  UNL     1      22.749   6.420  51.151  1.00  0.00    -0.400 OA
HETATM   30  H8  UNL     1      23.354   6.007  51.826  1.00  0.00     0.209 HD
ENDBRANCH  28  29
ENDBRANCH   6  28
TORSDOF 6
ENDMDL
MODEL 5
REMARK VINA RESULT:      -6.9      4.076      6.572
REMARK  6 active torsions:
REMARK  status: ('A' for Active; 'I' for Inactive)
REMARK    1  A    between atoms: N1_1  and  C1_2 
REMARK    2  A    between atoms: C5_7  and  C6_8 
REMARK    3  A    between atoms: C6_8  and  O1_9 
REMARK       I    between atoms: N3_19  and  C16_20 
REMARK    4  A    between atoms: C16_20  and  C17_22 
REMARK    5  A    between atoms: C17_22  and  C18_23 
REMARK    6  A    between atoms: C18_23  and  S1_24 
ROOT
HETATM    1  C1  UNL     1      26.913   5.856  48.709  1.00  0.00     0.369 A 
HETATM    2  N2  UNL     1      27.583   4.600  48.782  1.00  0.00    -0.262 NA
HETATM    3  C2  UNL     1      26.826   3.750  49.336  1.00  0.00     0.120 A 
HETATM    4  C3  UNL     1      25.539   4.299  49.720  1.00  0.00    -0.032 A 
HETATM    5  C4  UNL     1      25.595   5.573  49.341  1.00  0.00    -0.008 A 
HETATM    6  C5  UNL     1      24.574   6.642  49.495  1.00  0.00     0.076 C 
HETATM    7  C7  UNL     1      23.277   6.422  48.826  1.00  0.00    -0.041 A 
HETATM    8  C8  UNL     1      23.478   6.675  47.461  1.00  0.00     0.008 A 
HETATM    9  C9  UNL     1      22.441   6.593  46.522  1.00  0.00     0.001 A 
HETATM   10  C10 UNL     1      21.166   6.252  46.923  1.00  0.00     0.001 A 
HETATM   11  C11 UNL     1      20.972   6.003  48.266  1.00  0.00     0.007 A 
HETATM   12  C12 UNL     1      21.967   6.078  49.190  1.00  0.00    -0.051 A 
HETATM   13  C13 UNL     1      21.931   5.813  50.628  1.00  0.00     0.041 C 
HETATM   14  C14 UNL     1      21.122   4.527  50.946  1.00  0.00     0.025 C 
HETATM   15  C15 UNL     1      21.636   3.995  52.280  1.00  0.00     0.126 C 
HETATM   16  N3  UNL     1      22.884   3.249  52.075  1.00  0.00    -0.352 N 
HETATM   17  C16 UNL     1      22.741   1.800  52.056  1.00  0.00     0.220 C 
HETATM   18  O2  UNL     1      23.723   1.008  51.887  1.00  0.00    -0.273 OA
HETATM   19  C19 UNL     1      24.279   3.691  51.837  1.00  0.00     0.130 C 
HETATM   20  C20 UNL     1      24.414   3.636  50.341  1.00  0.00     0.060 C 
ENDROOT
BRANCH  17  21
HETATM   21  C17 UNL     1      21.420   1.137  52.233  1.00  0.00     0.113 C 
BRANCH  21  22
HETATM   22  C18 UNL     1      21.551  -0.249  52.769  1.00  0.00     0.080 C 
BRANCH  22  23
HETATM   23  S1  UNL     1      21.368  -0.331  54.562  1.00  0.00    -0.182 SA
HETATM   24  H23 UNL     1      22.531  -0.740  55.216  1.00  0.00     0.101 HD
ENDBRANCH  22  23
ENDBRANCH  21  22
ENDBRANCH  17  21
BRANCH   1  25
HETATM   25  N1  UNL     1      27.642   6.929  49.347  1.00  0.00     0.107 N 
HETATM   26  H1  UNL     1      26.954   7.585  49.754  1.00  0.00     0.316 HD
HETATM   27  H2  UNL     1      28.249   7.360  48.614  1.00  0.00     0.316 HD
ENDBRANCH   1  25
BRANCH   6  28
HETATM   28  C6  UNL     1      25.105   8.030  49.127  1.00  0.00     0.178 C 
BRANCH  28  29
HETATM   29  O1  UNL     1      25.383   8.689  50.333  1.00  0.00    -0.400 OA
HETATM   30  H8  UNL     1      25.079   8.097  51.074  1.00  0.00     0.209 HD
ENDBRANCH  28  29
ENDBRANCH   6  28
TORSDOF 6
ENDMDL
MODEL 6
REMARK VINA RESULT:      -6.6      5.254      8.222
REMARK  6 active torsions:
REMARK  status: ('A' for Active; 'I' for Inactive)
REMARK    1  A    between atoms: N1_1  and  C1_2 
REMARK    2  A    between atoms: C5_7  and  C6_8 
REMARK    3  A    between atoms: C6_8  and  O1_9 
REMARK       I    between atoms: N3_19  and  C16_20 
REMARK    4  A    between atoms: C16_20  and  C17_22 
REMARK    5  A    between atoms: C17_22  and  C18_23 
REMARK    6  A    between atoms: C18_23  and  S1_24 
ROOT
HETATM    1  C1  UNL     1      28.357   7.441  48.483  1.00  0.00     0.369 A 
HETATM    2  N2  UNL     1      28.686   6.130  48.027  1.00  0.00    -0.262 NA
HETATM    3  C2  UNL     1      27.716   5.349  48.256  1.00  0.00     0.120 A 
HETATM    4  C3  UNL     1      26.594   6.007  48.897  1.00  0.00    -0.032 A 
HETATM    5  C4  UNL     1      26.984   7.272  49.035  1.00  0.00    -0.008 A 
HETATM    6  C5  UNL     1      26.259   8.415  49.648  1.00  0.00     0.076 C 
HETATM    7  C7  UNL     1      24.979   8.800  49.025  1.00  0.00    -0.041 A 
HETATM    8  C8  UNL     1      25.296   9.504  47.852  1.00  0.00     0.008 A 
HETATM    9  C9  UNL     1      24.312  10.051  47.017  1.00  0.00     0.001 A 
HETATM   10  C10 UNL     1      22.977   9.910  47.331  1.00  0.00     0.001 A 
HETATM   11  C11 UNL     1      22.669   9.217  48.484  1.00  0.00     0.007 A 
HETATM   12  C12 UNL     1      23.611   8.679  49.305  1.00  0.00    -0.051 A 
HETATM   13  C13 UNL     1      23.448   7.896  50.530  1.00  0.00     0.041 C 
HETATM   14  C14 UNL     1      22.328   6.833  50.376  1.00  0.00     0.025 C 
HETATM   15  C15 UNL     1      22.633   5.716  51.370  1.00  0.00     0.126 C 
HETATM   16  N3  UNL     1      23.661   4.823  50.820  1.00  0.00    -0.352 N 
HETATM   17  C16 UNL     1      23.159   3.580  50.253  1.00  0.00     0.220 C 
HETATM   18  O2  UNL     1      23.917   2.698  49.735  1.00  0.00    -0.273 OA
HETATM   19  C19 UNL     1      25.132   4.961  50.688  1.00  0.00     0.130 C 
HETATM   20  C20 UNL     1      25.312   5.458  49.281  1.00  0.00     0.060 C 
ENDROOT
BRANCH  17  21
HETATM   21  C17 UNL     1      21.708   3.249  50.240  1.00  0.00     0.113 C 
BRANCH  21  22
HETATM   22  C18 UNL     1      21.397   2.032  51.044  1.00  0.00     0.080 C 
BRANCH  22  23
HETATM   23  S1  UNL     1      20.363   2.384  52.481  1.00  0.00    -0.182 SA
HETATM   24  H23 UNL     1      19.854   3.684  52.487  1.00  0.00     0.101 HD
ENDBRANCH  22  23
ENDBRANCH  21  22
ENDBRANCH  17  21
BRANCH   1  25
HETATM   25  N1  UNL     1      29.304   7.965  49.440  1.00  0.00     0.107 N 
HETATM   26  H1  UNL     1      30.146   7.366  49.417  1.00  0.00     0.316 HD
HETATM   27  H2  UNL     1      28.823   7.978  50.367  1.00  0.00     0.316 HD
ENDBRANCH   1  25
BRANCH   6  28
HETATM   28  C6  UNL     1      27.138   9.659  49.811  1.00  0.00     0.178 C 
BRANCH  28  29
HETATM   29  O1  UNL     1      27.588   9.663  51.139  1.00  0.00    -0.400 OA
HETATM   30  H8  UNL     1      27.440  10.579  51.502  1.00  0.00     0.209 HD
ENDBRANCH  28  29
ENDBRANCH   6  28
TORSDOF 6
ENDMDL
MODEL 7
REMARK VINA RESULT:      -6.5      3.787      6.515
REMARK  6 active torsions:
REMARK  status: ('A' for Active; 'I' for Inactive)
REMARK    1  A    between atoms: N1_1  and  C1_2 
REMARK    2  A    between atoms: C5_7  and  C6_8 
REMARK    3  A    between atoms: C6_8  and  O1_9 
REMARK       I    between atoms: N3_19  and  C16_20 
REMARK    4  A    between atoms: C16_20  and  C17_22 
REMARK    5  A    between atoms: C17_22  and  C18_23 
REMARK    6  A    between atoms: C18_23  and  S1_24 
ROOT
HETATM    1  C1  UNL     1      24.919   1.865  52.765  1.00  0.00     0.369 A 
HETATM    2  N2  UNL     1      24.955   0.562  53.342  1.00  0.00    -0.262 NA
HETATM    3  C2  UNL     1      23.806   0.036  53.266  1.00  0.00     0.120 A 
HETATM    4  C3  UNL     1      22.826   0.898  52.634  1.00  0.00    -0.032 A 
HETATM    5  C4  UNL     1      23.501   2.005  52.333  1.00  0.00    -0.008 A 
HETATM    6  C5  UNL     1      23.015   3.253  51.689  1.00  0.00     0.076 C 
HETATM    7  C7  UNL     1      22.468   3.127  50.325  1.00  0.00    -0.041 A 
HETATM    8  C8  UNL     1      23.566   2.992  49.460  1.00  0.00     0.008 A 
HETATM    9  C9  UNL     1      23.417   2.880  48.071  1.00  0.00     0.001 A 
HETATM   10  C10 UNL     1      22.160   2.899  47.503  1.00  0.00     0.001 A 
HETATM   11  C11 UNL     1      21.084   3.031  48.356  1.00  0.00     0.007 A 
HETATM   12  C12 UNL     1      21.210   3.140  49.706  1.00  0.00    -0.051 A 
HETATM   13  C13 UNL     1      20.179   3.250  50.738  1.00  0.00     0.041 C 
HETATM   14  C14 UNL     1      19.011   2.262  50.476  1.00  0.00     0.025 C 
HETATM   15  C15 UNL     1      18.349   1.987  51.823  1.00  0.00     0.126 C 
HETATM   16  N3  UNL     1      19.126   0.990  52.570  1.00  0.00    -0.352 N 
HETATM   17  C16 UNL     1      18.592  -0.364  52.530  1.00  0.00     0.220 C 
HETATM   18  O2  UNL     1      19.145  -1.346  53.122  1.00  0.00    -0.273 OA
HETATM   19  C19 UNL     1      20.394   1.084  53.333  1.00  0.00     0.130 C 
HETATM   20  C20 UNL     1      21.433   0.637  52.344  1.00  0.00     0.060 C 
ENDROOT
BRANCH  17  21
HETATM   21  C17 UNL     1      17.347  -0.699  51.785  1.00  0.00     0.113 C 
BRANCH  21  22
HETATM   22  C18 UNL     1      16.200  -0.980  52.696  1.00  0.00     0.080 C 
BRANCH  22  23
HETATM   23  S1  UNL     1      14.928   0.298  52.640  1.00  0.00    -0.182 SA
HETATM   24  H23 UNL     1      15.158   1.260  51.654  1.00  0.00     0.101 HD
ENDBRANCH  22  23
ENDBRANCH  21  22
ENDBRANCH  17  21
BRANCH   1  25
HETATM   25  N1  UNL     1      25.350   2.903  53.675  1.00  0.00     0.107 N 
HETATM   26  H1  UNL     1      25.333   3.802  53.165  1.00  0.00     0.316 HD
HETATM   27  H2  UNL     1      26.300   2.632  54.015  1.00  0.00     0.316 HD
ENDBRANCH   1  25
BRANCH   6  28
HETATM   28  C6  UNL     1      24.052   4.379  51.717  1.00  0.00     0.178 C 
BRANCH  28  29
HETATM   29  O1  UNL     1      23.663   5.261  52.736  1.00  0.00    -0.400 OA
HETATM   30  H8  UNL     1      23.474   6.142  52.313  1.00  0.00     0.209 HD
ENDBRANCH  28  29
ENDBRANCH   6  28
TORSDOF 6
ENDMDL
MODEL 8
REMARK VINA RESULT:      -6.4      3.791      7.136
REMARK  6 active torsions:
REMARK  status: ('A' for Active; 'I' for Inactive)
REMARK    1  A    between atoms: N1_1  and  C1_2 
REMARK    2  A    between atoms: C5_7  and  C6_8 
REMARK    3  A    between atoms: C6_8  and  O1_9 
REMARK       I    between atoms: N3_19  and  C16_20 
REMARK    4  A    between atoms: C16_20  and  C17_22 
REMARK    5  A    between atoms: C17_22  and  C18_23 
REMARK    6  A    between atoms: C18_23  and  S1_24 
ROOT
HETATM    1  C1  UNL     1      24.383   3.287  53.552  1.00  0.00     0.369 A 
HETATM    2  N2  UNL     1      24.222   4.704  53.551  1.00  0.00    -0.262 NA
HETATM    3  C2  UNL     1      23.381   5.031  52.663  1.00  0.00     0.120 A 
HETATM    4  C3  UNL     1      22.852   3.895  51.933  1.00  0.00    -0.032 A 
HETATM    5  C4  UNL     1      23.461   2.841  52.471  1.00  0.00    -0.008 A 
HETATM    6  C5  UNL     1      23.336   1.404  52.115  1.00  0.00     0.076 C 
HETATM    7  C7  UNL     1      21.999   0.799  52.260  1.00  0.00    -0.041 A 
HETATM    8  C8  UNL     1      21.801   0.577  53.632  1.00  0.00     0.008 A 
HETATM    9  C9  UNL     1      20.638  -0.022  54.135  1.00  0.00     0.001 A 
HETATM   10  C10 UNL     1      19.633  -0.417  53.277  1.00  0.00     0.001 A 
HETATM   11  C11 UNL     1      19.830  -0.198  51.930  1.00  0.00     0.007 A 
HETATM   12  C12 UNL     1      20.952   0.382  51.424  1.00  0.00    -0.051 A 
HETATM   13  C13 UNL     1      21.294   0.713  50.041  1.00  0.00     0.041 C 
HETATM   14  C14 UNL     1      20.088   1.348  49.298  1.00  0.00     0.025 C 
HETATM   15  C15 UNL     1      20.659   2.196  48.166  1.00  0.00     0.126 C 
HETATM   16  N3  UNL     1      21.115   3.490  48.689  1.00  0.00    -0.352 N 
HETATM   17  C16 UNL     1      20.201   4.602  48.468  1.00  0.00     0.220 C 
HETATM   18  O2  UNL     1      20.444   5.788  48.861  1.00  0.00    -0.273 OA
HETATM   19  C19 UNL     1      22.325   3.885  49.451  1.00  0.00     0.130 C 
HETATM   20  C20 UNL     1      21.861   3.868  50.880  1.00  0.00     0.060 C 
ENDROOT
BRANCH  17  21
HETATM   21  C17 UNL     1      18.904   4.426  47.760  1.00  0.00     0.113 C 
BRANCH  21  22
HETATM   22  C18 UNL     1      17.755   4.976  48.537  1.00  0.00     0.080 C 
BRANCH  22  23
HETATM   23  S1  UNL     1      17.470   4.096  50.087  1.00  0.00    -0.182 SA
HETATM   24  H23 UNL     1      18.205   4.613  51.156  1.00  0.00     0.101 HD
ENDBRANCH  22  23
ENDBRANCH  21  22
ENDBRANCH  17  21
BRANCH   1  25
HETATM   25  N1  UNL     1      25.752   2.870  53.351  1.00  0.00     0.107 N 
HETATM   26  H1  UNL     1      25.741   1.913  52.961  1.00  0.00     0.316 HD
HETATM   27  H2  UNL     1      26.229   2.939  54.279  1.00  0.00     0.316 HD
ENDBRANCH   1  25
BRANCH   6  28
HETATM   28  C6  UNL     1      24.370   0.524  52.823  1.00  0.00     0.178 C 
BRANCH  28  29
HETATM   29  O1  UNL     1      25.476   0.432  51.967  1.00  0.00    -0.400 OA
HETATM   30  H8  UNL     1      25.943   1.311  51.986  1.00  0.00     0.209 HD
ENDBRANCH  28  29
ENDBRANCH   6  28
TORSDOF 6
ENDMDL
MODEL 9
REMARK VINA RESULT:      -6.4      2.219      2.804
REMARK  6 active torsions:
REMARK  status: ('A' for Active; 'I' for Inactive)
REMARK    1  A    between atoms: N1_1  and  C1_2 
REMARK    2  A    between atoms: C5_7  and  C6_8 
REMARK    3  A    between atoms: C6_8  and  O1_9 
REMARK       I    between atoms: N3_19  and  C16_20 
REMARK    4  A    between atoms: C16_20  and  C17_22 
REMARK    5  A    between atoms: C17_22  and  C18_23 
REMARK    6  A    between atoms: C18_23  and  S1_24 
ROOT
HETATM    1  C1  UNL     1      20.405   3.910  50.771  1.00  0.00     0.369 A 
HETATM    2  N2  UNL     1      20.176   3.753  52.170  1.00  0.00    -0.262 NA
HETATM    3  C2  UNL     1      21.269   3.475  52.746  1.00  0.00     0.120 A 
HETATM    4  C3  UNL     1      22.392   3.401  51.832  1.00  0.00    -0.032 A 
HETATM    5  C4  UNL     1      21.867   3.662  50.638  1.00  0.00    -0.008 A 
HETATM    6  C5  UNL     1      22.533   3.704  49.310  1.00  0.00     0.076 C 
HETATM    7  C7  UNL     1      23.608   4.700  49.139  1.00  0.00    -0.041 A 
HETATM    8  C8  UNL     1      22.983   5.946  48.974  1.00  0.00     0.008 A 
HETATM    9  C9  UNL     1      23.708   7.126  48.752  1.00  0.00     0.001 A 
HETATM   10  C10 UNL     1      25.085   7.093  48.690  1.00  0.00     0.001 A 
HETATM   11  C11 UNL     1      25.697   5.867  48.853  1.00  0.00     0.007 A 
HETATM   12  C12 UNL     1      25.009   4.713  49.069  1.00  0.00    -0.051 A 
HETATM   13  C13 UNL     1      25.505   3.356  49.294  1.00  0.00     0.041 C 
HETATM   14  C14 UNL     1      26.709   3.349  50.273  1.00  0.00     0.025 C 
HETATM   15  C15 UNL     1      26.751   1.968  50.919  1.00  0.00     0.126 C 
HETATM   16  N3  UNL     1      25.768   1.893  52.008  1.00  0.00    -0.352 N 
HETATM   17  C16 UNL     1      26.318   2.050  53.347  1.00  0.00     0.220 C 
HETATM   18  O2  UNL     1      25.603   2.013  54.399  1.00  0.00    -0.273 OA
HETATM   19  C19 UNL     1      24.294   1.730  52.008  1.00  0.00     0.130 C 
HETATM   20  C20 UNL     1      23.785   3.140  52.119  1.00  0.00     0.060 C 
ENDROOT
BRANCH  17  21
HETATM   21  C17 UNL     1      27.772   2.267  53.582  1.00  0.00     0.113 C 
BRANCH  21  22
HETATM   22  C18 UNL     1      28.397   1.145  54.340  1.00  0.00     0.080 C 
BRANCH  22  23
HETATM   23  S1  UNL     1      28.345  -0.422  53.447  1.00  0.00    -0.182 SA
HETATM   24  H23 UNL     1      27.872  -0.294  52.139  1.00  0.00     0.101 HD
ENDBRANCH  22  23
ENDBRANCH  21  22
ENDBRANCH  17  21
BRANCH   1  25
HETATM   25  N1  UNL     1      19.593   3.032  49.959  1.00  0.00     0.107 N 
HETATM   26  H1  UNL     1      19.103   3.610  49.256  1.00  0.00     0.316 HD
HETATM   27  H2  UNL     1      18.950   2.527  50.609  1.00  0.00     0.316 HD
ENDBRANCH   1  25
BRANCH   6  28
HETATM   28  C6  UNL     1      21.541   3.826  48.150  1.00  0.00     0.178 C 
BRANCH  28  29
HETATM   29  O1  UNL     1      21.464   2.560  47.552  1.00  0.00    -0.400 OA
HETATM   30  H8  UNL     1      21.007   2.671  46.674  1.00  0.00     0.209 HD
ENDBRANCH  28  29
ENDBRANCH   6  28
TORSDOF 6
ENDMDL
