MODEL 1
REMARK VINA RESULT:      -8.2      0.000      0.000
REMARK  1 active torsions:
REMARK  status: ('A' for Active; 'I' for Inactive)
REMARK    1  A    between atoms: O1_1  and  N1_2 
ROOT
HETATM    1  N1  UNL     1      20.849   5.139  49.173  1.00  0.00    -0.197 N 
HETATM    2  C1  UNL     1      20.947   4.126  50.075  1.00  0.00     0.038 C 
HETATM    3  C2  UNL     1      21.050   3.277  50.837  1.00  0.00    -0.051 C 
HETATM    4  C3  UNL     1      21.202   2.226  51.786  1.00  0.00     0.364 C 
HETATM    5  N2  UNL     1      19.981   2.048  52.542  1.00  0.00     0.094 N 
HETATM    6  C4  UNL     1      20.198   1.041  53.543  1.00  0.00     0.270 C 
HETATM    7  C5  UNL     1      20.362  -0.363  53.013  1.00  0.00     0.030 C 
HETATM    8  C6  UNL     1      20.655  -1.341  54.130  1.00  0.00     0.002 C 
HETATM    9  C7  UNL     1      21.823  -1.032  54.952  1.00  0.00     0.000 C 
HETATM   10  C8  UNL     1      23.202  -1.071  54.448  1.00  0.00     0.000 C 
HETATM   11  C9  UNL     1      23.634  -0.257  53.311  1.00  0.00     0.004 C 
HETATM   12  C10 UNL     1      25.153  -0.417  53.103  1.00  0.00     0.027 C 
HETATM   13  C11 UNL     1      25.931   0.117  54.219  1.00  0.00    -0.027 C 
HETATM   14  C12 UNL     1      26.852   1.098  54.324  1.00  0.00    -0.003 C 
HETATM   15  C13 UNL     1      27.503   2.063  53.450  1.00  0.00     0.019 C 
HETATM   16  C14 UNL     1      27.490   2.421  52.174  1.00  0.00     0.118 C 
HETATM   17  N3  UNL     1      26.821   2.040  50.990  1.00  0.00    -0.257 NA
HETATM   18  C15 UNL     1      26.365   2.894  50.153  1.00  0.00     0.192 C 
HETATM   19  N4  UNL     1      26.357   4.323  50.104  1.00  0.00    -0.398 NA
HETATM   20  C16 UNL     1      25.228   4.924  49.996  1.00  0.00     0.345 C 
HETATM   21  C17 UNL     1      24.253   5.989  49.883  1.00  0.00     0.115 C 
HETATM   22  N5  UNL     1      23.140   5.389  49.816  1.00  0.00    -0.281 NA
HETATM   23  C18 UNL     1      21.857   6.007  49.694  1.00  0.00     0.314 C 
HETATM   24  H4  UNL     1      19.709   2.917  53.053  1.00  0.00     0.317 HD
ENDROOT
BRANCH   1  25
HETATM   25  O1  UNL     1      19.896   4.311  48.688  1.00  0.00    -0.278 OA
HETATM   26  H1  UNL     1      19.349   3.920  49.430  1.00  0.00     0.245 HD
ENDBRANCH   1  25
TORSDOF 1
ENDMDL
MODEL 2
REMARK VINA RESULT:      -8.2      1.961      5.497
REMARK  1 active torsions:
REMARK  status: ('A' for Active; 'I' for Inactive)
REMARK    1  A    between atoms: O1_1  and  N1_2 
ROOT
HETATM    1  N1  UNL     1      25.295   6.596  49.209  1.00  0.00    -0.197 N 
HETATM    2  C1  UNL     1      25.363   5.420  49.889  1.00  0.00     0.038 C 
HETATM    3  C2  UNL     1      25.400   4.427  50.458  1.00  0.00    -0.051 C 
HETATM    4  C3  UNL     1      25.421   3.190  51.164  1.00  0.00     0.364 C 
HETATM    5  N2  UNL     1      26.702   2.536  50.995  1.00  0.00     0.094 N 
HETATM    6  C4  UNL     1      26.657   1.256  51.647  1.00  0.00     0.270 C 
HETATM    7  C5  UNL     1      26.608   1.309  53.155  1.00  0.00     0.030 C 
HETATM    8  C6  UNL     1      26.494  -0.079  53.749  1.00  0.00     0.002 C 
HETATM    9  C7  UNL     1      25.355  -0.872  53.290  1.00  0.00     0.000 C 
HETATM   10  C8  UNL     1      23.958  -0.538  53.596  1.00  0.00     0.000 C 
HETATM   11  C9  UNL     1      23.369   0.748  53.221  1.00  0.00     0.004 C 
HETATM   12  C10 UNL     1      21.865   0.751  53.558  1.00  0.00     0.027 C 
HETATM   13  C11 UNL     1      21.110  -0.214  52.762  1.00  0.00    -0.027 C 
HETATM   14  C12 UNL     1      20.100  -0.098  51.875  1.00  0.00    -0.003 C 
HETATM   15  C13 UNL     1      19.295   0.966  51.292  1.00  0.00     0.019 C 
HETATM   16  C14 UNL     1      19.187   2.285  51.356  1.00  0.00     0.118 C 
HETATM   17  N3  UNL     1      19.813   3.352  52.038  1.00  0.00    -0.257 NA
HETATM   18  C15 UNL     1      20.122   4.451  51.459  1.00  0.00     0.192 C 
HETATM   19  N4  UNL     1      19.976   4.939  50.124  1.00  0.00    -0.398 NA
HETATM   20  C16 UNL     1      21.026   5.335  49.500  1.00  0.00     0.345 C 
HETATM   21  C17 UNL     1      21.874   5.863  48.451  1.00  0.00     0.115 C 
HETATM   22  N5  UNL     1      23.037   5.847  48.952  1.00  0.00    -0.281 NA
HETATM   23  C18 UNL     1      24.237   6.275  48.304  1.00  0.00     0.314 C 
HETATM   24  H4  UNL     1      26.914   2.347  49.990  1.00  0.00     0.317 HD
ENDROOT
BRANCH   1  25
HETATM   25  O1  UNL     1      26.296   6.890  50.070  1.00  0.00    -0.278 OA
HETATM   26  H1  UNL     1      25.939   7.063  50.989  1.00  0.00     0.245 HD
ENDBRANCH   1  25
TORSDOF 1
ENDMDL
MODEL 3
REMARK VINA RESULT:      -7.5      2.668      5.803
REMARK  1 active torsions:
REMARK  status: ('A' for Active; 'I' for Inactive)
REMARK    1  A    between atoms: O1_1  and  N1_2 
ROOT
HETATM    1  N1  UNL     1      26.776   1.961  53.327  1.00  0.00    -0.197 N 
HETATM    2  C1  UNL     1      25.485   1.565  53.167  1.00  0.00     0.038 C 
HETATM    3  C2  UNL     1      24.397   1.242  53.015  1.00  0.00    -0.051 C 
HETATM    4  C3  UNL     1      23.043   0.853  52.804  1.00  0.00     0.364 C 
HETATM    5  N2  UNL     1      22.798  -0.453  53.377  1.00  0.00     0.094 N 
HETATM    6  C4  UNL     1      21.450  -0.847  53.072  1.00  0.00     0.270 C 
HETATM    7  C5  UNL     1      20.378  -0.062  53.788  1.00  0.00     0.030 C 
HETATM    8  C6  UNL     1      18.996  -0.501  53.353  1.00  0.00     0.002 C 
HETATM    9  C7  UNL     1      18.728  -0.421  51.919  1.00  0.00     0.000 C 
HETATM   10  C8  UNL     1      18.649   0.844  51.178  1.00  0.00     0.000 C 
HETATM   11  C9  UNL     1      19.760   1.795  51.147  1.00  0.00     0.004 C 
HETATM   12  C10 UNL     1      19.427   2.956  50.190  1.00  0.00     0.027 C 
HETATM   13  C11 UNL     1      19.313   2.521  48.799  1.00  0.00    -0.027 C 
HETATM   14  C12 UNL     1      19.984   2.834  47.670  1.00  0.00    -0.003 C 
HETATM   15  C13 UNL     1      21.085   3.701  47.276  1.00  0.00     0.019 C 
HETATM   16  C14 UNL     1      21.925   4.561  47.832  1.00  0.00     0.118 C 
HETATM   17  N3  UNL     1      22.184   5.086  49.117  1.00  0.00    -0.257 NA
HETATM   18  C15 UNL     1      23.371   5.236  49.572  1.00  0.00     0.192 C 
HETATM   19  N4  UNL     1      24.672   4.975  49.042  1.00  0.00    -0.398 NA
HETATM   20  C16 UNL     1      25.459   4.208  49.706  1.00  0.00     0.345 C 
HETATM   21  C17 UNL     1      26.636   3.447  50.073  1.00  0.00     0.115 C 
HETATM   22  N5  UNL     1      26.326   2.905  51.176  1.00  0.00    -0.281 NA
HETATM   23  C18 UNL     1      27.161   2.046  51.954  1.00  0.00     0.314 C 
HETATM   24  H4  UNL     1      23.419  -1.183  52.963  1.00  0.00     0.317 HD
ENDROOT
BRANCH   1  25
HETATM   25  O1  UNL     1      26.402   1.878  54.624  1.00  0.00    -0.278 OA
HETATM   26  H1  UNL     1      27.168   1.587  55.200  1.00  0.00     0.245 HD
ENDBRANCH   1  25
TORSDOF 1
ENDMDL
MODEL 4
REMARK VINA RESULT:      -7.5      3.652      6.891
REMARK  1 active torsions:
REMARK  status: ('A' for Active; 'I' for Inactive)
REMARK    1  A    between atoms: O1_1  and  N1_2 
ROOT
HETATM    1  N1  UNL     1      15.750  -1.052  52.766  1.00  0.00    -0.197 N 
HETATM    2  C1  UNL     1      17.087  -0.818  52.848  1.00  0.00     0.038 C 
HETATM    3  C2  UNL     1      18.210  -0.603  52.906  1.00  0.00    -0.051 C 
HETATM    4  C3  UNL     1      19.604  -0.316  52.962  1.00  0.00     0.364 C 
HETATM    5  N2  UNL     1      20.164  -0.779  54.215  1.00  0.00     0.094 N 
HETATM    6  C4  UNL     1      21.548  -0.398  54.272  1.00  0.00     0.270 C 
HETATM    7  C5  UNL     1      22.454  -1.135  53.314  1.00  0.00     0.030 C 
HETATM    8  C6  UNL     1      23.874  -0.620  53.398  1.00  0.00     0.002 C 
HETATM    9  C7  UNL     1      24.044   0.812  53.164  1.00  0.00     0.000 C 
HETATM   10  C8  UNL     1      23.801   1.456  51.867  1.00  0.00     0.000 C 
HETATM   11  C9  UNL     1      22.505   1.376  51.193  1.00  0.00     0.004 C 
HETATM   12  C10 UNL     1      22.520   2.252  49.925  1.00  0.00     0.027 C 
HETATM   13  C11 UNL     1      22.658   3.675  50.228  1.00  0.00    -0.027 C 
HETATM   14  C12 UNL     1      21.878   4.753  50.001  1.00  0.00    -0.003 C 
HETATM   15  C13 UNL     1      20.592   5.041  49.382  1.00  0.00     0.019 C 
HETATM   16  C14 UNL     1      19.610   4.392  48.773  1.00  0.00     0.118 C 
HETATM   17  N3  UNL     1      19.307   3.061  48.408  1.00  0.00    -0.257 NA
HETATM   18  C15 UNL     1      18.141   2.556  48.561  1.00  0.00     0.192 C 
HETATM   19  N4  UNL     1      16.905   3.059  49.074  1.00  0.00    -0.398 NA
HETATM   20  C16 UNL     1      16.345   2.429  50.042  1.00  0.00     0.345 C 
HETATM   21  C17 UNL     1      15.388   2.080  51.073  1.00  0.00     0.115 C 
HETATM   22  N5  UNL     1      15.867   1.034  51.603  1.00  0.00    -0.281 NA
HETATM   23  C18 UNL     1      15.286   0.296  52.679  1.00  0.00     0.314 C 
HETATM   24  H4  UNL     1      19.701  -0.332  55.037  1.00  0.00     0.317 HD
ENDROOT
BRANCH   1  25
HETATM   25  O1  UNL     1      16.198  -2.325  52.850  1.00  0.00    -0.278 OA
HETATM   26  H1  UNL     1      16.188  -2.649  53.797  1.00  0.00     0.245 HD
ENDBRANCH   1  25
TORSDOF 1
ENDMDL
MODEL 5
REMARK VINA RESULT:      -7.2      2.817      8.021
REMARK  1 active torsions:
REMARK  status: ('A' for Active; 'I' for Inactive)
REMARK    1  A    between atoms: O1_1  and  N1_2 
ROOT
HETATM    1  N1  UNL     1      24.920  -0.776  53.670  1.00  0.00    -0.197 N 
HETATM    2  C1  UNL     1      24.717   0.331  52.905  1.00  0.00     0.038 C 
HETATM    3  C2  UNL     1      24.526   1.261  52.265  1.00  0.00    -0.051 C 
HETATM    4  C3  UNL     1      24.263   2.415  51.472  1.00  0.00     0.364 C 
HETATM    5  N2  UNL     1      25.377   3.337  51.542  1.00  0.00     0.094 N 
HETATM    6  C4  UNL     1      25.042   4.523  50.801  1.00  0.00     0.270 C 
HETATM    7  C5  UNL     1      24.969   4.342  49.304  1.00  0.00     0.030 C 
HETATM    8  C6  UNL     1      24.545   5.622  48.618  1.00  0.00     0.002 C 
HETATM    9  C7  UNL     1      23.274   6.189  49.064  1.00  0.00     0.000 C 
HETATM   10  C8  UNL     1      21.975   5.542  48.839  1.00  0.00     0.000 C 
HETATM   11  C9  UNL     1      21.685   4.194  49.329  1.00  0.00     0.004 C 
HETATM   12  C10 UNL     1      20.210   3.844  49.054  1.00  0.00     0.027 C 
HETATM   13  C11 UNL     1      19.283   4.686  49.808  1.00  0.00    -0.027 C 
HETATM   14  C12 UNL     1      18.343   4.428  50.741  1.00  0.00    -0.003 C 
HETATM   15  C13 UNL     1      17.800   3.267  51.431  1.00  0.00     0.019 C 
HETATM   16  C14 UNL     1      17.978   1.954  51.466  1.00  0.00     0.118 C 
HETATM   17  N3  UNL     1      18.802   0.995  50.838  1.00  0.00    -0.257 NA
HETATM   18  C15 UNL     1      19.354   0.036  51.481  1.00  0.00     0.192 C 
HETATM   19  N4  UNL     1      19.349  -0.366  52.853  1.00  0.00    -0.398 NA
HETATM   20  C16 UNL     1      20.474  -0.479  53.460  1.00  0.00     0.345 C 
HETATM   21  C17 UNL     1      21.440  -0.730  54.510  1.00  0.00     0.115 C 
HETATM   22  N5  UNL     1      22.561  -0.507  53.963  1.00  0.00    -0.281 NA
HETATM   23  C18 UNL     1      23.839  -0.617  54.591  1.00  0.00     0.314 C 
HETATM   24  H4  UNL     1      25.567   3.646  52.521  1.00  0.00     0.317 HD
ENDROOT
BRANCH   1  25
HETATM   25  O1  UNL     1      25.939  -0.916  52.793  1.00  0.00    -0.278 OA
HETATM   26  H1  UNL     1      26.019  -0.112  52.202  1.00  0.00     0.245 HD
ENDBRANCH   1  25
TORSDOF 1
ENDMDL
MODEL 6
REMARK VINA RESULT:      -7.1     17.810     21.077
REMARK  1 active torsions:
REMARK  status: ('A' for Active; 'I' for Inactive)
REMARK    1  A    between atoms: O1_1  and  N1_2 
ROOT
HETATM    1  N1  UNL     1      39.320   8.051  50.097  1.00  0.00    -0.197 N 
HETATM    2  C1  UNL     1      40.084   7.924  51.215  1.00  0.00     0.038 C 
HETATM    3  C2  UNL     1      40.737   7.835  52.152  1.00  0.00    -0.051 C 
HETATM    4  C3  UNL     1      41.562   7.745  53.310  1.00  0.00     0.364 C 
HETATM    5  N2  UNL     1      40.841   7.110  54.393  1.00  0.00     0.094 N 
HETATM    6  C4  UNL     1      41.673   7.113  55.565  1.00  0.00     0.270 C 
HETATM    7  C5  UNL     1      42.872   6.198  55.501  1.00  0.00     0.030 C 
HETATM    8  C6  UNL     1      43.722   6.320  56.747  1.00  0.00     0.002 C 
HETATM    9  C7  UNL     1      44.200   7.666  57.059  1.00  0.00     0.000 C 
HETATM   10  C8  UNL     1      45.168   8.394  56.229  1.00  0.00     0.000 C 
HETATM   11  C9  UNL     1      44.918   8.679  54.816  1.00  0.00     0.004 C 
HETATM   12  C10 UNL     1      46.048   9.563  54.254  1.00  0.00     0.027 C 
HETATM   13  C11 UNL     1      46.080  10.889  54.867  1.00  0.00    -0.027 C 
HETATM   14  C12 UNL     1      45.940  12.141  54.381  1.00  0.00    -0.003 C 
HETATM   15  C13 UNL     1      45.702  12.776  53.093  1.00  0.00     0.019 C 
HETATM   16  C14 UNL     1      45.511  12.428  51.829  1.00  0.00     0.118 C 
HETATM   17  N3  UNL     1      45.441  11.236  51.073  1.00  0.00    -0.257 NA
HETATM   18  C15 UNL     1      44.557  11.048  50.167  1.00  0.00     0.192 C 
HETATM   19  N4  UNL     1      43.482  11.839  49.657  1.00  0.00    -0.398 NA
HETATM   20  C16 UNL     1      42.297  11.346  49.679  1.00  0.00     0.345 C 
HETATM   21  C17 UNL     1      40.864  11.224  49.502  1.00  0.00     0.115 C 
HETATM   22  N5  UNL     1      40.590  10.072  49.951  1.00  0.00    -0.281 NA
HETATM   23  C18 UNL     1      39.293   9.476  49.999  1.00  0.00     0.314 C 
HETATM   24  H4  UNL     1      39.974   7.634  54.645  1.00  0.00     0.317 HD
ENDROOT
BRANCH   1  25
HETATM   25  O1  UNL     1      39.351   6.702  50.199  1.00  0.00    -0.278 OA
HETATM   26  H1  UNL     1      40.268   6.382  50.441  1.00  0.00     0.245 HD
ENDBRANCH   1  25
TORSDOF 1
ENDMDL
MODEL 7
REMARK VINA RESULT:      -7.1      3.105      6.053
REMARK  1 active torsions:
REMARK  status: ('A' for Active; 'I' for Inactive)
REMARK    1  A    between atoms: O1_1  and  N1_2 
ROOT
HETATM    1  N1  UNL     1      26.014  -0.610  54.944  1.00  0.00    -0.197 N 
HETATM    2  C1  UNL     1      24.734  -0.626  54.484  1.00  0.00     0.038 C 
HETATM    3  C2  UNL     1      23.663  -0.629  54.080  1.00  0.00    -0.051 C 
HETATM    4  C3  UNL     1      22.338  -0.618  53.558  1.00  0.00     0.364 C 
HETATM    5  N2  UNL     1      21.638  -1.828  53.936  1.00  0.00     0.094 N 
HETATM    6  C4  UNL     1      20.338  -1.821  53.323  1.00  0.00     0.270 C 
HETATM    7  C5  UNL     1      19.375  -0.800  53.879  1.00  0.00     0.030 C 
HETATM    8  C6  UNL     1      18.061  -0.820  53.129  1.00  0.00     0.002 C 
HETATM    9  C7  UNL     1      18.153  -0.612  51.685  1.00  0.00     0.000 C 
HETATM   10  C8  UNL     1      18.575   0.656  51.074  1.00  0.00     0.000 C 
HETATM   11  C9  UNL     1      19.874   1.262  51.367  1.00  0.00     0.004 C 
HETATM   12  C10 UNL     1      20.080   2.508  50.483  1.00  0.00     0.027 C 
HETATM   13  C11 UNL     1      20.171   2.178  49.062  1.00  0.00    -0.027 C 
HETATM   14  C12 UNL     1      21.135   2.339  48.132  1.00  0.00    -0.003 C 
HETATM   15  C13 UNL     1      22.484   2.882  48.061  1.00  0.00     0.019 C 
HETATM   16  C14 UNL     1      23.373   3.453  48.860  1.00  0.00     0.118 C 
HETATM   17  N3  UNL     1      23.464   3.833  50.218  1.00  0.00    -0.257 NA
HETATM   18  C15 UNL     1      24.516   3.630  50.919  1.00  0.00     0.192 C 
HETATM   19  N4  UNL     1      25.789   3.040  50.643  1.00  0.00    -0.398 NA
HETATM   20  C16 UNL     1      26.178   2.059  51.373  1.00  0.00     0.345 C 
HETATM   21  C17 UNL     1      27.001   0.988  51.897  1.00  0.00     0.115 C 
HETATM   22  N5  UNL     1      26.321   0.509  52.852  1.00  0.00    -0.281 NA
HETATM   23  C18 UNL     1      26.706  -0.579  53.694  1.00  0.00     0.314 C 
HETATM   24  H4  UNL     1      22.123  -2.684  53.587  1.00  0.00     0.317 HD
ENDROOT
BRANCH   1  25
HETATM   25  O1  UNL     1      25.350  -0.639  56.122  1.00  0.00    -0.278 OA
HETATM   26  H1  UNL     1      24.759  -1.444  56.181  1.00  0.00     0.245 HD
ENDBRANCH   1  25
TORSDOF 1
ENDMDL
MODEL 8
REMARK VINA RESULT:      -7.0     10.817     13.161
REMARK  1 active torsions:
REMARK  status: ('A' for Active; 'I' for Inactive)
REMARK    1  A    between atoms: O1_1  and  N1_2 
ROOT
HETATM    1  N1  UNL     1      30.163   9.820  49.161  1.00  0.00    -0.197 N 
HETATM    2  C1  UNL     1      30.928   8.780  48.732  1.00  0.00     0.038 C 
HETATM    3  C2  UNL     1      31.576   7.916  48.353  1.00  0.00    -0.051 C 
HETATM    4  C3  UNL     1      32.387   6.853  47.861  1.00  0.00     0.364 C 
HETATM    5  N2  UNL     1      32.998   6.135  48.960  1.00  0.00     0.094 N 
HETATM    6  C4  UNL     1      33.872   5.128  48.425  1.00  0.00     0.270 C 
HETATM    7  C5  UNL     1      33.177   3.977  47.739  1.00  0.00     0.030 C 
HETATM    8  C6  UNL     1      34.177   3.005  47.150  1.00  0.00     0.002 C 
HETATM    9  C7  UNL     1      35.136   3.577  46.207  1.00  0.00     0.000 C 
HETATM   10  C8  UNL     1      34.759   4.112  44.892  1.00  0.00     0.000 C 
HETATM   11  C9  UNL     1      33.785   5.194  44.747  1.00  0.00     0.004 C 
HETATM   12  C10 UNL     1      33.697   5.622  43.269  1.00  0.00     0.027 C 
HETATM   13  C11 UNL     1      34.941   6.216  42.782  1.00  0.00    -0.027 C 
HETATM   14  C12 UNL     1      35.259   7.431  42.289  1.00  0.00    -0.003 C 
HETATM   15  C13 UNL     1      34.584   8.689  42.005  1.00  0.00     0.019 C 
HETATM   16  C14 UNL     1      33.371   9.214  42.102  1.00  0.00     0.118 C 
HETATM   17  N3  UNL     1      32.090   8.811  42.540  1.00  0.00    -0.257 NA
HETATM   18  C15 UNL     1      31.336   9.566  43.246  1.00  0.00     0.192 C 
HETATM   19  N4  UNL     1      31.477  10.887  43.775  1.00  0.00    -0.398 NA
HETATM   20  C16 UNL     1      31.346  11.054  45.041  1.00  0.00     0.345 C 
HETATM   21  C17 UNL     1      31.288  11.706  46.334  1.00  0.00     0.115 C 
HETATM   22  N5  UNL     1      31.040  10.766  47.146  1.00  0.00    -0.281 NA
HETATM   23  C18 UNL     1      30.885  10.897  48.561  1.00  0.00     0.314 C 
HETATM   24  H4  UNL     1      33.593   6.758  49.550  1.00  0.00     0.317 HD
ENDROOT
BRANCH   1  25
HETATM   25  O1  UNL     1      29.487   8.794  49.726  1.00  0.00    -0.278 OA
HETATM   26  H1  UNL     1      29.514   7.981  49.141  1.00  0.00     0.245 HD
ENDBRANCH   1  25
TORSDOF 1
ENDMDL
MODEL 9
REMARK VINA RESULT:      -7.0      2.860      6.304
REMARK  1 active torsions:
REMARK  status: ('A' for Active; 'I' for Inactive)
REMARK    1  A    between atoms: O1_1  and  N1_2 
ROOT
HETATM    1  N1  UNL     1      16.156   2.430  51.471  1.00  0.00    -0.197 N 
HETATM    2  C1  UNL     1      17.353   3.056  51.309  1.00  0.00     0.038 C 
HETATM    3  C2  UNL     1      18.370   3.565  51.177  1.00  0.00    -0.051 C 
HETATM    4  C3  UNL     1      19.647   4.178  51.023  1.00  0.00     0.364 C 
HETATM    5  N2  UNL     1      19.605   5.168  49.968  1.00  0.00     0.094 N 
HETATM    6  C4  UNL     1      20.926   5.703  49.783  1.00  0.00     0.270 C 
HETATM    7  C5  UNL     1      21.428   6.571  50.912  1.00  0.00     0.030 C 
HETATM    8  C6  UNL     1      22.848   7.030  50.661  1.00  0.00     0.002 C 
HETATM    9  C7  UNL     1      23.828   5.968  50.442  1.00  0.00     0.000 C 
HETATM   10  C8  UNL     1      24.234   5.013  51.481  1.00  0.00     0.000 C 
HETATM   11  C9  UNL     1      23.268   4.148  52.159  1.00  0.00     0.004 C 
HETATM   12  C10 UNL     1      24.007   3.173  53.096  1.00  0.00     0.027 C 
HETATM   13  C11 UNL     1      24.855   2.231  52.369  1.00  0.00    -0.027 C 
HETATM   14  C12 UNL     1      24.868   0.885  52.261  1.00  0.00    -0.003 C 
HETATM   15  C13 UNL     1      24.105  -0.244  52.774  1.00  0.00     0.019 C 
HETATM   16  C14 UNL     1      23.064  -0.469  53.562  1.00  0.00     0.118 C 
HETATM   17  N3  UNL     1      22.145   0.290  54.321  1.00  0.00    -0.257 NA
HETATM   18  C15 UNL     1      20.892   0.031  54.342  1.00  0.00     0.192 C 
HETATM   19  N4  UNL     1      20.077  -0.959  53.710  1.00  0.00    -0.398 NA
HETATM   20  C16 UNL     1      19.091  -0.568  52.988  1.00  0.00     0.345 C 
HETATM   21  C17 UNL     1      17.929  -0.611  52.123  1.00  0.00     0.115 C 
HETATM   22  N5  UNL     1      17.633   0.607  51.936  1.00  0.00    -0.281 NA
HETATM   23  C18 UNL     1      16.550   1.096  51.144  1.00  0.00     0.314 C 
HETATM   24  H4  UNL     1      19.326   4.751  49.052  1.00  0.00     0.317 HD
ENDROOT
BRANCH   1  25
HETATM   25  O1  UNL     1      15.794   3.696  51.779  1.00  0.00    -0.278 OA
HETATM   26  H1  UNL     1      16.313   4.037  52.564  1.00  0.00     0.245 HD
ENDBRANCH   1  25
TORSDOF 1
ENDMDL
