MODEL 1
REMARK VINA RESULT:      -7.7      0.000      0.000
REMARK  8 active torsions:
REMARK  status: ('A' for Active; 'I' for Inactive)
REMARK    1  A    between atoms: C2_2  and  O1_3 
REMARK    2  A    between atoms: C2_2  and  C4_5 
REMARK    3  A    between atoms: C4_5  and  O2_6 
REMARK    4  A    between atoms: C4_5  and  C6_8 
REMARK    5  A    between atoms: C8_10  and  N1_11 
REMARK    6  A    between atoms: N1_11  and  C9_12 
REMARK    7  A    between atoms: C15_20  and  C16_21 
REMARK    8  A    between atoms: C16_21  and  O4_23 
ROOT
HETATM    1  C6  UNL     1      23.160   1.750  52.111  1.00  0.00     0.071 A 
HETATM    2  C7  UNL     1      24.256   1.087  52.548  1.00  0.00     0.061 A 
HETATM    3  C8  UNL     1      24.102   0.076  53.475  1.00  0.00     0.053 A 
HETATM    4  C15 UNL     1      22.808  -0.164  53.876  1.00  0.00     0.081 A 
HETATM    5  C17 UNL     1      21.701   0.517  53.424  1.00  0.00     0.137 A 
HETATM    6  N2  UNL     1      21.908   1.489  52.525  1.00  0.00    -0.261 NA
ENDROOT
BRANCH   3   7
HETATM    7  N1  UNL     1      25.191  -0.663  53.977  1.00  0.00    -0.355 N 
HETATM    8  H11 UNL     1      24.797  -1.417  54.548  1.00  0.00     0.166 HD
BRANCH   7   9
HETATM    9  C9  UNL     1      26.597  -0.534  53.829  1.00  0.00     0.034 A 
HETATM   10  C10 UNL     1      27.310  -1.522  53.183  1.00  0.00     0.032 A 
HETATM   11  C11 UNL     1      28.667  -1.352  53.058  1.00  0.00     0.046 A 
HETATM   12  C12 UNL     1      29.381  -0.270  53.528  1.00  0.00     0.138 A 
HETATM   13  F1  UNL     1      30.722  -0.236  53.331  1.00  0.00    -0.204 F 
HETATM   14  C13 UNL     1      28.670   0.723  54.176  1.00  0.00     0.074 A 
HETATM   15 CL1  UNL     1      29.518   2.106  54.786  1.00  0.00    -0.081 Cl
HETATM   16  C14 UNL     1      27.291   0.565  54.311  1.00  0.00     0.056 A 
ENDBRANCH   7   9
ENDBRANCH   3   7
BRANCH   4  17
HETATM   17  C16 UNL     1      22.475  -1.204  54.838  1.00  0.00     0.179 C 
HETATM   18  O3  UNL     1      21.378  -1.776  55.058  1.00  0.00    -0.646 OA
BRANCH  17  19
HETATM   19  O4  UNL     1      22.818  -2.064  55.843  1.00  0.00    -0.773 OA
HETATM   20  H15 UNL     1      23.731  -2.523  55.958  1.00  0.00     0.167 HD
ENDBRANCH  17  19
ENDBRANCH   4  17
BRANCH   1  21
HETATM   21  C4  UNL     1      23.294   2.839  51.114  1.00  0.00     0.228 C 
BRANCH  21  22
HETATM   22  C2  UNL     1      22.753   4.139  51.645  1.00  0.00     0.071 C 
HETATM   23  C1  UNL     1      23.395   4.726  52.670  1.00  0.00     0.049 C 
BRANCH  22  24
HETATM   24  O1  UNL     1      21.602   4.566  50.960  1.00  0.00    -0.358 OA
HETATM   25  C3  UNL     1      21.108   3.911  49.824  1.00  0.00     0.209 C 
ENDBRANCH  22  24
ENDBRANCH  21  22
BRANCH  21  26
HETATM   26  O2  UNL     1      24.604   2.945  50.738  1.00  0.00    -0.378 OA
HETATM   27  C5  UNL     1      24.823   3.470  49.485  1.00  0.00     0.203 C 
ENDBRANCH  21  26
ENDBRANCH   1  21
TORSDOF 8
ENDMDL
MODEL 2
REMARK VINA RESULT:      -7.7      0.922      1.965
REMARK  8 active torsions:
REMARK  status: ('A' for Active; 'I' for Inactive)
REMARK    1  A    between atoms: C2_2  and  O1_3 
REMARK    2  A    between atoms: C2_2  and  C4_5 
REMARK    3  A    between atoms: C4_5  and  O2_6 
REMARK    4  A    between atoms: C4_5  and  C6_8 
REMARK    5  A    between atoms: C8_10  and  N1_11 
REMARK    6  A    between atoms: N1_11  and  C9_12 
REMARK    7  A    between atoms: C15_20  and  C16_21 
REMARK    8  A    between atoms: C16_21  and  O4_23 
ROOT
HETATM    1  C6  UNL     1      22.861   2.218  52.064  1.00  0.00     0.071 A 
HETATM    2  C7  UNL     1      23.893   1.511  52.581  1.00  0.00     0.061 A 
HETATM    3  C8  UNL     1      23.624   0.449  53.421  1.00  0.00     0.053 A 
HETATM    4  C15 UNL     1      22.291   0.207  53.656  1.00  0.00     0.081 A 
HETATM    5  C17 UNL     1      21.249   0.933  53.125  1.00  0.00     0.137 A 
HETATM    6  N2  UNL     1      21.568   1.954  52.317  1.00  0.00    -0.261 NA
ENDROOT
BRANCH   3   7
HETATM    7  N1  UNL     1      24.641  -0.337  53.997  1.00  0.00    -0.355 N 
HETATM    8  H11 UNL     1      24.190  -0.935  54.696  1.00  0.00     0.166 HD
BRANCH   7   9
HETATM    9  C9  UNL     1      26.042  -0.417  53.779  1.00  0.00     0.034 A 
HETATM   10  C10 UNL     1      26.560  -1.452  53.031  1.00  0.00     0.032 A 
HETATM   11  C11 UNL     1      27.919  -1.486  52.840  1.00  0.00     0.046 A 
HETATM   12  C12 UNL     1      28.816  -0.566  53.340  1.00  0.00     0.138 A 
HETATM   13  F1  UNL     1      30.135  -0.725  53.072  1.00  0.00    -0.204 F 
HETATM   14  C13 UNL     1      28.300   0.475  54.091  1.00  0.00     0.074 A 
HETATM   15 CL1  UNL     1      29.384   1.661  54.743  1.00  0.00    -0.081 Cl
HETATM   16  C14 UNL     1      26.922   0.523  54.292  1.00  0.00     0.056 A 
ENDBRANCH   7   9
ENDBRANCH   3   7
BRANCH   4  17
HETATM   17  C16 UNL     1      21.839  -0.883  54.509  1.00  0.00     0.179 C 
HETATM   18  O3  UNL     1      22.473  -1.555  55.359  1.00  0.00    -0.646 OA
BRANCH  17  19
HETATM   19  O4  UNL     1      20.867  -1.733  54.956  1.00  0.00    -0.773 OA
HETATM   20  H15 UNL     1      20.150  -1.512  55.659  1.00  0.00     0.167 HD
ENDBRANCH  17  19
ENDBRANCH   4  17
BRANCH   1  21
HETATM   21  C4  UNL     1      23.120   3.363  51.158  1.00  0.00     0.228 C 
BRANCH  21  22
HETATM   22  C2  UNL     1      23.495   2.895  49.778  1.00  0.00     0.071 C 
HETATM   23  C1  UNL     1      22.587   2.201  49.070  1.00  0.00     0.049 C 
BRANCH  22  24
HETATM   24  O1  UNL     1      24.801   3.269  49.416  1.00  0.00    -0.358 OA
HETATM   25  C3  UNL     1      25.622   4.052  50.240  1.00  0.00     0.209 C 
ENDBRANCH  22  24
ENDBRANCH  21  22
BRANCH  21  26
HETATM   26  O2  UNL     1      22.024   4.180  51.142  1.00  0.00    -0.378 OA
HETATM   27  C5  UNL     1      22.248   5.483  51.526  1.00  0.00     0.203 C 
ENDBRANCH  21  26
ENDBRANCH   1  21
TORSDOF 8
ENDMDL
MODEL 3
REMARK VINA RESULT:      -7.5      3.443      6.296
REMARK  8 active torsions:
REMARK  status: ('A' for Active; 'I' for Inactive)
REMARK    1  A    between atoms: C2_2  and  O1_3 
REMARK    2  A    between atoms: C2_2  and  C4_5 
REMARK    3  A    between atoms: C4_5  and  O2_6 
REMARK    4  A    between atoms: C4_5  and  C6_8 
REMARK    5  A    between atoms: C8_10  and  N1_11 
REMARK    6  A    between atoms: N1_11  and  C9_12 
REMARK    7  A    between atoms: C15_20  and  C16_21 
REMARK    8  A    between atoms: C16_21  and  O4_23 
ROOT
HETATM    1  C6  UNL     1      25.440   0.002  53.877  1.00  0.00     0.071 A 
HETATM    2  C7  UNL     1      24.575   0.648  53.061  1.00  0.00     0.061 A 
HETATM    3  C8  UNL     1      23.222   0.416  53.198  1.00  0.00     0.053 A 
HETATM    4  C15 UNL     1      22.876  -0.479  54.184  1.00  0.00     0.081 A 
HETATM    5  C17 UNL     1      23.764  -1.131  55.009  1.00  0.00     0.137 A 
HETATM    6  N2  UNL     1      25.066  -0.868  54.831  1.00  0.00    -0.261 NA
ENDROOT
BRANCH   3   7
HETATM    7  N1  UNL     1      22.259   1.050  52.391  1.00  0.00    -0.355 N 
HETATM    8  H11 UNL     1      21.444   1.225  52.986  1.00  0.00     0.166 HD
BRANCH   7   9
HETATM    9  C9  UNL     1      22.247   1.440  51.025  1.00  0.00     0.034 A 
HETATM   10  C10 UNL     1      21.537   0.695  50.108  1.00  0.00     0.032 A 
HETATM   11  C11 UNL     1      21.548   1.113  48.800  1.00  0.00     0.046 A 
HETATM   12  C12 UNL     1      22.215   2.223  48.324  1.00  0.00     0.138 A 
HETATM   13  F1  UNL     1      22.137   2.516  47.003  1.00  0.00    -0.204 F 
HETATM   14  C13 UNL     1      22.928   2.973  49.242  1.00  0.00     0.074 A 
HETATM   15 CL1  UNL     1      23.784   4.378  48.697  1.00  0.00    -0.081 Cl
HETATM   16  C14 UNL     1      22.926   2.561  50.573  1.00  0.00     0.056 A 
ENDBRANCH   7   9
ENDBRANCH   3   7
BRANCH   4  17
HETATM   17  C16 UNL     1      21.490  -0.825  54.466  1.00  0.00     0.179 C 
HETATM   18  O3  UNL     1      21.002  -1.891  54.915  1.00  0.00    -0.646 OA
BRANCH  17  19
HETATM   19  O4  UNL     1      20.159  -0.517  54.500  1.00  0.00    -0.773 OA
HETATM   20  H15 UNL     1      19.586  -0.412  55.348  1.00  0.00     0.167 HD
ENDBRANCH  17  19
ENDBRANCH   4  17
BRANCH   1  21
HETATM   21  C4  UNL     1      26.899   0.234  53.753  1.00  0.00     0.228 C 
BRANCH  21  22
HETATM   22  C2  UNL     1      27.616  -1.010  53.301  1.00  0.00     0.071 C 
HETATM   23  C1  UNL     1      27.071  -1.736  52.310  1.00  0.00     0.049 C 
BRANCH  22  24
HETATM   24  O1  UNL     1      28.804  -1.241  54.017  1.00  0.00    -0.358 OA
HETATM   25  C3  UNL     1      30.061  -0.830  53.553  1.00  0.00     0.209 C 
ENDBRANCH  22  24
ENDBRANCH  21  22
BRANCH  21  26
HETATM   26  O2  UNL     1      27.117   1.286  52.908  1.00  0.00    -0.378 OA
HETATM   27  C5  UNL     1      28.025   2.223  53.346  1.00  0.00     0.203 C 
ENDBRANCH  21  26
ENDBRANCH   1  21
TORSDOF 8
ENDMDL
MODEL 4
REMARK VINA RESULT:      -7.4      3.500      6.125
REMARK  8 active torsions:
REMARK  status: ('A' for Active; 'I' for Inactive)
REMARK    1  A    between atoms: C2_2  and  O1_3 
REMARK    2  A    between atoms: C2_2  and  C4_5 
REMARK    3  A    between atoms: C4_5  and  O2_6 
REMARK    4  A    between atoms: C4_5  and  C6_8 
REMARK    5  A    between atoms: C8_10  and  N1_11 
REMARK    6  A    between atoms: N1_11  and  C9_12 
REMARK    7  A    between atoms: C15_20  and  C16_21 
REMARK    8  A    between atoms: C16_21  and  O4_23 
ROOT
HETATM    1  C6  UNL     1      25.744  -0.228  53.464  1.00  0.00     0.071 A 
HETATM    2  C7  UNL     1      24.804   0.337  52.670  1.00  0.00     0.061 A 
HETATM    3  C8  UNL     1      23.471   0.183  52.994  1.00  0.00     0.053 A 
HETATM    4  C15 UNL     1      23.223  -0.553  54.130  1.00  0.00     0.081 A 
HETATM    5  C17 UNL     1      24.187  -1.122  54.930  1.00  0.00     0.137 A 
HETATM    6  N2  UNL     1      25.465  -0.942  54.567  1.00  0.00    -0.261 NA
ENDROOT
BRANCH   3   7
HETATM    7  N1  UNL     1      22.435   0.741  52.222  1.00  0.00    -0.355 N 
HETATM    8  H11 UNL     1      21.589   0.714  52.800  1.00  0.00     0.166 HD
BRANCH   7   9
HETATM    9  C9  UNL     1      22.389   1.276  50.907  1.00  0.00     0.034 A 
HETATM   10  C10 UNL     1      21.583   0.686  49.957  1.00  0.00     0.032 A 
HETATM   11  C11 UNL     1      21.564   1.241  48.701  1.00  0.00     0.046 A 
HETATM   12  C12 UNL     1      22.290   2.346  48.308  1.00  0.00     0.138 A 
HETATM   13  F1  UNL     1      22.173   2.785  47.031  1.00  0.00    -0.204 F 
HETATM   14  C13 UNL     1      23.099   2.941  49.258  1.00  0.00     0.074 A 
HETATM   15 CL1  UNL     1      24.033   4.333  48.818  1.00  0.00    -0.081 Cl
HETATM   16  C14 UNL     1      23.128   2.389  50.538  1.00  0.00     0.056 A 
ENDBRANCH   7   9
ENDBRANCH   3   7
BRANCH   4  17
HETATM   17  C16 UNL     1      21.873  -0.797  54.616  1.00  0.00     0.179 C 
HETATM   18  O3  UNL     1      20.976   0.018  54.945  1.00  0.00    -0.646 OA
BRANCH  17  19
HETATM   19  O4  UNL     1      20.861  -1.643  54.974  1.00  0.00    -0.773 OA
HETATM   20  H15 UNL     1      20.974  -2.586  55.366  1.00  0.00     0.167 HD
ENDBRANCH  17  19
ENDBRANCH   4  17
BRANCH   1  21
HETATM   21  C4  UNL     1      27.183  -0.078  53.140  1.00  0.00     0.228 C 
BRANCH  21  22
HETATM   22  C2  UNL     1      27.635   1.348  53.304  1.00  0.00     0.071 C 
HETATM   23  C1  UNL     1      27.426   2.205  52.290  1.00  0.00     0.049 C 
BRANCH  22  24
HETATM   24  O1  UNL     1      28.240   1.584  54.552  1.00  0.00    -0.358 OA
HETATM   25  C3  UNL     1      29.568   2.012  54.682  1.00  0.00     0.209 C 
ENDBRANCH  22  24
ENDBRANCH  21  22
BRANCH  21  26
HETATM   26  O2  UNL     1      27.910  -0.938  53.914  1.00  0.00    -0.378 OA
HETATM   27  C5  UNL     1      29.012  -1.497  53.308  1.00  0.00     0.203 C 
ENDBRANCH  21  26
ENDBRANCH   1  21
TORSDOF 8
ENDMDL
MODEL 5
REMARK VINA RESULT:      -7.1      2.248      4.724
REMARK  8 active torsions:
REMARK  status: ('A' for Active; 'I' for Inactive)
REMARK    1  A    between atoms: C2_2  and  O1_3 
REMARK    2  A    between atoms: C2_2  and  C4_5 
REMARK    3  A    between atoms: C4_5  and  O2_6 
REMARK    4  A    between atoms: C4_5  and  C6_8 
REMARK    5  A    between atoms: C8_10  and  N1_11 
REMARK    6  A    between atoms: N1_11  and  C9_12 
REMARK    7  A    between atoms: C15_20  and  C16_21 
REMARK    8  A    between atoms: C16_21  and  O4_23 
ROOT
HETATM    1  C6  UNL     1      22.366   2.313  51.672  1.00  0.00     0.071 A 
HETATM    2  C7  UNL     1      23.425   2.243  52.513  1.00  0.00     0.061 A 
HETATM    3  C8  UNL     1      24.655   2.694  52.081  1.00  0.00     0.053 A 
HETATM    4  C15 UNL     1      24.684   3.186  50.797  1.00  0.00     0.081 A 
HETATM    5  C17 UNL     1      23.601   3.253  49.950  1.00  0.00     0.137 A 
HETATM    6  N2  UNL     1      22.431   2.800  50.422  1.00  0.00    -0.261 NA
ENDROOT
BRANCH   3   7
HETATM    7  N1  UNL     1      25.803   2.657  52.896  1.00  0.00    -0.355 N 
HETATM    8  H11 UNL     1      25.827   3.542  53.412  1.00  0.00     0.166 HD
BRANCH   7   9
HETATM    9  C9  UNL     1      26.822   1.687  53.088  1.00  0.00     0.034 A 
HETATM   10  C10 UNL     1      28.054   2.075  53.571  1.00  0.00     0.032 A 
HETATM   11  C11 UNL     1      29.007   1.103  53.747  1.00  0.00     0.046 A 
HETATM   12  C12 UNL     1      28.834  -0.239  53.479  1.00  0.00     0.138 A 
HETATM   13  F1  UNL     1      29.867  -1.089  53.702  1.00  0.00    -0.204 F 
HETATM   14  C13 UNL     1      27.600  -0.632  52.995  1.00  0.00     0.074 A 
HETATM   15 CL1  UNL     1      27.329  -2.308  52.641  1.00  0.00    -0.081 Cl
HETATM   16  C14 UNL     1      26.622   0.343  52.811  1.00  0.00     0.056 A 
ENDBRANCH   7   9
ENDBRANCH   3   7
BRANCH   4  17
HETATM   17  C16 UNL     1      25.901   3.712  50.195  1.00  0.00     0.179 C 
HETATM   18  O3  UNL     1      26.051   4.421  49.170  1.00  0.00    -0.646 OA
BRANCH  17  19
HETATM   19  O4  UNL     1      27.260   3.861  50.169  1.00  0.00    -0.773 OA
HETATM   20  H15 UNL     1      27.826   4.344  50.879  1.00  0.00     0.167 HD
ENDBRANCH  17  19
ENDBRANCH   4  17
BRANCH   1  21
HETATM   21  C4  UNL     1      21.032   1.838  52.110  1.00  0.00     0.228 C 
BRANCH  21  22
HETATM   22  C2  UNL     1      21.147   0.649  53.025  1.00  0.00     0.071 C 
HETATM   23  C1  UNL     1      20.596   0.729  54.248  1.00  0.00     0.049 C 
BRANCH  22  24
HETATM   24  O1  UNL     1      21.847  -0.421  52.438  1.00  0.00    -0.358 OA
HETATM   25  C3  UNL     1      22.666  -1.287  53.176  1.00  0.00     0.209 C 
ENDBRANCH  22  24
ENDBRANCH  21  22
BRANCH  21  26
HETATM   26  O2  UNL     1      20.356   2.871  52.695  1.00  0.00    -0.378 OA
HETATM   27  C5  UNL     1      19.319   3.397  51.959  1.00  0.00     0.203 C 
ENDBRANCH  21  26
ENDBRANCH   1  21
TORSDOF 8
ENDMDL
MODEL 6
REMARK VINA RESULT:      -7.0      1.546      1.805
REMARK  8 active torsions:
REMARK  status: ('A' for Active; 'I' for Inactive)
REMARK    1  A    between atoms: C2_2  and  O1_3 
REMARK    2  A    between atoms: C2_2  and  C4_5 
REMARK    3  A    between atoms: C4_5  and  O2_6 
REMARK    4  A    between atoms: C4_5  and  C6_8 
REMARK    5  A    between atoms: C8_10  and  N1_11 
REMARK    6  A    between atoms: N1_11  and  C9_12 
REMARK    7  A    between atoms: C15_20  and  C16_21 
REMARK    8  A    between atoms: C16_21  and  O4_23 
ROOT
HETATM    1  C6  UNL     1      21.757   1.126  51.385  1.00  0.00     0.071 A 
HETATM    2  C7  UNL     1      22.934   1.321  52.023  1.00  0.00     0.061 A 
HETATM    3  C8  UNL     1      23.214   0.585  53.156  1.00  0.00     0.053 A 
HETATM    4  C15 UNL     1      22.235  -0.304  53.536  1.00  0.00     0.081 A 
HETATM    5  C17 UNL     1      21.041  -0.495  52.880  1.00  0.00     0.137 A 
HETATM    6  N2  UNL     1      20.822   0.248  51.785  1.00  0.00    -0.261 NA
ENDROOT
BRANCH   3   7
HETATM    7  N1  UNL     1      24.416   0.728  53.875  1.00  0.00    -0.355 N 
HETATM    8  H11 UNL     1      24.205   1.311  54.691  1.00  0.00     0.166 HD
BRANCH   7   9
HETATM    9  C9  UNL     1      25.733   0.240  53.663  1.00  0.00     0.034 A 
HETATM   10  C10 UNL     1      25.922  -0.953  52.999  1.00  0.00     0.032 A 
HETATM   11  C11 UNL     1      27.212  -1.382  52.811  1.00  0.00     0.046 A 
HETATM   12  C12 UNL     1      28.343  -0.717  53.235  1.00  0.00     0.138 A 
HETATM   13  F1  UNL     1      29.557  -1.261  52.979  1.00  0.00    -0.204 F 
HETATM   14  C13 UNL     1      28.158   0.480  53.902  1.00  0.00     0.074 A 
HETATM   15 CL1  UNL     1      29.545   1.359  54.457  1.00  0.00    -0.081 Cl
HETATM   16  C14 UNL     1      26.853   0.930  54.100  1.00  0.00     0.056 A 
ENDBRANCH   7   9
ENDBRANCH   3   7
BRANCH   4  17
HETATM   17  C16 UNL     1      22.379  -1.164  54.702  1.00  0.00     0.179 C 
HETATM   18  O3  UNL     1      21.598  -2.033  55.163  1.00  0.00    -0.646 OA
BRANCH  17  19
HETATM   19  O4  UNL     1      23.082  -1.608  55.787  1.00  0.00    -0.773 OA
HETATM   20  H15 UNL     1      23.625  -2.479  55.838  1.00  0.00     0.167 HD
ENDBRANCH  17  19
ENDBRANCH   4  17
BRANCH   1  21
HETATM   21  C4  UNL     1      21.431   1.901  50.164  1.00  0.00     0.228 C 
BRANCH  21  22
HETATM   22  C2  UNL     1      20.340   2.903  50.426  1.00  0.00     0.071 C 
HETATM   23  C1  UNL     1      20.598   3.925  51.261  1.00  0.00     0.049 C 
BRANCH  22  24
HETATM   24  O1  UNL     1      19.155   2.609  49.728  1.00  0.00    -0.358 OA
HETATM   25  C3  UNL     1      18.975   2.925  48.374  1.00  0.00     0.209 C 
ENDBRANCH  22  24
ENDBRANCH  21  22
BRANCH  21  26
HETATM   26  O2  UNL     1      22.568   2.494  49.691  1.00  0.00    -0.378 OA
HETATM   27  C5  UNL     1      22.694   2.532  48.321  1.00  0.00     0.203 C 
ENDBRANCH  21  26
ENDBRANCH   1  21
TORSDOF 8
ENDMDL
MODEL 7
REMARK VINA RESULT:      -6.9      5.106      7.182
REMARK  8 active torsions:
REMARK  status: ('A' for Active; 'I' for Inactive)
REMARK    1  A    between atoms: C2_2  and  O1_3 
REMARK    2  A    between atoms: C2_2  and  C4_5 
REMARK    3  A    between atoms: C4_5  and  O2_6 
REMARK    4  A    between atoms: C4_5  and  C6_8 
REMARK    5  A    between atoms: C8_10  and  N1_11 
REMARK    6  A    between atoms: N1_11  and  C9_12 
REMARK    7  A    between atoms: C15_20  and  C16_21 
REMARK    8  A    between atoms: C16_21  and  O4_23 
ROOT
HETATM    1  C6  UNL     1      22.086   1.326  51.634  1.00  0.00     0.071 A 
HETATM    2  C7  UNL     1      20.913   0.938  52.189  1.00  0.00     0.061 A 
HETATM    3  C8  UNL     1      20.933   0.058  53.251  1.00  0.00     0.053 A 
HETATM    4  C15 UNL     1      22.184  -0.352  53.653  1.00  0.00     0.081 A 
HETATM    5  C17 UNL     1      23.369   0.049  53.081  1.00  0.00     0.137 A 
HETATM    6  N2  UNL     1      23.291   0.905  52.053  1.00  0.00    -0.261 NA
ENDROOT
BRANCH   3   7
HETATM    7  N1  UNL     1      19.759  -0.391  53.885  1.00  0.00    -0.355 N 
HETATM    8  H11 UNL     1      19.844  -0.141  54.875  1.00  0.00     0.166 HD
BRANCH   7   9
HETATM    9  C9  UNL     1      18.602  -1.065  53.412  1.00  0.00     0.034 A 
HETATM   10  C10 UNL     1      17.749  -0.426  52.537  1.00  0.00     0.032 A 
HETATM   11  C11 UNL     1      16.646  -1.118  52.100  1.00  0.00     0.046 A 
HETATM   12  C12 UNL     1      16.317  -2.406  52.466  1.00  0.00     0.138 A 
HETATM   13  F1  UNL     1      15.194  -2.965  51.955  1.00  0.00    -0.204 F 
HETATM   14  C13 UNL     1      17.170  -3.050  53.344  1.00  0.00     0.074 A 
HETATM   15 CL1  UNL     1      16.805  -4.671  53.837  1.00  0.00    -0.081 Cl
HETATM   16  C14 UNL     1      18.295  -2.361  53.795  1.00  0.00     0.056 A 
ENDBRANCH   7   9
ENDBRANCH   3   7
BRANCH   4  17
HETATM   17  C16 UNL     1      22.379  -1.270  54.766  1.00  0.00     0.179 C 
HETATM   18  O3  UNL     1      21.688  -2.254  55.128  1.00  0.00    -0.646 OA
BRANCH  17  19
HETATM   19  O4  UNL     1      23.081  -1.704  55.855  1.00  0.00    -0.773 OA
HETATM   20  H15 UNL     1      22.693  -2.220  56.656  1.00  0.00     0.167 HD
ENDBRANCH  17  19
ENDBRANCH   4  17
BRANCH   1  21
HETATM   21  C4  UNL     1      22.094   2.273  50.493  1.00  0.00     0.228 C 
BRANCH  21  22
HETATM   22  C2  UNL     1      22.979   3.457  50.771  1.00  0.00     0.071 C 
HETATM   23  C1  UNL     1      24.016   3.687  49.947  1.00  0.00     0.049 C 
BRANCH  22  24
HETATM   24  O1  UNL     1      22.573   4.183  51.905  1.00  0.00    -0.358 OA
HETATM   25  C3  UNL     1      23.481   4.710  52.834  1.00  0.00     0.209 C 
ENDBRANCH  22  24
ENDBRANCH  21  22
BRANCH  21  26
HETATM   26  O2  UNL     1      22.470   1.608  49.359  1.00  0.00    -0.378 OA
HETATM   27  C5  UNL     1      21.444   1.239  48.519  1.00  0.00     0.203 C 
ENDBRANCH  21  26
ENDBRANCH   1  21
TORSDOF 8
ENDMDL
MODEL 8
REMARK VINA RESULT:      -6.9      3.887      5.464
REMARK  8 active torsions:
REMARK  status: ('A' for Active; 'I' for Inactive)
REMARK    1  A    between atoms: C2_2  and  O1_3 
REMARK    2  A    between atoms: C2_2  and  C4_5 
REMARK    3  A    between atoms: C4_5  and  O2_6 
REMARK    4  A    between atoms: C4_5  and  C6_8 
REMARK    5  A    between atoms: C8_10  and  N1_11 
REMARK    6  A    between atoms: N1_11  and  C9_12 
REMARK    7  A    between atoms: C15_20  and  C16_21 
REMARK    8  A    between atoms: C16_21  and  O4_23 
ROOT
HETATM    1  C6  UNL     1      25.539   2.562  51.235  1.00  0.00     0.071 A 
HETATM    2  C7  UNL     1      24.682   1.653  51.758  1.00  0.00     0.061 A 
HETATM    3  C8  UNL     1      25.169   0.684  52.611  1.00  0.00     0.053 A 
HETATM    4  C15 UNL     1      26.522   0.741  52.854  1.00  0.00     0.081 A 
HETATM    5  C17 UNL     1      27.385   1.669  52.317  1.00  0.00     0.137 A 
HETATM    6  N2  UNL     1      26.857   2.586  51.494  1.00  0.00    -0.261 NA
ENDROOT
BRANCH   3   7
HETATM    7  N1  UNL     1      24.343  -0.294  53.197  1.00  0.00    -0.355 N 
HETATM    8  H11 UNL     1      24.965  -1.014  53.580  1.00  0.00     0.166 HD
BRANCH   7   9
HETATM    9  C9  UNL     1      22.935  -0.420  53.325  1.00  0.00     0.034 A 
HETATM   10  C10 UNL     1      22.398  -0.955  54.476  1.00  0.00     0.032 A 
HETATM   11  C11 UNL     1      21.031  -1.052  54.559  1.00  0.00     0.046 A 
HETATM   12  C12 UNL     1      20.144  -0.658  53.579  1.00  0.00     0.138 A 
HETATM   13  F1  UNL     1      18.815  -0.814  53.797  1.00  0.00    -0.204 F 
HETATM   14  C13 UNL     1      20.679  -0.121  52.422  1.00  0.00     0.074 A 
HETATM   15 CL1  UNL     1      19.609   0.391  51.158  1.00  0.00    -0.081 Cl
HETATM   16  C14 UNL     1      22.065  -0.015  52.324  1.00  0.00     0.056 A 
ENDBRANCH   7   9
ENDBRANCH   3   7
BRANCH   4  17
HETATM   17  C16 UNL     1      27.191  -0.201  53.740  1.00  0.00     0.179 C 
HETATM   18  O3  UNL     1      27.192  -1.457  53.726  1.00  0.00    -0.646 OA
BRANCH  17  19
HETATM   19  O4  UNL     1      27.994  -0.479  54.810  1.00  0.00    -0.773 OA
HETATM   20  H15 UNL     1      27.690  -0.542  55.791  1.00  0.00     0.167 HD
ENDBRANCH  17  19
ENDBRANCH   4  17
BRANCH   1  21
HETATM   21  C4  UNL     1      25.042   3.615  50.318  1.00  0.00     0.228 C 
BRANCH  21  22
HETATM   22  C2  UNL     1      23.693   4.125  50.747  1.00  0.00     0.071 C 
HETATM   23  C1  UNL     1      23.603   4.788  51.913  1.00  0.00     0.049 C 
BRANCH  22  24
HETATM   24  O1  UNL     1      22.678   3.817  49.824  1.00  0.00    -0.358 OA
HETATM   25  C3  UNL     1      22.935   3.195  48.595  1.00  0.00     0.209 C 
ENDBRANCH  22  24
ENDBRANCH  21  22
BRANCH  21  26
HETATM   26  O2  UNL     1      25.968   4.617  50.240  1.00  0.00    -0.378 OA
HETATM   27  C5  UNL     1      26.033   5.276  49.034  1.00  0.00     0.203 C 
ENDBRANCH  21  26
ENDBRANCH   1  21
TORSDOF 8
ENDMDL
MODEL 9
REMARK VINA RESULT:      -6.9      3.710      7.072
REMARK  8 active torsions:
REMARK  status: ('A' for Active; 'I' for Inactive)
REMARK    1  A    between atoms: C2_2  and  O1_3 
REMARK    2  A    between atoms: C2_2  and  C4_5 
REMARK    3  A    between atoms: C4_5  and  O2_6 
REMARK    4  A    between atoms: C4_5  and  C6_8 
REMARK    5  A    between atoms: C8_10  and  N1_11 
REMARK    6  A    between atoms: N1_11  and  C9_12 
REMARK    7  A    between atoms: C15_20  and  C16_21 
REMARK    8  A    between atoms: C16_21  and  O4_23 
ROOT
HETATM    1  C6  UNL     1      26.461   1.865  52.722  1.00  0.00     0.071 A 
HETATM    2  C7  UNL     1      25.120   1.958  52.889  1.00  0.00     0.061 A 
HETATM    3  C8  UNL     1      24.364   2.574  51.913  1.00  0.00     0.053 A 
HETATM    4  C15 UNL     1      25.072   3.048  50.832  1.00  0.00     0.081 A 
HETATM    5  C17 UNL     1      26.435   2.948  50.672  1.00  0.00     0.137 A 
HETATM    6  N2  UNL     1      27.119   2.340  51.652  1.00  0.00    -0.261 NA
ENDROOT
BRANCH   3   7
HETATM    7  N1  UNL     1      22.966   2.709  52.010  1.00  0.00    -0.355 N 
HETATM    8  H11 UNL     1      22.754   3.699  51.854  1.00  0.00     0.166 HD
BRANCH   7   9
HETATM    9  C9  UNL     1      21.921   1.782  52.264  1.00  0.00     0.034 A 
HETATM   10  C10 UNL     1      20.706   1.930  51.629  1.00  0.00     0.032 A 
HETATM   11  C11 UNL     1      19.727   1.007  51.899  1.00  0.00     0.046 A 
HETATM   12  C12 UNL     1      19.856  -0.063  52.760  1.00  0.00     0.138 A 
HETATM   13  F1  UNL     1      18.801  -0.896  52.931  1.00  0.00    -0.204 F 
HETATM   14  C13 UNL     1      21.073  -0.215  53.399  1.00  0.00     0.074 A 
HETATM   15 CL1  UNL     1      21.291  -1.544  54.491  1.00  0.00    -0.081 Cl
HETATM   16  C14 UNL     1      22.078   0.714  53.134  1.00  0.00     0.056 A 
ENDBRANCH   7   9
ENDBRANCH   3   7
BRANCH   4  17
HETATM   17  C16 UNL     1      24.422   3.712  49.711  1.00  0.00     0.179 C 
HETATM   18  O3  UNL     1      23.451   3.339  49.008  1.00  0.00    -0.646 OA
BRANCH  17  19
HETATM   19  O4  UNL     1      24.301   4.761  48.843  1.00  0.00    -0.773 OA
HETATM   20  H15 UNL     1      24.701   5.700  48.974  1.00  0.00     0.167 HD
ENDBRANCH  17  19
ENDBRANCH   4  17
BRANCH   1  21
HETATM   21  C4  UNL     1      27.297   1.207  53.754  1.00  0.00     0.228 C 
BRANCH  21  22
HETATM   22  C2  UNL     1      26.944  -0.248  53.900  1.00  0.00     0.071 C 
HETATM   23  C1  UNL     1      27.291  -1.092  52.913  1.00  0.00     0.049 C 
BRANCH  22  24
HETATM   24  O1  UNL     1      26.269  -0.524  55.103  1.00  0.00    -0.358 OA
HETATM   25  C3  UNL     1      24.937  -0.960  55.143  1.00  0.00     0.209 C 
ENDBRANCH  22  24
ENDBRANCH  21  22
BRANCH  21  26
HETATM   26  O2  UNL     1      28.617   1.385  53.444  1.00  0.00    -0.378 OA
HETATM   27  C5  UNL     1      29.420   1.808  54.479  1.00  0.00     0.203 C 
ENDBRANCH  21  26
ENDBRANCH   1  21
TORSDOF 8
ENDMDL
