MODEL 1
REMARK VINA RESULT:      -7.9      0.000      0.000
REMARK  1 active torsions:
REMARK  status: ('A' for Active; 'I' for Inactive)
REMARK    1  A    between atoms: C8_9  and  C9_10 
ROOT
HETATM    1  C1  UNL     1      24.405   0.544  52.984  1.00  0.00     0.019 C 
HETATM    2  C2  UNL     1      24.926   1.934  53.277  1.00  0.00     0.061 C 
HETATM    3  C3  UNL     1      26.392   1.909  53.030  1.00  0.00    -0.022 C 
HETATM    4  C4  UNL     1      27.026   2.212  51.885  1.00  0.00    -0.030 C 
HETATM    5  C5  UNL     1      26.034   2.603  50.813  1.00  0.00     0.032 C 
HETATM    6  C6  UNL     1      25.110   3.612  51.461  1.00  0.00     0.068 C 
HETATM    7  C7  UNL     1      24.194   2.994  52.497  1.00  0.00     0.166 C 
HETATM    8  N1  UNL     1      23.067   2.475  51.826  1.00  0.00    -0.376 N 
HETATM    9  C8  UNL     1      21.793   2.931  52.211  1.00  0.00     0.156 C 
HETATM   10  C17 UNL     1      21.596   4.284  51.631  1.00  0.00     0.143 C 
HETATM   11  N2  UNL     1      22.465   5.221  51.907  1.00  0.00    -0.168 NA
HETATM   12  N3  UNL     1      23.632   5.165  52.713  1.00  0.00    -0.182 N 
HETATM   13  O1  UNL     1      23.954   4.025  53.416  1.00  0.00    -0.230 OA
HETATM   14  H11 UNL     1      23.193   2.243  50.829  1.00  0.00     0.157 HD
HETATM   15  H23 UNL     1      24.249   6.018  52.761  1.00  0.00     0.218 HD
ENDROOT
BRANCH   9  16
HETATM   16  C9  UNL     1      20.746   1.966  51.879  1.00  0.00    -0.017 A 
HETATM   17  C10 UNL     1      20.066   1.955  50.611  1.00  0.00     0.060 A 
HETATM   18  S1  UNL     1      18.874   0.565  50.774  1.00  0.00    -0.105 SA
HETATM   19  C11 UNL     1      19.356   0.142  52.423  1.00  0.00    -0.011 A 
HETATM   20  C12 UNL     1      20.387   1.046  52.803  1.00  0.00    -0.036 A 
HETATM   21  C16 UNL     1      18.925  -0.906  53.427  1.00  0.00     0.046 C 
HETATM   22  C13 UNL     1      20.786   0.670  54.177  1.00  0.00     0.040 C 
HETATM   23  C14 UNL     1      21.205  -0.778  54.259  1.00  0.00     0.005 C 
HETATM   24  C15 UNL     1      20.106  -1.728  53.906  1.00  0.00     0.005 C 
ENDBRANCH   9  16
TORSDOF 1
ENDMDL
MODEL 2
REMARK VINA RESULT:      -7.7      3.211      5.711
REMARK  1 active torsions:
REMARK  status: ('A' for Active; 'I' for Inactive)
REMARK    1  A    between atoms: C8_9  and  C9_10 
ROOT
HETATM    1  C1  UNL     1      27.691   1.913  52.323  1.00  0.00     0.019 C 
HETATM    2  C2  UNL     1      27.146   0.530  52.608  1.00  0.00     0.061 C 
HETATM    3  C3  UNL     1      28.104  -0.132  53.533  1.00  0.00    -0.022 C 
HETATM    4  C4  UNL     1      28.060  -0.138  54.875  1.00  0.00    -0.030 C 
HETATM    5  C5  UNL     1      26.867   0.644  55.375  1.00  0.00     0.032 C 
HETATM    6  C6  UNL     1      25.686   0.140  54.574  1.00  0.00     0.068 C 
HETATM    7  C7  UNL     1      25.730   0.570  53.122  1.00  0.00     0.166 C 
HETATM    8  N1  UNL     1      25.170   1.862  53.033  1.00  0.00    -0.376 N 
HETATM    9  C8  UNL     1      24.075   2.056  52.173  1.00  0.00     0.156 C 
HETATM   10  C17 UNL     1      22.866   1.507  52.838  1.00  0.00     0.143 C 
HETATM   11  N2  UNL     1      22.869   0.256  53.218  1.00  0.00    -0.168 NA
HETATM   12  N3  UNL     1      23.887  -0.726  53.097  1.00  0.00    -0.182 N 
HETATM   13  O1  UNL     1      25.061  -0.451  52.431  1.00  0.00    -0.230 OA
HETATM   14  H11 UNL     1      25.188   2.429  53.894  1.00  0.00     0.157 HD
HETATM   15  H23 UNL     1      23.725  -1.673  53.530  1.00  0.00     0.218 HD
ENDROOT
BRANCH   9  16
HETATM   16  C9  UNL     1      23.957   3.449  51.746  1.00  0.00    -0.017 A 
HETATM   17  C10 UNL     1      23.213   4.434  52.487  1.00  0.00     0.060 A 
HETATM   18  S1  UNL     1      23.405   5.962  51.484  1.00  0.00    -0.105 SA
HETATM   19  C11 UNL     1      24.403   5.203  50.236  1.00  0.00    -0.011 A 
HETATM   20  C12 UNL     1      24.564   3.837  50.601  1.00  0.00    -0.036 A 
HETATM   21  C16 UNL     1      25.067   5.680  48.962  1.00  0.00     0.046 C 
HETATM   22  C13 UNL     1      25.410   3.222  49.555  1.00  0.00     0.040 C 
HETATM   23  C14 UNL     1      26.722   3.953  49.399  1.00  0.00     0.005 C 
HETATM   24  C15 UNL     1      26.554   5.375  48.969  1.00  0.00     0.005 C 
ENDBRANCH   9  16
TORSDOF 1
ENDMDL
MODEL 3
REMARK VINA RESULT:      -7.6      2.690      5.758
REMARK  1 active torsions:
REMARK  status: ('A' for Active; 'I' for Inactive)
REMARK    1  A    between atoms: C8_9  and  C9_10 
ROOT
HETATM    1  C1  UNL     1      23.895   0.760  52.991  1.00  0.00     0.019 C 
HETATM    2  C2  UNL     1      22.697  -0.054  52.552  1.00  0.00     0.061 C 
HETATM    3  C3  UNL     1      22.443  -1.061  53.617  1.00  0.00    -0.022 C 
HETATM    4  C4  UNL     1      21.623  -0.934  54.673  1.00  0.00    -0.030 C 
HETATM    5  C5  UNL     1      20.948   0.419  54.666  1.00  0.00     0.032 C 
HETATM    6  C6  UNL     1      20.412   0.599  53.262  1.00  0.00     0.068 C 
HETATM    7  C7  UNL     1      21.505   0.811  52.235  1.00  0.00     0.166 C 
HETATM    8  N1  UNL     1      21.833   2.183  52.227  1.00  0.00    -0.376 N 
HETATM    9  C8  UNL     1      21.731   2.886  51.013  1.00  0.00     0.156 C 
HETATM   10  C17 UNL     1      20.293   3.162  50.763  1.00  0.00     0.143 C 
HETATM   11  N2  UNL     1      19.456   2.159  50.725  1.00  0.00    -0.168 NA
HETATM   12  N3  UNL     1      19.698   0.770  50.890  1.00  0.00    -0.182 N 
HETATM   13  O1  UNL     1      20.979   0.287  51.046  1.00  0.00    -0.230 OA
HETATM   14  H11 UNL     1      21.619   2.711  53.086  1.00  0.00     0.157 HD
HETATM   15  H23 UNL     1      18.874   0.114  50.892  1.00  0.00     0.218 HD
ENDROOT
BRANCH   9  16
HETATM   16  C9  UNL     1      22.592   4.068  50.993  1.00  0.00    -0.017 A 
HETATM   17  C10 UNL     1      22.330   5.240  51.786  1.00  0.00     0.060 A 
HETATM   18  S1  UNL     1      23.708   6.374  51.345  1.00  0.00    -0.105 SA
HETATM   19  C11 UNL     1      24.472   5.254  50.208  1.00  0.00    -0.011 A 
HETATM   20  C12 UNL     1      23.680   4.071  50.190  1.00  0.00    -0.036 A 
HETATM   21  C16 UNL     1      25.700   5.300  49.325  1.00  0.00     0.046 C 
HETATM   22  C13 UNL     1      24.339   3.143  49.245  1.00  0.00     0.040 C 
HETATM   23  C14 UNL     1      25.778   2.889  49.626  1.00  0.00     0.005 C 
HETATM   24  C15 UNL     1      26.620   4.124  49.598  1.00  0.00     0.005 C 
ENDBRANCH   9  16
TORSDOF 1
ENDMDL
MODEL 4
REMARK VINA RESULT:      -7.6      2.802      6.088
REMARK  1 active torsions:
REMARK  status: ('A' for Active; 'I' for Inactive)
REMARK    1  A    between atoms: C8_9  and  C9_10 
ROOT
HETATM    1  C1  UNL     1      21.184   3.414  51.628  1.00  0.00     0.019 C 
HETATM    2  C2  UNL     1      20.215   2.587  52.444  1.00  0.00     0.061 C 
HETATM    3  C3  UNL     1      18.876   2.743  51.816  1.00  0.00    -0.022 C 
HETATM    4  C4  UNL     1      18.326   1.958  50.875  1.00  0.00    -0.030 C 
HETATM    5  C5  UNL     1      19.265   0.835  50.499  1.00  0.00     0.032 C 
HETATM    6  C6  UNL     1      19.731   0.238  51.811  1.00  0.00     0.068 C 
HETATM    7  C7  UNL     1      20.661   1.154  52.579  1.00  0.00     0.166 C 
HETATM    8  N1  UNL     1      21.969   0.957  52.088  1.00  0.00    -0.376 N 
HETATM    9  C8  UNL     1      22.972   0.578  52.998  1.00  0.00     0.156 C 
HETATM   10  C17 UNL     1      22.798  -0.867  53.296  1.00  0.00     0.143 C 
HETATM   11  N2  UNL     1      21.648  -1.279  53.762  1.00  0.00    -0.168 NA
HETATM   12  N3  UNL     1      20.469  -0.542  54.049  1.00  0.00    -0.182 N 
HETATM   13  O1  UNL     1      20.443   0.829  53.926  1.00  0.00    -0.230 OA
HETATM   14  H11 UNL     1      22.048   0.585  51.130  1.00  0.00     0.157 HD
HETATM   15  H23 UNL     1      19.611  -1.070  54.359  1.00  0.00     0.218 HD
ENDROOT
BRANCH   9  16
HETATM   16  C9  UNL     1      24.305   0.946  52.524  1.00  0.00    -0.017 A 
HETATM   17  C10 UNL     1      24.524   1.879  51.450  1.00  0.00     0.060 A 
HETATM   18  S1  UNL     1      26.355   1.933  51.292  1.00  0.00    -0.105 SA
HETATM   19  C11 UNL     1      26.655   0.775  52.596  1.00  0.00    -0.011 A 
HETATM   20  C12 UNL     1      25.387   0.383  53.109  1.00  0.00    -0.036 A 
HETATM   21  C16 UNL     1      27.893   0.169  53.223  1.00  0.00     0.046 C 
HETATM   22  C13 UNL     1      25.658  -0.574  54.204  1.00  0.00     0.040 C 
HETATM   23  C14 UNL     1      26.564   0.022  55.253  1.00  0.00     0.005 C 
HETATM   24  C15 UNL     1      27.913   0.390  54.724  1.00  0.00     0.005 C 
ENDBRANCH   9  16
TORSDOF 1
ENDMDL
MODEL 5
REMARK VINA RESULT:      -7.5      2.870      4.715
REMARK  1 active torsions:
REMARK  status: ('A' for Active; 'I' for Inactive)
REMARK    1  A    between atoms: C8_9  and  C9_10 
ROOT
HETATM    1  C1  UNL     1      22.201   4.254  51.880  1.00  0.00     0.019 C 
HETATM    2  C2  UNL     1      22.747   4.776  50.569  1.00  0.00     0.061 C 
HETATM    3  C3  UNL     1      22.264   6.175  50.424  1.00  0.00    -0.022 C 
HETATM    4  C4  UNL     1      22.895   7.294  50.816  1.00  0.00    -0.030 C 
HETATM    5  C5  UNL     1      24.223   6.963  51.456  1.00  0.00     0.032 C 
HETATM    6  C6  UNL     1      24.903   5.999  50.508  1.00  0.00     0.068 C 
HETATM    7  C7  UNL     1      24.244   4.635  50.477  1.00  0.00     0.166 C 
HETATM    8  N1  UNL     1      24.771   3.874  51.542  1.00  0.00    -0.376 N 
HETATM    9  C8  UNL     1      25.382   2.643  51.243  1.00  0.00     0.156 C 
HETATM   10  C17 UNL     1      26.732   2.924  50.691  1.00  0.00     0.143 C 
HETATM   11  N2  UNL     1      26.835   3.696  49.641  1.00  0.00    -0.168 NA
HETATM   12  N3  UNL     1      25.820   4.350  48.893  1.00  0.00    -0.182 N 
HETATM   13  O1  UNL     1      24.488   4.154  49.184  1.00  0.00    -0.230 OA
HETATM   14  H11 UNL     1      25.163   4.404  52.335  1.00  0.00     0.157 HD
HETATM   15  H23 UNL     1      26.110   4.992  48.110  1.00  0.00     0.218 HD
ENDROOT
BRANCH   9  16
HETATM   16  C9  UNL     1      25.368   1.735  52.389  1.00  0.00    -0.017 A 
HETATM   17  C10 UNL     1      26.466   1.625  53.313  1.00  0.00     0.060 A 
HETATM   18  S1  UNL     1      25.898   0.348  54.507  1.00  0.00    -0.105 SA
HETATM   19  C11 UNL     1      24.336   0.084  53.717  1.00  0.00    -0.011 A 
HETATM   20  C12 UNL     1      24.284   0.953  52.591  1.00  0.00    -0.036 A 
HETATM   21  C16 UNL     1      23.142  -0.808  53.981  1.00  0.00     0.046 C 
HETATM   22  C13 UNL     1      22.968   0.729  51.952  1.00  0.00     0.040 C 
HETATM   23  C14 UNL     1      21.833   0.946  52.923  1.00  0.00     0.005 C 
HETATM   24  C15 UNL     1      21.862   0.001  54.081  1.00  0.00     0.005 C 
ENDBRANCH   9  16
TORSDOF 1
ENDMDL
MODEL 6
REMARK VINA RESULT:      -7.4      3.043      5.733
REMARK  1 active torsions:
REMARK  status: ('A' for Active; 'I' for Inactive)
REMARK    1  A    between atoms: C8_9  and  C9_10 
ROOT
HETATM    1  C1  UNL     1      25.993   3.494  50.429  1.00  0.00     0.019 C 
HETATM    2  C2  UNL     1      24.610   4.023  50.741  1.00  0.00     0.061 C 
HETATM    3  C3  UNL     1      24.157   4.785  49.547  1.00  0.00    -0.022 C 
HETATM    4  C4  UNL     1      23.443   4.317  48.510  1.00  0.00    -0.030 C 
HETATM    5  C5  UNL     1      23.132   2.849  48.695  1.00  0.00     0.032 C 
HETATM    6  C6  UNL     1      22.598   2.721  50.106  1.00  0.00     0.068 C 
HETATM    7  C7  UNL     1      23.663   2.930  51.162  1.00  0.00     0.166 C 
HETATM    8  N1  UNL     1      24.326   1.700  51.360  1.00  0.00    -0.376 N 
HETATM    9  C8  UNL     1      24.352   1.158  52.657  1.00  0.00     0.156 C 
HETATM   10  C17 UNL     1      23.021   0.557  52.929  1.00  0.00     0.143 C 
HETATM   11  N2  UNL     1      21.956   1.309  52.822  1.00  0.00    -0.168 NA
HETATM   12  N3  UNL     1      21.847   2.680  52.472  1.00  0.00    -0.182 N 
HETATM   13  O1  UNL     1      22.970   3.450  52.264  1.00  0.00    -0.230 OA
HETATM   14  H11 UNL     1      24.290   1.029  50.579  1.00  0.00     0.157 HD
HETATM   15  H23 UNL     1      20.884   3.097  52.373  1.00  0.00     0.218 HD
ENDROOT
BRANCH   9  16
HETATM   16  C9  UNL     1      25.481   0.249  52.846  1.00  0.00    -0.017 A 
HETATM   17  C10 UNL     1      25.472  -1.116  52.391  1.00  0.00     0.060 A 
HETATM   18  S1  UNL     1      27.116  -1.754  52.908  1.00  0.00    -0.105 SA
HETATM   19  C11 UNL     1      27.646  -0.234  53.645  1.00  0.00    -0.011 A 
HETATM   20  C12 UNL     1      26.585   0.701  53.484  1.00  0.00    -0.036 A 
HETATM   21  C16 UNL     1      28.901   0.230  54.352  1.00  0.00     0.046 C 
HETATM   22  C13 UNL     1      27.049   1.967  54.093  1.00  0.00     0.040 C 
HETATM   23  C14 UNL     1      28.350   2.433  53.485  1.00  0.00     0.005 C 
HETATM   24  C15 UNL     1      29.475   1.472  53.696  1.00  0.00     0.005 C 
ENDBRANCH   9  16
TORSDOF 1
ENDMDL
MODEL 7
REMARK VINA RESULT:      -7.3      2.640      4.976
REMARK  1 active torsions:
REMARK  status: ('A' for Active; 'I' for Inactive)
REMARK    1  A    between atoms: C8_9  and  C9_10 
ROOT
HETATM    1  C1  UNL     1      21.917   1.357  48.440  1.00  0.00     0.019 C 
HETATM    2  C2  UNL     1      22.411   2.748  48.109  1.00  0.00     0.061 C 
HETATM    3  C3  UNL     1      21.466   3.318  47.112  1.00  0.00    -0.022 C 
HETATM    4  C4  UNL     1      20.377   4.062  47.362  1.00  0.00    -0.030 C 
HETATM    5  C5  UNL     1      20.201   4.272  48.848  1.00  0.00     0.032 C 
HETATM    6  C6  UNL     1      21.557   4.712  49.360  1.00  0.00     0.068 C 
HETATM    7  C7  UNL     1      22.585   3.600  49.339  1.00  0.00     0.166 C 
HETATM    8  N1  UNL     1      22.441   2.852  50.527  1.00  0.00    -0.376 N 
HETATM    9  C8  UNL     1      23.559   2.716  51.369  1.00  0.00     0.156 C 
HETATM   10  C17 UNL     1      23.729   3.989  52.115  1.00  0.00     0.143 C 
HETATM   11  N2  UNL     1      23.859   5.102  51.441  1.00  0.00    -0.168 NA
HETATM   12  N3  UNL     1      23.868   5.316  50.038  1.00  0.00    -0.182 N 
HETATM   13  O1  UNL     1      23.811   4.256  49.159  1.00  0.00    -0.230 OA
HETATM   14  H11 UNL     1      21.519   2.893  50.986  1.00  0.00     0.157 HD
HETATM   15  H23 UNL     1      23.917   6.306  49.683  1.00  0.00     0.218 HD
ENDROOT
BRANCH   9  16
HETATM   16  C9  UNL     1      23.466   1.523  52.210  1.00  0.00    -0.017 A 
HETATM   17  C10 UNL     1      22.211   0.939  52.604  1.00  0.00     0.060 A 
HETATM   18  S1  UNL     1      22.709  -0.494  53.641  1.00  0.00    -0.105 SA
HETATM   19  C11 UNL     1      24.448  -0.209  53.471  1.00  0.00    -0.011 A 
HETATM   20  C12 UNL     1      24.605   0.941  52.649  1.00  0.00    -0.036 A 
HETATM   21  C16 UNL     1      25.697  -0.893  53.983  1.00  0.00     0.046 C 
HETATM   22  C13 UNL     1      26.062   1.156  52.507  1.00  0.00     0.040 C 
HETATM   23  C14 UNL     1      26.754  -0.067  51.956  1.00  0.00     0.005 C 
HETATM   24  C15 UNL     1      26.629  -1.263  52.844  1.00  0.00     0.005 C 
ENDBRANCH   9  16
TORSDOF 1
ENDMDL
MODEL 8
REMARK VINA RESULT:      -7.3      2.851      4.750
REMARK  1 active torsions:
REMARK  status: ('A' for Active; 'I' for Inactive)
REMARK    1  A    between atoms: C8_9  and  C9_10 
ROOT
HETATM    1  C1  UNL     1      26.792   1.337  51.605  1.00  0.00     0.019 C 
HETATM    2  C2  UNL     1      26.417   0.035  52.279  1.00  0.00     0.061 C 
HETATM    3  C3  UNL     1      27.606  -0.411  53.054  1.00  0.00    -0.022 C 
HETATM    4  C4  UNL     1      27.881  -0.143  54.341  1.00  0.00    -0.030 C 
HETATM    5  C5  UNL     1      26.793   0.709  54.954  1.00  0.00     0.032 C 
HETATM    6  C6  UNL     1      25.490   0.037  54.579  1.00  0.00     0.068 C 
HETATM    7  C7  UNL     1      25.163   0.161  53.105  1.00  0.00     0.166 C 
HETATM    8  N1  UNL     1      24.519   1.400  52.905  1.00  0.00    -0.376 N 
HETATM    9  C8  UNL     1      23.241   1.399  52.317  1.00  0.00     0.156 C 
HETATM   10  C17 UNL     1      22.260   0.983  53.351  1.00  0.00     0.143 C 
HETATM   11  N2  UNL     1      22.431  -0.164  53.956  1.00  0.00    -0.168 NA
HETATM   12  N3  UNL     1      23.451  -1.136  53.784  1.00  0.00    -0.182 N 
HETATM   13  O1  UNL     1      24.415  -0.988  52.811  1.00  0.00    -0.230 OA
HETATM   14  H11 UNL     1      24.704   2.132  53.607  1.00  0.00     0.157 HD
HETATM   15  H23 UNL     1      23.455  -1.976  54.420  1.00  0.00     0.218 HD
ENDROOT
BRANCH   9  16
HETATM   16  C9  UNL     1      22.940   2.674  51.668  1.00  0.00    -0.017 A 
HETATM   17  C10 UNL     1      23.310   3.946  52.231  1.00  0.00     0.060 A 
HETATM   18  S1  UNL     1      22.671   5.161  51.009  1.00  0.00    -0.105 SA
HETATM   19  C11 UNL     1      22.003   3.941  49.915  1.00  0.00    -0.011 A 
HETATM   20  C12 UNL     1      22.276   2.669  50.490  1.00  0.00    -0.036 A 
HETATM   21  C16 UNL     1      21.263   3.981  48.595  1.00  0.00     0.046 C 
HETATM   22  C13 UNL     1      21.723   1.662  49.556  1.00  0.00     0.040 C 
HETATM   23  C14 UNL     1      22.292   1.820  48.167  1.00  0.00     0.005 C 
HETATM   24  C15 UNL     1      21.964   3.139  47.545  1.00  0.00     0.005 C 
ENDBRANCH   9  16
TORSDOF 1
ENDMDL
MODEL 9
REMARK VINA RESULT:      -7.2      2.578      4.618
REMARK  1 active torsions:
REMARK  status: ('A' for Active; 'I' for Inactive)
REMARK    1  A    between atoms: C8_9  and  C9_10 
ROOT
HETATM    1  C1  UNL     1      23.865   2.865  49.323  1.00  0.00     0.019 C 
HETATM    2  C2  UNL     1      22.922   4.048  49.338  1.00  0.00     0.061 C 
HETATM    3  C3  UNL     1      22.810   4.531  47.936  1.00  0.00    -0.022 C 
HETATM    4  C4  UNL     1      21.896   4.164  47.023  1.00  0.00    -0.030 C 
HETATM    5  C5  UNL     1      20.938   3.149  47.604  1.00  0.00     0.032 C 
HETATM    6  C6  UNL     1      20.497   3.721  48.935  1.00  0.00     0.068 C 
HETATM    7  C7  UNL     1      21.598   3.714  49.975  1.00  0.00     0.166 C 
HETATM    8  N1  UNL     1      21.610   2.443  50.587  1.00  0.00    -0.376 N 
HETATM    9  C8  UNL     1      21.457   2.374  51.983  1.00  0.00     0.156 C 
HETATM   10  C17 UNL     1      20.021   2.583  52.298  1.00  0.00     0.143 C 
HETATM   11  N2  UNL     1      19.436   3.674  51.877  1.00  0.00    -0.168 NA
HETATM   12  N3  UNL     1      19.968   4.757  51.128  1.00  0.00    -0.182 N 
HETATM   13  O1  UNL     1      21.306   4.805  50.805  1.00  0.00    -0.230 OA
HETATM   14  H11 UNL     1      21.211   1.666  50.039  1.00  0.00     0.157 HD
HETATM   15  H23 UNL     1      19.314   5.524  50.823  1.00  0.00     0.218 HD
ENDROOT
BRANCH   9  16
HETATM   16  C9  UNL     1      22.030   1.147  52.535  1.00  0.00    -0.017 A 
HETATM   17  C10 UNL     1      21.262  -0.054  52.735  1.00  0.00     0.060 A 
HETATM   18  S1  UNL     1      22.481  -1.230  53.450  1.00  0.00    -0.105 SA
HETATM   19  C11 UNL     1      23.832  -0.087  53.422  1.00  0.00    -0.011 A 
HETATM   20  C12 UNL     1      23.337   1.133  52.882  1.00  0.00    -0.036 A 
HETATM   21  C16 UNL     1      25.290  -0.146  53.823  1.00  0.00     0.046 C 
HETATM   22  C13 UNL     1      24.481   2.071  52.854  1.00  0.00     0.040 C 
HETATM   23  C14 UNL     1      25.645   1.506  52.076  1.00  0.00     0.005 C 
HETATM   24  C15 UNL     1      26.195   0.250  52.671  1.00  0.00     0.005 C 
ENDBRANCH   9  16
TORSDOF 1
ENDMDL
