MODEL 1
REMARK VINA RESULT:      -8.4      0.000      0.000
REMARK  5 active torsions:
REMARK  status: ('A' for Active; 'I' for Inactive)
REMARK    1  A    between atoms: C2_2  and  C3_3 
REMARK    2  A    between atoms: C6_6  and  C7_7 
REMARK    3  A    between atoms: C7_7  and  C8_8 
REMARK    4  A    between atoms: C18_22  and  S1_23 
REMARK    5  A    between atoms: S1_23  and  C19_24 
ROOT
HETATM    1  C7  UNL     1      25.811   0.186  53.626  1.00  0.00     0.154 A 
HETATM    2  N3  UNL     1      26.564   0.769  54.731  1.00  0.00    -0.257 NA
HETATM    3  C13 UNL     1      27.761   0.302  54.787  1.00  0.00     0.205 A 
HETATM    4  N4  UNL     1      28.028  -0.649  53.764  1.00  0.00    -0.347 N 
HETATM    5  C14 UNL     1      29.344  -1.279  53.683  1.00  0.00     0.157 C 
HETATM    6  C15 UNL     1      26.782  -0.711  53.037  1.00  0.00     0.042 A 
HETATM    7  C16 UNL     1      26.819  -1.572  52.003  1.00  0.00     0.042 C 
ENDROOT
BRANCH   1   8
HETATM    8  C6  UNL     1      25.481   1.372  52.798  1.00  0.00    -0.016 A 
HETATM    9  C5  UNL     1      26.241   1.511  51.629  1.00  0.00     0.011 A 
HETATM   10  C4  UNL     1      26.077   2.548  50.734  1.00  0.00     0.013 A 
HETATM   11  C3  UNL     1      25.104   3.469  51.049  1.00  0.00    -0.020 A 
HETATM   12  C18 UNL     1      24.340   3.361  52.191  1.00  0.00     0.018 A 
HETATM   13  C17 UNL     1      24.536   2.312  53.056  1.00  0.00     0.030 A 
BRANCH  11  14
HETATM   14  C2  UNL     1      24.905   4.574  50.130  1.00  0.00     0.002 C 
HETATM   15  C1  UNL     1      25.910   4.961  49.368  1.00  0.00     0.012 C 
ENDBRANCH  11  14
BRANCH  12  16
HETATM   16  S1  UNL     1      23.114   4.611  52.492  1.00  0.00    -0.061 SA
BRANCH  16  17
HETATM   17  C19 UNL     1      21.471   3.991  52.154  1.00  0.00     0.309 C 
HETATM   18  O1  UNL     1      20.475   3.536  52.657  1.00  0.00    -0.295 OA
ENDBRANCH  16  17
ENDBRANCH  12  16
ENDBRANCH   1   8
BRANCH   1  19
HETATM   19  C8  UNL     1      24.616  -0.453  54.241  1.00  0.00     0.026 A 
HETATM   20  C9  UNL     1      24.500  -1.006  55.527  1.00  0.00     0.151 A 
HETATM   21  N1  UNL     1      23.273  -1.485  55.715  1.00  0.00    -0.184 NA
HETATM   22  N2  UNL     1      22.550  -1.288  54.632  1.00  0.00    -0.278 N 
HETATM   23  C10 UNL     1      21.162  -1.674  54.458  1.00  0.00     0.179 C 
HETATM   24  C11 UNL     1      23.346  -0.663  53.725  1.00  0.00     0.037 A 
HETATM   25  C12 UNL     1      22.902  -0.268  52.375  1.00  0.00     0.070 C 
ENDBRANCH   1  19
TORSDOF 5
ENDMDL
MODEL 2
REMARK VINA RESULT:      -8.3      2.035      2.638
REMARK  5 active torsions:
REMARK  status: ('A' for Active; 'I' for Inactive)
REMARK    1  A    between atoms: C2_2  and  C3_3 
REMARK    2  A    between atoms: C6_6  and  C7_7 
REMARK    3  A    between atoms: C7_7  and  C8_8 
REMARK    4  A    between atoms: C18_22  and  S1_23 
REMARK    5  A    between atoms: S1_23  and  C19_24 
ROOT
HETATM    1  C7  UNL     1      25.701   0.268  53.666  1.00  0.00     0.154 A 
HETATM    2  N3  UNL     1      26.465   0.803  54.787  1.00  0.00    -0.257 NA
HETATM    3  C13 UNL     1      27.673   0.364  54.789  1.00  0.00     0.205 A 
HETATM    4  N4  UNL     1      27.940  -0.518  53.706  1.00  0.00    -0.347 N 
HETATM    5  C14 UNL     1      29.268  -1.108  53.558  1.00  0.00     0.157 C 
HETATM    6  C15 UNL     1      26.678  -0.567  53.003  1.00  0.00     0.042 A 
HETATM    7  C16 UNL     1      26.712  -1.364  51.919  1.00  0.00     0.042 C 
ENDROOT
BRANCH   1   8
HETATM    8  C6  UNL     1      25.323   1.493  52.919  1.00  0.00    -0.016 A 
HETATM    9  C5  UNL     1      24.589   2.434  53.653  1.00  0.00     0.011 A 
HETATM   10  C4  UNL     1      24.151   3.633  53.130  1.00  0.00     0.013 A 
HETATM   11  C3  UNL     1      24.476   3.872  51.814  1.00  0.00    -0.020 A 
HETATM   12  C18 UNL     1      25.197   2.967  51.066  1.00  0.00     0.018 A 
HETATM   13  C17 UNL     1      25.614   1.784  51.625  1.00  0.00     0.030 A 
BRANCH  11  14
HETATM   14  C2  UNL     1      24.032   5.124  51.231  1.00  0.00     0.002 C 
HETATM   15  C1  UNL     1      22.810   5.551  51.489  1.00  0.00     0.012 C 
ENDBRANCH  11  14
BRANCH  12  16
HETATM   16  S1  UNL     1      25.557   3.386  49.377  1.00  0.00    -0.061 SA
BRANCH  16  17
HETATM   17  C19 UNL     1      27.076   4.323  49.259  1.00  0.00     0.309 C 
HETATM   18  O1  UNL     1      28.000   4.600  48.537  1.00  0.00    -0.295 OA
ENDBRANCH  16  17
ENDBRANCH  12  16
ENDBRANCH   1   8
BRANCH   1  19
HETATM   19  C8  UNL     1      24.536  -0.436  54.268  1.00  0.00     0.026 A 
HETATM   20  C9  UNL     1      24.454  -1.042  55.533  1.00  0.00     0.151 A 
HETATM   21  N1  UNL     1      23.247  -1.572  55.714  1.00  0.00    -0.184 NA
HETATM   22  N2  UNL     1      22.505  -1.360  54.647  1.00  0.00    -0.278 N 
HETATM   23  C10 UNL     1      21.130  -1.789  54.471  1.00  0.00     0.179 C 
HETATM   24  C11 UNL     1      23.268  -0.673  53.757  1.00  0.00     0.037 A 
HETATM   25  C12 UNL     1      22.795  -0.242  52.428  1.00  0.00     0.070 C 
ENDBRANCH   1  19
TORSDOF 5
ENDMDL
MODEL 3
REMARK VINA RESULT:      -7.7      3.291      5.608
REMARK  5 active torsions:
REMARK  status: ('A' for Active; 'I' for Inactive)
REMARK    1  A    between atoms: C2_2  and  C3_3 
REMARK    2  A    between atoms: C6_6  and  C7_7 
REMARK    3  A    between atoms: C7_7  and  C8_8 
REMARK    4  A    between atoms: C18_22  and  S1_23 
REMARK    5  A    between atoms: S1_23  and  C19_24 
ROOT
HETATM    1  C7  UNL     1      23.198   3.007  51.563  1.00  0.00     0.154 A 
HETATM    2  N3  UNL     1      23.497   3.041  50.136  1.00  0.00    -0.257 NA
HETATM    3  C13 UNL     1      23.976   4.181  49.780  1.00  0.00     0.205 A 
HETATM    4  N4  UNL     1      24.085   5.094  50.864  1.00  0.00    -0.347 N 
HETATM    5  C14 UNL     1      24.612   6.437  50.633  1.00  0.00     0.157 C 
HETATM    6  C15 UNL     1      23.588   4.333  51.987  1.00  0.00     0.042 A 
HETATM    7  C16 UNL     1      23.607   5.028  53.140  1.00  0.00     0.042 C 
ENDROOT
BRANCH   1   8
HETATM    8  C6  UNL     1      24.078   1.916  52.051  1.00  0.00    -0.016 A 
HETATM    9  C5  UNL     1      25.277   1.759  51.344  1.00  0.00     0.011 A 
HETATM   10  C4  UNL     1      26.221   0.801  51.652  1.00  0.00     0.013 A 
HETATM   11  C3  UNL     1      25.925  -0.019  52.717  1.00  0.00    -0.020 A 
HETATM   12  C18 UNL     1      24.754   0.110  53.432  1.00  0.00     0.018 A 
HETATM   13  C17 UNL     1      23.840   1.078  53.093  1.00  0.00     0.030 A 
BRANCH  11  14
HETATM   14  C2  UNL     1      26.895  -1.038  53.068  1.00  0.00     0.002 C 
HETATM   15  C1  UNL     1      28.126  -0.671  53.373  1.00  0.00     0.012 C 
ENDBRANCH  11  14
BRANCH  12  16
HETATM   16  S1  UNL     1      24.482  -1.006  54.787  1.00  0.00    -0.061 SA
BRANCH  16  17
HETATM   17  C19 UNL     1      22.735  -1.194  55.121  1.00  0.00     0.309 C 
HETATM   18  O1  UNL     1      21.800  -1.952  55.042  1.00  0.00    -0.295 OA
ENDBRANCH  16  17
ENDBRANCH  12  16
ENDBRANCH   1   8
BRANCH   1  19
HETATM   19  C8  UNL     1      21.749   2.684  51.666  1.00  0.00     0.026 A 
HETATM   20  C9  UNL     1      20.772   3.338  52.435  1.00  0.00     0.151 A 
HETATM   21  N1  UNL     1      19.587   2.758  52.268  1.00  0.00    -0.184 NA
HETATM   22  N2  UNL     1      19.702   1.749  51.430  1.00  0.00    -0.278 N 
HETATM   23  C10 UNL     1      18.626   0.876  51.001  1.00  0.00     0.179 C 
HETATM   24  C11 UNL     1      21.006   1.686  51.053  1.00  0.00     0.037 A 
HETATM   25  C12 UNL     1      21.544   0.683  50.115  1.00  0.00     0.070 C 
ENDBRANCH   1  19
TORSDOF 5
ENDMDL
MODEL 4
REMARK VINA RESULT:      -7.4      3.517      7.069
REMARK  5 active torsions:
REMARK  status: ('A' for Active; 'I' for Inactive)
REMARK    1  A    between atoms: C2_2  and  C3_3 
REMARK    2  A    between atoms: C6_6  and  C7_7 
REMARK    3  A    between atoms: C7_7  and  C8_8 
REMARK    4  A    between atoms: C18_22  and  S1_23 
REMARK    5  A    between atoms: S1_23  and  C19_24 
ROOT
HETATM    1  C7  UNL     1      23.552   3.424  50.888  1.00  0.00     0.154 A 
HETATM    2  N3  UNL     1      23.374   4.444  51.916  1.00  0.00    -0.257 NA
HETATM    3  C13 UNL     1      22.391   5.226  51.642  1.00  0.00     0.205 A 
HETATM    4  N4  UNL     1      21.745   4.890  50.421  1.00  0.00    -0.347 N 
HETATM    5  C14 UNL     1      20.605   5.679  49.960  1.00  0.00     0.157 C 
HETATM    6  C15 UNL     1      22.493   3.745  49.956  1.00  0.00     0.042 A 
HETATM    7  C16 UNL     1      22.035   3.258  48.788  1.00  0.00     0.042 C 
ENDROOT
BRANCH   1   8
HETATM    8  C6  UNL     1      23.351   2.164  51.645  1.00  0.00    -0.016 A 
HETATM    9  C5  UNL     1      22.100   1.558  51.469  1.00  0.00     0.011 A 
HETATM   10  C4  UNL     1      21.730   0.381  52.087  1.00  0.00     0.013 A 
HETATM   11  C3  UNL     1      22.674  -0.189  52.911  1.00  0.00    -0.020 A 
HETATM   12  C18 UNL     1      23.913   0.381  53.105  1.00  0.00     0.018 A 
HETATM   13  C17 UNL     1      24.240   1.554  52.470  1.00  0.00     0.030 A 
BRANCH  11  14
HETATM   14  C2  UNL     1      22.319  -1.427  53.578  1.00  0.00     0.002 C 
HETATM   15  C1  UNL     1      21.378  -1.408  54.503  1.00  0.00     0.012 C 
ENDBRANCH  11  14
BRANCH  12  16
HETATM   16  S1  UNL     1      25.048  -0.448  54.192  1.00  0.00    -0.061 SA
BRANCH  16  17
HETATM   17  C19 UNL     1      26.450   0.596  54.571  1.00  0.00     0.309 C 
HETATM   18  O1  UNL     1      27.576   0.603  55.001  1.00  0.00    -0.295 OA
ENDBRANCH  16  17
ENDBRANCH  12  16
ENDBRANCH   1   8
BRANCH   1  19
HETATM   19  C8  UNL     1      24.942   3.593  50.386  1.00  0.00     0.026 A 
HETATM   20  C9  UNL     1      26.058   2.781  50.648  1.00  0.00     0.151 A 
HETATM   21  N1  UNL     1      27.132   3.254  50.021  1.00  0.00    -0.184 NA
HETATM   22  N2  UNL     1      26.810   4.339  49.348  1.00  0.00    -0.278 N 
HETATM   23  C10 UNL     1      27.714   5.136  48.540  1.00  0.00     0.179 C 
HETATM   24  C11 UNL     1      25.485   4.563  49.556  1.00  0.00     0.037 A 
HETATM   25  C12 UNL     1      24.739   5.692  48.969  1.00  0.00     0.070 C 
ENDBRANCH   1  19
TORSDOF 5
ENDMDL
MODEL 5
REMARK VINA RESULT:      -7.4      3.582      6.572
REMARK  5 active torsions:
REMARK  status: ('A' for Active; 'I' for Inactive)
REMARK    1  A    between atoms: C2_2  and  C3_3 
REMARK    2  A    between atoms: C6_6  and  C7_7 
REMARK    3  A    between atoms: C7_7  and  C8_8 
REMARK    4  A    between atoms: C18_22  and  S1_23 
REMARK    5  A    between atoms: S1_23  and  C19_24 
ROOT
HETATM    1  C7  UNL     1      22.196   2.400  51.244  1.00  0.00     0.154 A 
HETATM    2  N3  UNL     1      21.258   2.665  52.329  1.00  0.00    -0.257 NA
HETATM    3  C13 UNL     1      20.094   2.176  52.079  1.00  0.00     0.205 A 
HETATM    4  N4  UNL     1      20.036   1.513  50.822  1.00  0.00    -0.347 N 
HETATM    5  C14 UNL     1      18.785   0.899  50.382  1.00  0.00     0.157 C 
HETATM    6  C15 UNL     1      21.376   1.665  50.306  1.00  0.00     0.042 A 
HETATM    7  C16 UNL     1      21.541   1.095  49.098  1.00  0.00     0.042 C 
ENDROOT
BRANCH   1   8
HETATM    8  C6  UNL     1      23.246   1.595  51.914  1.00  0.00    -0.016 A 
HETATM    9  C5  UNL     1      24.525   1.698  51.350  1.00  0.00     0.011 A 
HETATM   10  C4  UNL     1      25.627   1.027  51.836  1.00  0.00     0.013 A 
HETATM   11  C3  UNL     1      25.410   0.225  52.934  1.00  0.00    -0.020 A 
HETATM   12  C18 UNL     1      24.165   0.102  53.512  1.00  0.00     0.018 A 
HETATM   13  C17 UNL     1      23.093   0.789  52.996  1.00  0.00     0.030 A 
BRANCH  11  14
HETATM   14  C2  UNL     1      26.547  -0.496  53.472  1.00  0.00     0.002 C 
HETATM   15  C1  UNL     1      27.120  -1.430  52.735  1.00  0.00     0.012 C 
ENDBRANCH  11  14
BRANCH  12  16
HETATM   16  S1  UNL     1      24.008  -0.962  54.925  1.00  0.00    -0.061 SA
BRANCH  16  17
HETATM   17  C19 UNL     1      22.370  -1.678  55.009  1.00  0.00     0.309 C 
HETATM   18  O1  UNL     1      21.192  -1.436  54.929  1.00  0.00    -0.295 OA
ENDBRANCH  16  17
ENDBRANCH  12  16
ENDBRANCH   1   8
BRANCH   1  19
HETATM   19  C8  UNL     1      22.677   3.733  50.790  1.00  0.00     0.026 A 
HETATM   20  C9  UNL     1      22.674   4.253  49.485  1.00  0.00     0.151 A 
HETATM   21  N1  UNL     1      23.188   5.480  49.474  1.00  0.00    -0.184 NA
HETATM   22  N2  UNL     1      23.539   5.824  50.696  1.00  0.00    -0.278 N 
HETATM   23  C10 UNL     1      24.135   7.088  51.083  1.00  0.00     0.179 C 
HETATM   24  C11 UNL     1      23.238   4.778  51.510  1.00  0.00     0.037 A 
HETATM   25  C12 UNL     1      23.482   4.771  52.965  1.00  0.00     0.070 C 
ENDBRANCH   1  19
TORSDOF 5
ENDMDL
MODEL 6
REMARK VINA RESULT:      -7.4      3.425      5.797
REMARK  5 active torsions:
REMARK  status: ('A' for Active; 'I' for Inactive)
REMARK    1  A    between atoms: C2_2  and  C3_3 
REMARK    2  A    between atoms: C6_6  and  C7_7 
REMARK    3  A    between atoms: C7_7  and  C8_8 
REMARK    4  A    between atoms: C18_22  and  S1_23 
REMARK    5  A    between atoms: S1_23  and  C19_24 
ROOT
HETATM    1  C7  UNL     1      24.609   3.520  50.744  1.00  0.00     0.154 A 
HETATM    2  N3  UNL     1      23.869   2.871  49.667  1.00  0.00    -0.257 NA
HETATM    3  C13 UNL     1      22.605   3.088  49.763  1.00  0.00     0.205 A 
HETATM    4  N4  UNL     1      22.270   3.898  50.883  1.00  0.00    -0.347 N 
HETATM    5  C14 UNL     1      20.874   4.242  51.139  1.00  0.00     0.157 C 
HETATM    6  C15 UNL     1      23.553   4.163  51.494  1.00  0.00     0.042 A 
HETATM    7  C16 UNL     1      23.460   4.932  52.594  1.00  0.00     0.042 C 
ENDROOT
BRANCH   1   8
HETATM    8  C6  UNL     1      25.501   4.450  50.007  1.00  0.00    -0.016 A 
HETATM    9  C5  UNL     1      26.630   3.856  49.428  1.00  0.00     0.011 A 
HETATM   10  C4  UNL     1      27.571   4.558  48.703  1.00  0.00     0.013 A 
HETATM   11  C3  UNL     1      27.346   5.909  48.571  1.00  0.00    -0.020 A 
HETATM   12  C18 UNL     1      26.246   6.523  49.128  1.00  0.00     0.018 A 
HETATM   13  C17 UNL     1      25.332   5.787  49.843  1.00  0.00     0.030 A 
BRANCH  11  14
HETATM   14  C2  UNL     1      28.316   6.679  47.816  1.00  0.00     0.002 C 
HETATM   15  C1  UNL     1      29.578   6.293  47.815  1.00  0.00     0.012 C 
ENDBRANCH  11  14
BRANCH  12  16
HETATM   16  S1  UNL     1      26.062   8.274  48.890  1.00  0.00    -0.061 SA
BRANCH  16  17
HETATM   17  C19 UNL     1      27.193   9.185  49.934  1.00  0.00     0.309 C 
HETATM   18  O1  UNL     1      27.371   9.605  51.049  1.00  0.00    -0.295 OA
ENDBRANCH  16  17
ENDBRANCH  12  16
ENDBRANCH   1   8
BRANCH   1  19
HETATM   19  C8  UNL     1      25.344   2.433  51.445  1.00  0.00     0.026 A 
HETATM   20  C9  UNL     1      26.733   2.290  51.597  1.00  0.00     0.151 A 
HETATM   21  N1  UNL     1      27.011   1.186  52.285  1.00  0.00    -0.184 NA
HETATM   22  N2  UNL     1      25.892   0.571  52.610  1.00  0.00    -0.278 N 
HETATM   23  C10 UNL     1      25.790  -0.665  53.362  1.00  0.00     0.179 C 
HETATM   24  C11 UNL     1      24.868   1.311  52.109  1.00  0.00     0.037 A 
HETATM   25  C12 UNL     1      23.445   0.955  52.260  1.00  0.00     0.070 C 
ENDBRANCH   1  19
TORSDOF 5
ENDMDL
MODEL 7
REMARK VINA RESULT:      -7.3      3.765      6.237
REMARK  5 active torsions:
REMARK  status: ('A' for Active; 'I' for Inactive)
REMARK    1  A    between atoms: C2_2  and  C3_3 
REMARK    2  A    between atoms: C6_6  and  C7_7 
REMARK    3  A    between atoms: C7_7  and  C8_8 
REMARK    4  A    between atoms: C18_22  and  S1_23 
REMARK    5  A    between atoms: S1_23  and  C19_24 
ROOT
HETATM    1  C7  UNL     1      22.790   3.007  50.929  1.00  0.00     0.154 A 
HETATM    2  N3  UNL     1      22.974   2.520  49.567  1.00  0.00    -0.257 NA
HETATM    3  C13 UNL     1      23.534   3.403  48.819  1.00  0.00     0.205 A 
HETATM    4  N4  UNL     1      23.823   4.609  49.516  1.00  0.00    -0.347 N 
HETATM    5  C14 UNL     1      24.462   5.719  48.813  1.00  0.00     0.157 C 
HETATM    6  C15 UNL     1      23.345   4.341  50.852  1.00  0.00     0.042 A 
HETATM    7  C16 UNL     1      23.527   5.376  51.693  1.00  0.00     0.042 C 
ENDROOT
BRANCH   1   8
HETATM    8  C6  UNL     1      23.592   2.047  51.727  1.00  0.00    -0.016 A 
HETATM    9  C5  UNL     1      22.846   1.153  52.507  1.00  0.00     0.011 A 
HETATM   10  C4  UNL     1      23.414   0.188  53.312  1.00  0.00     0.013 A 
HETATM   11  C3  UNL     1      24.790   0.140  53.317  1.00  0.00    -0.020 A 
HETATM   12  C18 UNL     1      25.552   1.004  52.561  1.00  0.00     0.018 A 
HETATM   13  C17 UNL     1      24.945   1.951  51.772  1.00  0.00     0.030 A 
BRANCH  11  14
HETATM   14  C2  UNL     1      25.422  -0.863  54.152  1.00  0.00     0.002 C 
HETATM   15  C1  UNL     1      25.053  -0.968  55.415  1.00  0.00     0.012 C 
ENDBRANCH  11  14
BRANCH  12  16
HETATM   16  S1  UNL     1      27.319   0.846  52.649  1.00  0.00    -0.061 SA
BRANCH  16  17
HETATM   17  C19 UNL     1      28.038   2.192  53.581  1.00  0.00     0.309 C 
HETATM   18  O1  UNL     1      28.961   2.508  54.289  1.00  0.00    -0.295 OA
ENDBRANCH  16  17
ENDBRANCH  12  16
ENDBRANCH   1   8
BRANCH   1  19
HETATM   19  C8  UNL     1      21.329   2.919  51.198  1.00  0.00     0.026 A 
HETATM   20  C9  UNL     1      20.568   3.692  52.090  1.00  0.00     0.151 A 
HETATM   21  N1  UNL     1      19.292   3.317  52.054  1.00  0.00    -0.184 NA
HETATM   22  N2  UNL     1      19.142   2.335  51.189  1.00  0.00    -0.278 N 
HETATM   23  C10 UNL     1      17.895   1.664  50.874  1.00  0.00     0.179 C 
HETATM   24  C11 UNL     1      20.367   2.077  50.659  1.00  0.00     0.037 A 
HETATM   25  C12 UNL     1      20.622   1.037  49.644  1.00  0.00     0.070 C 
ENDBRANCH   1  19
TORSDOF 5
ENDMDL
MODEL 8
REMARK VINA RESULT:      -7.3      3.551      6.965
REMARK  5 active torsions:
REMARK  status: ('A' for Active; 'I' for Inactive)
REMARK    1  A    between atoms: C2_2  and  C3_3 
REMARK    2  A    between atoms: C6_6  and  C7_7 
REMARK    3  A    between atoms: C7_7  and  C8_8 
REMARK    4  A    between atoms: C18_22  and  S1_23 
REMARK    5  A    between atoms: S1_23  and  C19_24 
ROOT
HETATM    1  C7  UNL     1      23.350   4.055  51.015  1.00  0.00     0.154 A 
HETATM    2  N3  UNL     1      22.727   4.924  52.007  1.00  0.00    -0.257 NA
HETATM    3  C13 UNL     1      21.486   5.133  51.741  1.00  0.00     0.205 A 
HETATM    4  N4  UNL     1      21.057   4.465  50.561  1.00  0.00    -0.347 N 
HETATM    5  C14 UNL     1      19.673   4.596  50.114  1.00  0.00     0.157 C 
HETATM    6  C15 UNL     1      22.251   3.786  50.114  1.00  0.00     0.042 A 
HETATM    7  C16 UNL     1      22.060   3.077  48.986  1.00  0.00     0.042 C 
ENDROOT
BRANCH   1   8
HETATM    8  C6  UNL     1      23.782   2.893  51.830  1.00  0.00    -0.016 A 
HETATM    9  C5  UNL     1      24.934   3.102  52.600  1.00  0.00     0.011 A 
HETATM   10  C4  UNL     1      25.485   2.140  53.421  1.00  0.00     0.013 A 
HETATM   11  C3  UNL     1      24.833   0.928  53.453  1.00  0.00    -0.020 A 
HETATM   12  C18 UNL     1      23.698   0.691  52.709  1.00  0.00     0.018 A 
HETATM   13  C17 UNL     1      23.182   1.677  51.903  1.00  0.00     0.030 A 
BRANCH  11  14
HETATM   14  C2  UNL     1      25.385  -0.107  54.306  1.00  0.00     0.002 C 
HETATM   15  C1  UNL     1      26.463   0.160  55.020  1.00  0.00     0.012 C 
ENDBRANCH  11  14
BRANCH  12  16
HETATM   16  S1  UNL     1      22.945  -0.913  52.832  1.00  0.00    -0.061 SA
BRANCH  16  17
HETATM   17  C19 UNL     1      21.818  -0.987  54.219  1.00  0.00     0.309 C 
HETATM   18  O1  UNL     1      21.513  -1.620  55.198  1.00  0.00    -0.295 OA
ENDBRANCH  16  17
ENDBRANCH  12  16
ENDBRANCH   1   8
BRANCH   1  19
HETATM   19  C8  UNL     1      24.487   4.832  50.451  1.00  0.00     0.026 A 
HETATM   20  C9  UNL     1      24.722   6.214  50.552  1.00  0.00     0.151 A 
HETATM   21  N1  UNL     1      25.843   6.540  49.916  1.00  0.00    -0.184 NA
HETATM   22  N2  UNL     1      26.384   5.460  49.389  1.00  0.00    -0.278 N 
HETATM   23  C10 UNL     1      27.614   5.416  48.621  1.00  0.00     0.179 C 
HETATM   24  C11 UNL     1      25.577   4.413  49.702  1.00  0.00     0.037 A 
HETATM   25  C12 UNL     1      25.839   3.021  49.292  1.00  0.00     0.070 C 
ENDBRANCH   1  19
TORSDOF 5
ENDMDL
MODEL 9
REMARK VINA RESULT:      -7.1      3.785      6.464
REMARK  5 active torsions:
REMARK  status: ('A' for Active; 'I' for Inactive)
REMARK    1  A    between atoms: C2_2  and  C3_3 
REMARK    2  A    between atoms: C6_6  and  C7_7 
REMARK    3  A    between atoms: C7_7  and  C8_8 
REMARK    4  A    between atoms: C18_22  and  S1_23 
REMARK    5  A    between atoms: S1_23  and  C19_24 
ROOT
HETATM    1  C7  UNL     1      24.361   3.808  49.927  1.00  0.00     0.154 A 
HETATM    2  N3  UNL     1      25.580   4.012  49.153  1.00  0.00    -0.257 NA
HETATM    3  C13 UNL     1      26.052   5.198  49.317  1.00  0.00     0.205 A 
HETATM    4  N4  UNL     1      25.265   5.985  50.202  1.00  0.00    -0.347 N 
HETATM    5  C14 UNL     1      25.660   7.359  50.499  1.00  0.00     0.157 C 
HETATM    6  C15 UNL     1      24.197   5.088  50.580  1.00  0.00     0.042 A 
HETATM    7  C16 UNL     1      23.320   5.647  51.435  1.00  0.00     0.042 C 
ENDROOT
BRANCH   1   8
HETATM    8  C6  UNL     1      24.736   2.694  50.833  1.00  0.00    -0.016 A 
HETATM    9  C5  UNL     1      26.105   2.398  50.876  1.00  0.00     0.011 A 
HETATM   10  C4  UNL     1      26.643   1.399  51.660  1.00  0.00     0.013 A 
HETATM   11  C3  UNL     1      25.749   0.682  52.421  1.00  0.00    -0.020 A 
HETATM   12  C18 UNL     1      24.397   0.948  52.402  1.00  0.00     0.018 A 
HETATM   13  C17 UNL     1      23.902   1.953  51.606  1.00  0.00     0.030 A 
BRANCH  11  14
HETATM   14  C2  UNL     1      26.280  -0.377  53.258  1.00  0.00     0.002 C 
HETATM   15  C1  UNL     1      26.999  -1.334  52.700  1.00  0.00     0.012 C 
ENDBRANCH  11  14
BRANCH  12  16
HETATM   16  S1  UNL     1      23.340  -0.045  53.428  1.00  0.00    -0.061 SA
BRANCH  16  17
HETATM   17  C19 UNL     1      21.655  -0.017  52.829  1.00  0.00     0.309 C 
HETATM   18  O1  UNL     1      20.971   0.008  51.838  1.00  0.00    -0.295 OA
ENDBRANCH  16  17
ENDBRANCH  12  16
ENDBRANCH   1   8
BRANCH   1  19
HETATM   19  C8  UNL     1      23.312   3.435  48.940  1.00  0.00     0.026 A 
HETATM   20  C9  UNL     1      22.713   2.178  48.750  1.00  0.00     0.151 A 
HETATM   21  N1  UNL     1      21.816   2.237  47.770  1.00  0.00    -0.184 NA
HETATM   22  N2  UNL     1      21.770   3.459  47.284  1.00  0.00    -0.278 N 
HETATM   23  C10 UNL     1      20.911   3.911  46.205  1.00  0.00     0.179 C 
HETATM   24  C11 UNL     1      22.670   4.203  47.979  1.00  0.00     0.037 A 
HETATM   25  C12 UNL     1      22.919   5.636  47.733  1.00  0.00     0.070 C 
ENDBRANCH   1  19
TORSDOF 5
ENDMDL
