MODEL 1
REMARK VINA RESULT:      -9.1      0.000      0.000
REMARK  0 active torsions:
REMARK  status: ('A' for Active; 'I' for Inactive)
ROOT
HETATM    1  F1  UNL     1      23.005   6.338  50.439  1.00  0.00    -0.204 F 
HETATM    2  C1  UNL     1      22.894   5.063  50.919  1.00  0.00     0.140 A 
HETATM    3  C2  UNL     1      22.256   4.108  50.130  1.00  0.00     0.076 A 
HETATM    4  C3  UNL     1      22.116   2.803  50.561  1.00  0.00     0.072 A 
HETATM    5  C4  UNL     1      22.646   2.566  51.781  1.00  0.00     0.007 A 
HETATM    6  C5  UNL     1      23.310   3.420  52.684  1.00  0.00     0.041 A 
HETATM    7  C6  UNL     1      23.416   4.734  52.178  1.00  0.00     0.073 A 
HETATM    8 CL1  UNL     1      24.205   5.989  53.112  1.00  0.00    -0.081 Cl
HETATM    9  C7  UNL     1      22.664   1.255  52.434  1.00  0.00     0.006 C 
HETATM   10  C8  UNL     1      23.887   1.355  53.027  1.00  0.00     0.025 C 
HETATM   11  C9  UNL     1      24.608   0.416  53.881  1.00  0.00    -0.017 C 
HETATM   12  C10 UNL     1      24.165  -0.595  54.657  1.00  0.00     0.057 C 
HETATM   13  C11 UNL     1      22.987  -1.345  55.134  1.00  0.00     0.092 C 
HETATM   14  C12 UNL     1      21.812  -1.365  54.277  1.00  0.00    -0.018 C 
HETATM   15  C13 UNL     1      21.147  -0.869  53.211  1.00  0.00     0.029 C 
HETATM   16  C14 UNL     1      21.621   0.199  52.341  1.00  0.00     0.069 C 
HETATM   17  N1  UNL     1      20.867   0.000  51.301  1.00  0.00    -0.241 NA
HETATM   18  C15 UNL     1      20.909   0.754  50.069  1.00  0.00     0.234 C 
HETATM   19  N2  UNL     1      21.409   1.908  49.711  1.00  0.00    -0.241 NA
HETATM   20  O1  UNL     1      25.372  -1.089  55.203  1.00  0.00    -0.353 OA
HETATM   21  C16 UNL     1      26.323  -0.043  55.269  1.00  0.00     0.190 C 
HETATM   22  C17 UNL     1      26.032   0.606  53.901  1.00  0.00     0.015 C 
HETATM   23  C18 UNL     1      26.760  -0.333  52.928  1.00  0.00     0.043 C 
HETATM   24  C19 UNL     1      26.653   0.087  51.506  1.00  0.00     0.168 C 
HETATM   25  O2  UNL     1      26.643   1.450  51.408  1.00  0.00    -0.391 OA
HETATM   26  C20 UNL     1      27.392   1.986  52.452  1.00  0.00     0.168 C 
HETATM   27  C21 UNL     1      26.626   1.935  53.759  1.00  0.00     0.043 C 
ENDROOT
TORSDOF 0
ENDMDL
MODEL 2
REMARK VINA RESULT:      -8.6      3.777      6.804
REMARK  0 active torsions:
REMARK  status: ('A' for Active; 'I' for Inactive)
ROOT
HETATM    1  F1  UNL     1      26.583  -0.256  52.382  1.00  0.00    -0.204 F 
HETATM    2  C1  UNL     1      26.002   0.904  51.951  1.00  0.00     0.140 A 
HETATM    3  C2  UNL     1      26.697   1.700  51.042  1.00  0.00     0.076 A 
HETATM    4  C3  UNL     1      26.161   2.880  50.570  1.00  0.00     0.072 A 
HETATM    5  C4  UNL     1      24.937   3.166  51.065  1.00  0.00     0.007 A 
HETATM    6  C5  UNL     1      24.122   2.469  51.979  1.00  0.00     0.041 A 
HETATM    7  C6  UNL     1      24.733   1.275  52.418  1.00  0.00     0.073 A 
HETATM    8 CL1  UNL     1      23.920   0.223  53.560  1.00  0.00    -0.081 Cl
HETATM    9  C7  UNL     1      24.142   4.337  50.684  1.00  0.00     0.006 C 
HETATM   10  C8  UNL     1      22.914   3.749  50.707  1.00  0.00     0.025 C 
HETATM   11  C9  UNL     1      21.590   4.303  50.441  1.00  0.00    -0.017 C 
HETATM   12  C10 UNL     1      21.132   5.571  50.501  1.00  0.00     0.057 C 
HETATM   13  C11 UNL     1      21.467   6.980  50.788  1.00  0.00     0.092 C 
HETATM   14  C12 UNL     1      22.852   7.389  50.615  1.00  0.00    -0.018 C 
HETATM   15  C13 UNL     1      24.146   7.049  50.437  1.00  0.00     0.029 C 
HETATM   16  C14 UNL     1      24.658   5.688  50.338  1.00  0.00     0.069 C 
HETATM   17  N1  UNL     1      25.806   5.915  49.774  1.00  0.00    -0.241 NA
HETATM   18  C15 UNL     1      26.770   4.911  49.385  1.00  0.00     0.234 C 
HETATM   19  N2  UNL     1      26.961   3.651  49.681  1.00  0.00    -0.241 NA
HETATM   20  O1  UNL     1      19.780   5.407  50.125  1.00  0.00    -0.353 OA
HETATM   21  C16 UNL     1      19.345   4.108  50.480  1.00  0.00     0.190 C 
HETATM   22  C17 UNL     1      20.606   3.330  50.053  1.00  0.00     0.015 C 
HETATM   23  C18 UNL     1      20.440   3.241  48.529  1.00  0.00     0.043 C 
HETATM   24  C19 UNL     1      21.540   2.502  47.855  1.00  0.00     0.168 C 
HETATM   25  O2  UNL     1      21.990   1.483  48.648  1.00  0.00    -0.391 OA
HETATM   26  C20 UNL     1      20.935   1.016  49.428  1.00  0.00     0.168 C 
HETATM   27  C21 UNL     1      20.639   1.963  50.574  1.00  0.00     0.043 C 
ENDROOT
TORSDOF 0
ENDMDL
MODEL 3
REMARK VINA RESULT:      -8.3      2.927      5.914
REMARK  0 active torsions:
REMARK  status: ('A' for Active; 'I' for Inactive)
ROOT
HETATM    1  F1  UNL     1      26.633   1.017  54.613  1.00  0.00    -0.204 F 
HETATM    2  C1  UNL     1      25.720   1.222  53.616  1.00  0.00     0.140 A 
HETATM    3  C2  UNL     1      24.422   0.745  53.793  1.00  0.00     0.076 A 
HETATM    4  C3  UNL     1      23.457   0.924  52.823  1.00  0.00     0.072 A 
HETATM    5  C4  UNL     1      23.892   1.586  51.729  1.00  0.00     0.007 A 
HETATM    6  C5  UNL     1      25.157   2.120  51.411  1.00  0.00     0.041 A 
HETATM    7  C6  UNL     1      26.091   1.900  52.446  1.00  0.00     0.073 A 
HETATM    8 CL1  UNL     1      27.741   2.470  52.296  1.00  0.00    -0.081 Cl
HETATM    9  C7  UNL     1      23.047   1.938  50.584  1.00  0.00     0.006 C 
HETATM   10  C8  UNL     1      23.598   3.154  50.308  1.00  0.00     0.025 C 
HETATM   11  C9  UNL     1      23.282   4.125  49.265  1.00  0.00    -0.017 C 
HETATM   12  C10 UNL     1      22.684   3.973  48.066  1.00  0.00     0.057 C 
HETATM   13  C11 UNL     1      22.061   3.025  47.120  1.00  0.00     0.092 C 
HETATM   14  C12 UNL     1      21.466   1.819  47.674  1.00  0.00    -0.018 C 
HETATM   15  C13 UNL     1      21.307   0.982  48.721  1.00  0.00     0.029 C 
HETATM   16  C14 UNL     1      21.917   1.143  50.034  1.00  0.00     0.069 C 
HETATM   17  N1  UNL     1      21.148   0.371  50.742  1.00  0.00    -0.241 NA
HETATM   18  C15 UNL     1      21.249   0.153  52.166  1.00  0.00     0.234 C 
HETATM   19  N2  UNL     1      22.173   0.362  53.068  1.00  0.00    -0.241 NA
HETATM   20  O1  UNL     1      22.691   5.297  47.571  1.00  0.00    -0.353 OA
HETATM   21  C16 UNL     1      23.786   6.002  48.125  1.00  0.00     0.190 C 
HETATM   22  C17 UNL     1      23.680   5.472  49.569  1.00  0.00     0.015 C 
HETATM   23  C18 UNL     1      22.527   6.307  50.145  1.00  0.00     0.043 C 
HETATM   24  C19 UNL     1      22.226   6.000  51.568  1.00  0.00     0.168 C 
HETATM   25  O2  UNL     1      23.372   5.688  52.245  1.00  0.00    -0.391 OA
HETATM   26  C20 UNL     1      24.437   6.384  51.678  1.00  0.00     0.168 C 
HETATM   27  C21 UNL     1      24.871   5.752  50.370  1.00  0.00     0.043 C 
ENDROOT
TORSDOF 0
ENDMDL
MODEL 4
REMARK VINA RESULT:      -8.1      3.024      5.658
REMARK  0 active torsions:
REMARK  status: ('A' for Active; 'I' for Inactive)
ROOT
HETATM    1  F1  UNL     1      26.530  -0.642  54.327  1.00  0.00    -0.204 F 
HETATM    2  C1  UNL     1      25.333  -0.295  53.765  1.00  0.00     0.140 A 
HETATM    3  C2  UNL     1      24.171  -0.462  54.516  1.00  0.00     0.076 A 
HETATM    4  C3  UNL     1      22.934  -0.127  54.002  1.00  0.00     0.072 A 
HETATM    5  C4  UNL     1      22.975   0.362  52.743  1.00  0.00     0.007 A 
HETATM    6  C5  UNL     1      24.058   0.582  51.870  1.00  0.00     0.041 A 
HETATM    7  C6  UNL     1      25.287   0.218  52.460  1.00  0.00     0.073 A 
HETATM    8 CL1  UNL     1      26.791   0.399  51.578  1.00  0.00    -0.081 Cl
HETATM    9  C7  UNL     1      21.802   0.829  51.999  1.00  0.00     0.006 C 
HETATM   10  C8  UNL     1      22.391   1.874  51.353  1.00  0.00     0.025 C 
HETATM   11  C9  UNL     1      21.841   2.833  50.399  1.00  0.00    -0.017 C 
HETATM   12  C10 UNL     1      20.774   2.751  49.577  1.00  0.00     0.057 C 
HETATM   13  C11 UNL     1      19.652   1.915  49.109  1.00  0.00     0.092 C 
HETATM   14  C12 UNL     1      19.143   0.903  50.022  1.00  0.00    -0.018 C 
HETATM   15  C13 UNL     1      19.296   0.181  51.152  1.00  0.00     0.029 C 
HETATM   16  C14 UNL     1      20.424   0.275  52.070  1.00  0.00     0.069 C 
HETATM   17  N1  UNL     1      19.903  -0.267  53.131  1.00  0.00    -0.241 NA
HETATM   18  C15 UNL     1      20.558  -0.423  54.409  1.00  0.00     0.234 C 
HETATM   19  N2  UNL     1      21.798  -0.375  54.822  1.00  0.00    -0.241 NA
HETATM   20  O1  UNL     1      20.807   4.011  48.937  1.00  0.00    -0.353 OA
HETATM   21  C16 UNL     1      22.140   4.485  48.897  1.00  0.00     0.190 C 
HETATM   22  C17 UNL     1      22.564   4.072  50.320  1.00  0.00     0.015 C 
HETATM   23  C18 UNL     1      21.934   5.173  51.186  1.00  0.00     0.043 C 
HETATM   24  C19 UNL     1      22.214   5.019  52.638  1.00  0.00     0.168 C 
HETATM   25  O2  UNL     1      23.464   4.498  52.833  1.00  0.00    -0.391 OA
HETATM   26  C20 UNL     1      24.293   4.908  51.792  1.00  0.00     0.168 C 
HETATM   27  C21 UNL     1      24.011   4.125  50.525  1.00  0.00     0.043 C 
ENDROOT
TORSDOF 0
ENDMDL
MODEL 5
REMARK VINA RESULT:      -7.8     10.754     13.583
REMARK  0 active torsions:
REMARK  status: ('A' for Active; 'I' for Inactive)
ROOT
HETATM    1  F1  UNL     1      35.109   2.901  46.007  1.00  0.00    -0.204 F 
HETATM    2  C1  UNL     1      34.657   4.185  45.895  1.00  0.00     0.140 A 
HETATM    3  C2  UNL     1      34.292   4.656  44.635  1.00  0.00     0.076 A 
HETATM    4  C3  UNL     1      33.826   5.944  44.461  1.00  0.00     0.072 A 
HETATM    5  C4  UNL     1      33.766   6.667  45.601  1.00  0.00     0.007 A 
HETATM    6  C5  UNL     1      34.098   6.332  46.929  1.00  0.00     0.041 A 
HETATM    7  C6  UNL     1      34.565   5.004  47.031  1.00  0.00     0.073 A 
HETATM    8 CL1  UNL     1      35.043   4.341  48.581  1.00  0.00    -0.081 Cl
HETATM    9  C7  UNL     1      33.264   8.041  45.684  1.00  0.00     0.006 C 
HETATM   10  C8  UNL     1      32.645   7.945  46.894  1.00  0.00     0.025 C 
HETATM   11  C9  UNL     1      31.911   8.942  47.667  1.00  0.00    -0.017 C 
HETATM   12  C10 UNL     1      31.964  10.290  47.651  1.00  0.00     0.057 C 
HETATM   13  C11 UNL     1      32.591  11.482  47.047  1.00  0.00     0.092 C 
HETATM   14  C12 UNL     1      33.120  11.352  45.698  1.00  0.00    -0.018 C 
HETATM   15  C13 UNL     1      33.483  10.558  44.669  1.00  0.00     0.029 C 
HETATM   16  C14 UNL     1      33.405   9.104  44.653  1.00  0.00     0.069 C 
HETATM   17  N1  UNL     1      33.454   8.884  43.373  1.00  0.00    -0.241 NA
HETATM   18  C15 UNL     1      33.378   7.591  42.733  1.00  0.00     0.234 C 
HETATM   19  N2  UNL     1      33.522   6.354  43.133  1.00  0.00    -0.241 NA
HETATM   20  O1  UNL     1      31.005  10.628  48.633  1.00  0.00    -0.353 OA
HETATM   21  C16 UNL     1      30.918   9.585  49.585  1.00  0.00     0.190 C 
HETATM   22  C17 UNL     1      30.977   8.392  48.610  1.00  0.00     0.015 C 
HETATM   23  C18 UNL     1      29.545   8.346  48.056  1.00  0.00     0.043 C 
HETATM   24  C19 UNL     1      29.321   7.244  47.083  1.00  0.00     0.168 C 
HETATM   25  O2  UNL     1      30.056   6.144  47.426  1.00  0.00    -0.391 OA
HETATM   26  C20 UNL     1      30.201   6.108  48.810  1.00  0.00     0.168 C 
HETATM   27  C21 UNL     1      31.231   7.117  49.280  1.00  0.00     0.043 C 
ENDROOT
TORSDOF 0
ENDMDL
MODEL 6
REMARK VINA RESULT:      -7.8      8.520     11.314
REMARK  0 active torsions:
REMARK  status: ('A' for Active; 'I' for Inactive)
ROOT
HETATM    1  F1  UNL     1      25.524   7.173  50.843  1.00  0.00    -0.204 F 
HETATM    2  C1  UNL     1      26.407   7.710  49.949  1.00  0.00     0.140 A 
HETATM    3  C2  UNL     1      26.720   9.064  50.053  1.00  0.00     0.076 A 
HETATM    4  C3  UNL     1      27.607   9.662  49.181  1.00  0.00     0.072 A 
HETATM    5  C4  UNL     1      28.117   8.822  48.253  1.00  0.00     0.007 A 
HETATM    6  C5  UNL     1      27.897   7.450  48.025  1.00  0.00     0.041 A 
HETATM    7  C6  UNL     1      26.981   6.907  48.953  1.00  0.00     0.073 A 
HETATM    8 CL1  UNL     1      26.539   5.213  48.884  1.00  0.00    -0.081 Cl
HETATM    9  C7  UNL     1      29.110   9.207  47.246  1.00  0.00     0.006 C 
HETATM   10  C8  UNL     1      29.829   8.050  47.237  1.00  0.00     0.025 C 
HETATM   11  C9  UNL     1      30.999   7.664  46.454  1.00  0.00    -0.017 C 
HETATM   12  C10 UNL     1      31.461   8.119  45.270  1.00  0.00     0.057 C 
HETATM   13  C11 UNL     1      31.248   9.061  44.154  1.00  0.00     0.092 C 
HETATM   14  C12 UNL     1      30.504  10.279  44.437  1.00  0.00    -0.018 C 
HETATM   15  C13 UNL     1      29.709  10.982  45.270  1.00  0.00     0.029 C 
HETATM   16  C14 UNL     1      29.224  10.524  46.566  1.00  0.00     0.069 C 
HETATM   17  N1  UNL     1      28.894  11.660  47.103  1.00  0.00    -0.241 NA
HETATM   18  C15 UNL     1      28.369  11.845  48.436  1.00  0.00     0.234 C 
HETATM   19  N2  UNL     1      27.830  11.059  49.333  1.00  0.00    -0.241 NA
HETATM   20  O1  UNL     1      32.618   7.327  45.090  1.00  0.00    -0.353 OA
HETATM   21  C16 UNL     1      32.452   6.089  45.755  1.00  0.00     0.190 C 
HETATM   22  C17 UNL     1      31.790   6.619  47.043  1.00  0.00     0.015 C 
HETATM   23  C18 UNL     1      32.989   7.167  47.831  1.00  0.00     0.043 C 
HETATM   24  C19 UNL     1      32.621   7.733  49.155  1.00  0.00     0.168 C 
HETATM   25  O2  UNL     1      31.586   7.029  49.706  1.00  0.00    -0.391 OA
HETATM   26  C20 UNL     1      31.659   5.705  49.280  1.00  0.00     0.168 C 
HETATM   27  C21 UNL     1      31.179   5.563  47.849  1.00  0.00     0.043 C 
ENDROOT
TORSDOF 0
ENDMDL
MODEL 7
REMARK VINA RESULT:      -7.7      3.830      6.252
REMARK  0 active torsions:
REMARK  status: ('A' for Active; 'I' for Inactive)
ROOT
HETATM    1  F1  UNL     1      18.527   4.989  47.986  1.00  0.00    -0.204 F 
HETATM    2  C1  UNL     1      19.861   5.162  48.224  1.00  0.00     0.140 A 
HETATM    3  C2  UNL     1      20.326   6.445  48.507  1.00  0.00     0.076 A 
HETATM    4  C3  UNL     1      21.663   6.681  48.759  1.00  0.00     0.072 A 
HETATM    5  C4  UNL     1      22.438   5.575  48.703  1.00  0.00     0.007 A 
HETATM    6  C5  UNL     1      22.115   4.231  48.429  1.00  0.00     0.041 A 
HETATM    7  C6  UNL     1      20.735   4.065  48.183  1.00  0.00     0.073 A 
HETATM    8 CL1  UNL     1      20.076   2.483  47.820  1.00  0.00    -0.081 Cl
HETATM    9  C7  UNL     1      23.877   5.558  48.975  1.00  0.00     0.006 C 
HETATM   10  C8  UNL     1      23.938   4.351  49.603  1.00  0.00     0.025 C 
HETATM   11  C9  UNL     1      25.075   3.629  50.166  1.00  0.00    -0.017 C 
HETATM   12  C10 UNL     1      26.394   3.706  49.896  1.00  0.00     0.057 C 
HETATM   13  C11 UNL     1      27.441   4.358  49.084  1.00  0.00     0.092 C 
HETATM   14  C12 UNL     1      27.165   5.695  48.582  1.00  0.00    -0.018 C 
HETATM   15  C13 UNL     1      26.277   6.685  48.352  1.00  0.00     0.029 C 
HETATM   16  C14 UNL     1      24.854   6.635  48.665  1.00  0.00     0.069 C 
HETATM   17  N1  UNL     1      24.571   7.904  48.651  1.00  0.00    -0.241 NA
HETATM   18  C15 UNL     1      23.280   8.485  48.934  1.00  0.00     0.234 C 
HETATM   19  N2  UNL     1      22.055   8.028  48.992  1.00  0.00    -0.241 NA
HETATM   20  O1  UNL     1      26.927   2.748  50.788  1.00  0.00    -0.353 OA
HETATM   21  C16 UNL     1      25.957   1.750  51.044  1.00  0.00     0.190 C 
HETATM   22  C17 UNL     1      24.727   2.670  51.178  1.00  0.00     0.015 C 
HETATM   23  C18 UNL     1      24.887   3.232  52.597  1.00  0.00     0.043 C 
HETATM   24  C19 UNL     1      23.792   4.156  52.996  1.00  0.00     0.168 C 
HETATM   25  O2  UNL     1      22.605   3.758  52.448  1.00  0.00    -0.391 OA
HETATM   26  C20 UNL     1      22.610   2.372  52.312  1.00  0.00     0.168 C 
HETATM   27  C21 UNL     1      23.459   1.941  51.133  1.00  0.00     0.043 C 
ENDROOT
TORSDOF 0
ENDMDL
MODEL 8
REMARK VINA RESULT:      -7.7      9.506     12.093
REMARK  0 active torsions:
REMARK  status: ('A' for Active; 'I' for Inactive)
ROOT
HETATM    1  F1  UNL     1      34.748   7.625  43.826  1.00  0.00    -0.204 F 
HETATM    2  C1  UNL     1      33.673   7.460  44.652  1.00  0.00     0.140 A 
HETATM    3  C2  UNL     1      33.850   6.759  45.844  1.00  0.00     0.076 A 
HETATM    4  C3  UNL     1      32.801   6.563  46.720  1.00  0.00     0.072 A 
HETATM    5  C4  UNL     1      31.632   7.104  46.310  1.00  0.00     0.007 A 
HETATM    6  C5  UNL     1      31.304   7.827  45.146  1.00  0.00     0.041 A 
HETATM    7  C6  UNL     1      32.423   7.989  44.300  1.00  0.00     0.073 A 
HETATM    8 CL1  UNL     1      32.278   8.858  42.785  1.00  0.00    -0.081 Cl
HETATM    9  C7  UNL     1      30.388   7.069  47.084  1.00  0.00     0.006 C 
HETATM   10  C8  UNL     1      29.924   8.307  46.753  1.00  0.00     0.025 C 
HETATM   11  C9  UNL     1      28.698   8.996  47.141  1.00  0.00    -0.017 C 
HETATM   12  C10 UNL     1      27.511   8.519  47.570  1.00  0.00     0.057 C 
HETATM   13  C11 UNL     1      26.723   7.314  47.896  1.00  0.00     0.092 C 
HETATM   14  C12 UNL     1      27.454   6.123  48.300  1.00  0.00    -0.018 C 
HETATM   15  C13 UNL     1      28.628   5.464  48.402  1.00  0.00     0.029 C 
HETATM   16  C14 UNL     1      29.924   5.973  47.975  1.00  0.00     0.069 C 
HETATM   17  N1  UNL     1      30.713   5.190  48.649  1.00  0.00    -0.241 NA
HETATM   18  C15 UNL     1      32.156   5.246  48.656  1.00  0.00     0.234 C 
HETATM   19  N2  UNL     1      33.062   5.796  47.889  1.00  0.00    -0.241 NA
HETATM   20  O1  UNL     1      26.776   9.710  47.768  1.00  0.00    -0.353 OA
HETATM   21  C16 UNL     1      27.259  10.713  46.894  1.00  0.00     0.190 C 
HETATM   22  C17 UNL     1      28.766  10.428  47.045  1.00  0.00     0.015 C 
HETATM   23  C18 UNL     1      29.096  11.090  48.390  1.00  0.00     0.043 C 
HETATM   24  C19 UNL     1      30.528  10.976  48.773  1.00  0.00     0.168 C 
HETATM   25  O2  UNL     1      31.326  11.032  47.665  1.00  0.00    -0.391 OA
HETATM   26  C20 UNL     1      30.711  11.828  46.702  1.00  0.00     0.168 C 
HETATM   27  C21 UNL     1      29.578  11.086  46.020  1.00  0.00     0.043 C 
ENDROOT
TORSDOF 0
ENDMDL
MODEL 9
REMARK VINA RESULT:      -7.6      4.188      6.619
REMARK  0 active torsions:
REMARK  status: ('A' for Active; 'I' for Inactive)
ROOT
HETATM    1  F1  UNL     1      19.282   7.475  46.750  1.00  0.00    -0.204 F 
HETATM    2  C1  UNL     1      20.500   7.094  47.239  1.00  0.00     0.140 A 
HETATM    3  C2  UNL     1      21.415   8.083  47.595  1.00  0.00     0.076 A 
HETATM    4  C3  UNL     1      22.660   7.758  48.096  1.00  0.00     0.072 A 
HETATM    5  C4  UNL     1      22.882   6.429  48.200  1.00  0.00     0.007 A 
HETATM    6  C5  UNL     1      22.065   5.326  47.882  1.00  0.00     0.041 A 
HETATM    7  C6  UNL     1      20.811   5.733  47.377  1.00  0.00     0.073 A 
HETATM    8 CL1  UNL     1      19.609   4.547  46.908  1.00  0.00    -0.081 Cl
HETATM    9  C7  UNL     1      24.106   5.835  48.744  1.00  0.00     0.006 C 
HETATM   10  C8  UNL     1      23.535   4.775  49.383  1.00  0.00     0.025 C 
HETATM   11  C9  UNL     1      24.138   3.698  50.160  1.00  0.00    -0.017 C 
HETATM   12  C10 UNL     1      25.388   3.189  50.148  1.00  0.00     0.057 C 
HETATM   13  C11 UNL     1      26.733   3.265  49.546  1.00  0.00     0.092 C 
HETATM   14  C12 UNL     1      27.148   4.543  48.989  1.00  0.00    -0.018 C 
HETATM   15  C13 UNL     1      26.823   5.789  48.583  1.00  0.00     0.029 C 
HETATM   16  C14 UNL     1      25.487   6.369  48.617  1.00  0.00     0.069 C 
HETATM   17  N1  UNL     1      25.783   7.633  48.538  1.00  0.00    -0.241 NA
HETATM   18  C15 UNL     1      24.838   8.725  48.562  1.00  0.00     0.234 C 
HETATM   19  N2  UNL     1      23.546   8.831  48.388  1.00  0.00    -0.241 NA
HETATM   20  O1  UNL     1      25.298   2.181  51.135  1.00  0.00    -0.353 OA
HETATM   21  C16 UNL     1      23.965   1.710  51.209  1.00  0.00     0.190 C 
HETATM   22  C17 UNL     1      23.246   3.069  51.095  1.00  0.00     0.015 C 
HETATM   23  C18 UNL     1      23.388   3.639  52.514  1.00  0.00     0.043 C 
HETATM   24  C19 UNL     1      22.746   4.969  52.686  1.00  0.00     0.168 C 
HETATM   25  O2  UNL     1      21.615   5.058  51.924  1.00  0.00    -0.391 OA
HETATM   26  C20 UNL     1      21.048   3.791  51.804  1.00  0.00     0.168 C 
HETATM   27  C21 UNL     1      21.816   2.938  50.815  1.00  0.00     0.043 C 
ENDROOT
TORSDOF 0
ENDMDL
