MODEL 1
REMARK VINA RESULT:      -8.2      0.000      0.000
REMARK  6 active torsions:
REMARK  status: ('A' for Active; 'I' for Inactive)
REMARK    1  A    between atoms: C3_3  and  S1_4 
REMARK    2  A    between atoms: S1_4  and  C4_5 
REMARK    3  A    between atoms: C7_8  and  O1_9 
REMARK    4  A    between atoms: C9_11  and  O2_12 
REMARK    5  A    between atoms: C16_21  and  C17_22 
REMARK    6  A    between atoms: C18_23  and  N3_24 
ROOT
HETATM    1  C1  UNL     1      23.426   3.352  52.575  1.00  0.00     0.047 C 
HETATM    2  C2  UNL     1      24.230   3.926  51.437  1.00  0.00    -0.030 C 
HETATM    3  C3  UNL     1      25.220   3.039  51.160  1.00  0.00     0.010 C 
HETATM    4  C10 UNL     1      26.419   2.965  50.283  1.00  0.00     0.019 C 
HETATM    5  C11 UNL     1      27.060   3.709  49.412  1.00  0.00     0.003 C 
HETATM    6  C12 UNL     1      27.162   4.985  48.686  1.00  0.00     0.020 C 
HETATM    7  C13 UNL     1      26.315   6.071  48.795  1.00  0.00     0.050 C 
HETATM    8  C14 UNL     1      26.513   7.267  48.028  1.00  0.00     0.097 C 
HETATM    9  N1  UNL     1      26.677   8.215  47.398  1.00  0.00    -0.192 NA
HETATM   10  C15 UNL     1      25.291   5.837  49.765  1.00  0.00     0.320 C 
HETATM   11  N2  UNL     1      23.963   5.726  49.748  1.00  0.00     0.100 NA
HETATM   12  C16 UNL     1      23.601   5.232  51.084  1.00  0.00     0.275 C 
HETATM   13  H14 UNL     1      23.568   5.061  49.048  1.00  0.00     0.317 HD
ENDROOT
BRANCH  12  14
HETATM   14  C17 UNL     1      22.104   4.919  50.990  1.00  0.00     0.029 C 
HETATM   15  C18 UNL     1      21.307   5.975  51.051  1.00  0.00     0.078 C 
BRANCH  15  16
HETATM   16  N3  UNL     1      21.899   7.261  51.193  1.00  0.00    -0.408 N 
HETATM   17  H18 UNL     1      21.441   8.209  51.180  1.00  0.00     0.155 HD
HETATM   18  H19 UNL     1      22.890   7.544  51.335  1.00  0.00     0.155 HD
ENDBRANCH  15  16
ENDBRANCH  12  14
BRANCH   3  19
HETATM   19  S1  UNL     1      24.975   1.698  52.307  1.00  0.00    -0.087 SA
BRANCH  19  20
HETATM   20  C4  UNL     1      26.464   0.941  52.842  1.00  0.00     0.038 A 
HETATM   21  C5  UNL     1      26.585  -0.381  52.400  1.00  0.00     0.024 A 
HETATM   22  C6  UNL     1      27.721  -1.123  52.745  1.00  0.00     0.038 A 
HETATM   23  C7  UNL     1      28.718  -0.562  53.515  1.00  0.00     0.068 A 
HETATM   24  C8  UNL     1      28.597   0.756  53.955  1.00  0.00     0.074 A 
HETATM   25  C9  UNL     1      27.479   1.489  53.616  1.00  0.00     0.085 A 
BRANCH  23  26
HETATM   26  O1  UNL     1      29.859  -1.261  53.880  1.00  0.00    -0.361 OA
HETATM   27  H6  UNL     1      30.648  -1.398  53.257  1.00  0.00     0.217 HD
ENDBRANCH  23  26
BRANCH  25  28
HETATM   28  O2  UNL     1      27.199   2.803  53.967  1.00  0.00    -0.359 OA
HETATM   29  H8  UNL     1      26.688   3.338  53.247  1.00  0.00     0.217 HD
ENDBRANCH  25  28
ENDBRANCH  19  20
ENDBRANCH   3  19
TORSDOF 6
ENDMDL
MODEL 2
REMARK VINA RESULT:      -8.2      3.667      5.907
REMARK  6 active torsions:
REMARK  status: ('A' for Active; 'I' for Inactive)
REMARK    1  A    between atoms: C3_3  and  S1_4 
REMARK    2  A    between atoms: S1_4  and  C4_5 
REMARK    3  A    between atoms: C7_8  and  O1_9 
REMARK    4  A    between atoms: C9_11  and  O2_12 
REMARK    5  A    between atoms: C16_21  and  C17_22 
REMARK    6  A    between atoms: C18_23  and  N3_24 
ROOT
HETATM    1  C1  UNL     1      24.003   2.830  51.635  1.00  0.00     0.047 C 
HETATM    2  C2  UNL     1      23.011   1.914  52.303  1.00  0.00    -0.030 C 
HETATM    3  C3  UNL     1      23.723   1.028  53.046  1.00  0.00     0.010 C 
HETATM    4  C10 UNL     1      23.460  -0.190  53.859  1.00  0.00     0.019 C 
HETATM    5  C11 UNL     1      22.450  -0.954  54.206  1.00  0.00     0.003 C 
HETATM    6  C12 UNL     1      21.009  -1.241  54.128  1.00  0.00     0.020 C 
HETATM    7  C13 UNL     1      20.059  -0.528  53.423  1.00  0.00     0.050 C 
HETATM    8  C14 UNL     1      18.674  -0.902  53.425  1.00  0.00     0.097 C 
HETATM    9  N1  UNL     1      17.566  -1.208  53.446  1.00  0.00    -0.192 NA
HETATM   10  C15 UNL     1      20.650   0.558  52.705  1.00  0.00     0.320 C 
HETATM   11  N2  UNL     1      20.567   1.888  52.740  1.00  0.00     0.100 NA
HETATM   12  C16 UNL     1      21.655   2.364  51.874  1.00  0.00     0.275 C 
HETATM   13  H14 UNL     1      20.692   2.329  53.676  1.00  0.00     0.317 HD
ENDROOT
BRANCH  12  14
HETATM   14  C17 UNL     1      21.677   3.883  52.078  1.00  0.00     0.029 C 
HETATM   15  C18 UNL     1      20.806   4.558  51.345  1.00  0.00     0.078 C 
BRANCH  15  16
HETATM   16  N3  UNL     1      19.957   3.831  50.463  1.00  0.00    -0.408 N 
HETATM   17  H18 UNL     1      19.140   4.173  49.894  1.00  0.00     0.155 HD
HETATM   18  H19 UNL     1      19.955   2.827  50.193  1.00  0.00     0.155 HD
ENDBRANCH  15  16
ENDBRANCH  12  14
BRANCH   3  19
HETATM   19  S1  UNL     1      25.428   1.483  52.802  1.00  0.00    -0.087 SA
BRANCH  19  20
HETATM   20  C4  UNL     1      26.555   0.158  53.029  1.00  0.00     0.038 A 
HETATM   21  C5  UNL     1      26.147  -1.012  52.378  1.00  0.00     0.024 A 
HETATM   22  C6  UNL     1      26.942  -2.162  52.465  1.00  0.00     0.038 A 
HETATM   23  C7  UNL     1      28.118  -2.149  53.184  1.00  0.00     0.068 A 
HETATM   24  C8  UNL     1      28.523  -0.983  53.832  1.00  0.00     0.074 A 
HETATM   25  C9  UNL     1      27.742   0.151  53.748  1.00  0.00     0.085 A 
BRANCH  23  26
HETATM   26  O1  UNL     1      28.934  -3.265  53.296  1.00  0.00    -0.361 OA
HETATM   27  H6  UNL     1      28.668  -4.182  52.954  1.00  0.00     0.217 HD
ENDBRANCH  23  26
BRANCH  25  28
HETATM   28  O2  UNL     1      27.994   1.388  54.328  1.00  0.00    -0.359 OA
HETATM   29  H8  UNL     1      27.586   2.189  53.820  1.00  0.00     0.217 HD
ENDBRANCH  25  28
ENDBRANCH  19  20
ENDBRANCH   3  19
TORSDOF 6
ENDMDL
MODEL 3
REMARK VINA RESULT:      -8.2      2.786      4.848
REMARK  6 active torsions:
REMARK  status: ('A' for Active; 'I' for Inactive)
REMARK    1  A    between atoms: C3_3  and  S1_4 
REMARK    2  A    between atoms: S1_4  and  C4_5 
REMARK    3  A    between atoms: C7_8  and  O1_9 
REMARK    4  A    between atoms: C9_11  and  O2_12 
REMARK    5  A    between atoms: C16_21  and  C17_22 
REMARK    6  A    between atoms: C18_23  and  N3_24 
ROOT
HETATM    1  C1  UNL     1      26.066   2.903  50.485  1.00  0.00     0.047 C 
HETATM    2  C2  UNL     1      24.746   2.369  50.978  1.00  0.00    -0.030 C 
HETATM    3  C3  UNL     1      24.995   1.688  52.126  1.00  0.00     0.010 C 
HETATM    4  C10 UNL     1      24.245   0.831  53.082  1.00  0.00     0.019 C 
HETATM    5  C11 UNL     1      23.038   0.341  53.241  1.00  0.00     0.003 C 
HETATM    6  C12 UNL     1      21.659   0.215  52.743  1.00  0.00     0.020 C 
HETATM    7  C13 UNL     1      21.140   0.774  51.591  1.00  0.00     0.050 C 
HETATM    8  C14 UNL     1      19.770   0.585  51.206  1.00  0.00     0.097 C 
HETATM    9  N1  UNL     1      18.668   0.434  50.917  1.00  0.00    -0.192 NA
HETATM   10  C15 UNL     1      22.139   1.498  50.868  1.00  0.00     0.320 C 
HETATM   11  N2  UNL     1      22.339   2.770  50.525  1.00  0.00     0.100 NA
HETATM   12  C16 UNL     1      23.711   2.816  50.002  1.00  0.00     0.275 C 
HETATM   13  H14 UNL     1      22.272   3.468  51.296  1.00  0.00     0.317 HD
ENDROOT
BRANCH  12  14
HETATM   14  C17 UNL     1      24.000   4.307  49.798  1.00  0.00     0.029 C 
HETATM   15  C18 UNL     1      23.450   4.841  48.718  1.00  0.00     0.078 C 
BRANCH  15  16
HETATM   16  N3  UNL     1      22.667   4.004  47.875  1.00  0.00    -0.408 N 
HETATM   17  H18 UNL     1      21.619   3.940  47.789  1.00  0.00     0.155 HD
HETATM   18  H19 UNL     1      22.947   3.288  47.174  1.00  0.00     0.155 HD
ENDBRANCH  15  16
ENDBRANCH  12  14
BRANCH   3  19
HETATM   19  S1  UNL     1      26.752   1.838  52.383  1.00  0.00    -0.087 SA
BRANCH  19  20
HETATM   20  C4  UNL     1      27.547   0.320  52.755  1.00  0.00     0.038 A 
HETATM   21  C5  UNL     1      26.776  -0.792  52.396  1.00  0.00     0.024 A 
HETATM   22  C6  UNL     1      27.274  -2.080  52.629  1.00  0.00     0.038 A 
HETATM   23  C7  UNL     1      28.512  -2.260  53.208  1.00  0.00     0.068 A 
HETATM   24  C8  UNL     1      29.279  -1.151  53.566  1.00  0.00     0.074 A 
HETATM   25  C9  UNL     1      28.791   0.119  53.336  1.00  0.00     0.085 A 
BRANCH  23  26
HETATM   26  O1  UNL     1      29.043  -3.517  53.457  1.00  0.00    -0.361 OA
HETATM   27  H6  UNL     1      29.243  -4.189  52.724  1.00  0.00     0.217 HD
ENDBRANCH  23  26
BRANCH  25  28
HETATM   28  O2  UNL     1      29.418   1.323  53.629  1.00  0.00    -0.359 OA
HETATM   29  H8  UNL     1      30.361   1.225  54.037  1.00  0.00     0.217 HD
ENDBRANCH  25  28
ENDBRANCH  19  20
ENDBRANCH   3  19
TORSDOF 6
ENDMDL
MODEL 4
REMARK VINA RESULT:      -8.1      4.253      6.440
REMARK  6 active torsions:
REMARK  status: ('A' for Active; 'I' for Inactive)
REMARK    1  A    between atoms: C3_3  and  S1_4 
REMARK    2  A    between atoms: S1_4  and  C4_5 
REMARK    3  A    between atoms: C7_8  and  O1_9 
REMARK    4  A    between atoms: C9_11  and  O2_12 
REMARK    5  A    between atoms: C16_21  and  C17_22 
REMARK    6  A    between atoms: C18_23  and  N3_24 
ROOT
HETATM    1  C1  UNL     1      25.697  -0.479  53.841  1.00  0.00     0.047 C 
HETATM    2  C2  UNL     1      25.708   0.663  52.859  1.00  0.00    -0.030 C 
HETATM    3  C3  UNL     1      24.426   0.855  52.456  1.00  0.00     0.010 C 
HETATM    4  C10 UNL     1      23.696   1.687  51.462  1.00  0.00     0.019 C 
HETATM    5  C11 UNL     1      23.953   2.579  50.533  1.00  0.00     0.003 C 
HETATM    6  C12 UNL     1      24.949   3.375  49.800  1.00  0.00     0.020 C 
HETATM    7  C13 UNL     1      26.319   3.358  49.979  1.00  0.00     0.050 C 
HETATM    8  C14 UNL     1      27.196   4.188  49.204  1.00  0.00     0.097 C 
HETATM    9  N1  UNL     1      27.885   4.867  48.582  1.00  0.00    -0.192 NA
HETATM   10  C15 UNL     1      26.701   2.410  50.979  1.00  0.00     0.320 C 
HETATM   11  N2  UNL     1      27.276   2.464  52.180  1.00  0.00     0.100 NA
HETATM   12  C16 UNL     1      27.125   1.114  52.740  1.00  0.00     0.275 C 
HETATM   13  H14 UNL     1      26.857   3.136  52.858  1.00  0.00     0.317 HD
ENDROOT
BRANCH  12  14
HETATM   14  C17 UNL     1      27.607   1.238  54.189  1.00  0.00     0.029 C 
HETATM   15  C18 UNL     1      28.903   1.036  54.367  1.00  0.00     0.078 C 
BRANCH  15  16
HETATM   16  N3  UNL     1      29.702   0.732  53.228  1.00  0.00    -0.408 N 
HETATM   17  H18 UNL     1      29.502   0.909  52.209  1.00  0.00     0.155 HD
HETATM   18  H19 UNL     1      30.635   0.281  53.152  1.00  0.00     0.155 HD
ENDBRANCH  15  16
ENDBRANCH  12  14
BRANCH   3  19
HETATM   19  S1  UNL     1      23.473  -0.360  53.345  1.00  0.00    -0.087 SA
BRANCH  19  20
HETATM   20  C4  UNL     1      21.756  -0.311  52.993  1.00  0.00     0.038 A 
HETATM   21  C5  UNL     1      21.483   0.181  51.712  1.00  0.00     0.024 A 
HETATM   22  C6  UNL     1      20.155   0.283  51.281  1.00  0.00     0.038 A 
HETATM   23  C7  UNL     1      19.118  -0.097  52.106  1.00  0.00     0.068 A 
HETATM   24  C8  UNL     1      19.391  -0.587  53.383  1.00  0.00     0.074 A 
HETATM   25  C9  UNL     1      20.698  -0.689  53.810  1.00  0.00     0.085 A 
BRANCH  23  26
HETATM   26  O1  UNL     1      17.788  -0.012  51.719  1.00  0.00    -0.361 OA
HETATM   27  H6  UNL     1      17.280  -0.789  51.311  1.00  0.00     0.217 HD
ENDBRANCH  23  26
BRANCH  25  28
HETATM   28  O2  UNL     1      21.145  -1.151  55.041  1.00  0.00    -0.359 OA
HETATM   29  H8  UNL     1      21.454  -2.137  55.040  1.00  0.00     0.217 HD
ENDBRANCH  25  28
ENDBRANCH  19  20
ENDBRANCH   3  19
TORSDOF 6
ENDMDL
MODEL 5
REMARK VINA RESULT:      -7.7      2.413      2.885
REMARK  6 active torsions:
REMARK  status: ('A' for Active; 'I' for Inactive)
REMARK    1  A    between atoms: C3_3  and  S1_4 
REMARK    2  A    between atoms: S1_4  and  C4_5 
REMARK    3  A    between atoms: C7_8  and  O1_9 
REMARK    4  A    between atoms: C9_11  and  O2_12 
REMARK    5  A    between atoms: C16_21  and  C17_22 
REMARK    6  A    between atoms: C18_23  and  N3_24 
ROOT
HETATM    1  C1  UNL     1      22.632   0.185  52.790  1.00  0.00     0.047 C 
HETATM    2  C2  UNL     1      23.212   1.182  51.820  1.00  0.00    -0.030 C 
HETATM    3  C3  UNL     1      24.563   1.119  51.944  1.00  0.00     0.010 C 
HETATM    4  C10 UNL     1      25.752   1.845  51.423  1.00  0.00     0.019 C 
HETATM    5  C11 UNL     1      26.030   2.862  50.640  1.00  0.00     0.003 C 
HETATM    6  C12 UNL     1      25.546   3.950  49.776  1.00  0.00     0.020 C 
HETATM    7  C13 UNL     1      24.229   4.264  49.498  1.00  0.00     0.050 C 
HETATM    8  C14 UNL     1      23.875   5.352  48.632  1.00  0.00     0.097 C 
HETATM    9  N1  UNL     1      23.608   6.220  47.927  1.00  0.00    -0.192 NA
HETATM   10  C15 UNL     1      23.329   3.402  50.200  1.00  0.00     0.320 C 
HETATM   11  N2  UNL     1      22.421   2.487  49.863  1.00  0.00     0.100 NA
HETATM   12  C16 UNL     1      22.060   1.821  51.122  1.00  0.00     0.275 C 
HETATM   13  H14 UNL     1      22.739   1.751  49.196  1.00  0.00     0.317 HD
ENDROOT
BRANCH  12  14
HETATM   14  C17 UNL     1      21.171   0.647  50.700  1.00  0.00     0.029 C 
HETATM   15  C18 UNL     1      19.883   0.931  50.589  1.00  0.00     0.078 C 
BRANCH  15  16
HETATM   16  N3  UNL     1      19.459   2.261  50.865  1.00  0.00    -0.408 N 
HETATM   17  H18 UNL     1      19.228   2.707  51.791  1.00  0.00     0.155 HD
HETATM   18  H19 UNL     1      19.286   3.067  50.231  1.00  0.00     0.155 HD
ENDBRANCH  15  16
ENDBRANCH  12  14
BRANCH   3  19
HETATM   19  S1  UNL     1      24.858  -0.127  53.183  1.00  0.00    -0.087 SA
BRANCH  19  20
HETATM   20  C4  UNL     1      26.557  -0.411  53.512  1.00  0.00     0.038 A 
HETATM   21  C5  UNL     1      27.071  -1.494  52.789  1.00  0.00     0.024 A 
HETATM   22  C6  UNL     1      28.417  -1.849  52.943  1.00  0.00     0.038 A 
HETATM   23  C7  UNL     1      29.235  -1.143  53.798  1.00  0.00     0.068 A 
HETATM   24  C8  UNL     1      28.722  -0.065  54.519  1.00  0.00     0.074 A 
HETATM   25  C9  UNL     1      27.397   0.288  54.368  1.00  0.00     0.085 A 
BRANCH  23  26
HETATM   26  O1  UNL     1      30.573  -1.462  53.981  1.00  0.00    -0.361 OA
HETATM   27  H6  UNL     1      31.177  -0.964  54.627  1.00  0.00     0.217 HD
ENDBRANCH  23  26
BRANCH  25  28
HETATM   28  O2  UNL     1      26.728   1.326  55.004  1.00  0.00    -0.359 OA
HETATM   29  H8  UNL     1      26.807   1.317  56.033  1.00  0.00     0.217 HD
ENDBRANCH  25  28
ENDBRANCH  19  20
ENDBRANCH   3  19
TORSDOF 6
ENDMDL
MODEL 6
REMARK VINA RESULT:      -7.7      4.196      7.094
REMARK  6 active torsions:
REMARK  status: ('A' for Active; 'I' for Inactive)
REMARK    1  A    between atoms: C3_3  and  S1_4 
REMARK    2  A    between atoms: S1_4  and  C4_5 
REMARK    3  A    between atoms: C7_8  and  O1_9 
REMARK    4  A    between atoms: C9_11  and  O2_12 
REMARK    5  A    between atoms: C16_21  and  C17_22 
REMARK    6  A    between atoms: C18_23  and  N3_24 
ROOT
HETATM    1  C1  UNL     1      21.559   2.195  52.358  1.00  0.00     0.047 C 
HETATM    2  C2  UNL     1      22.953   1.640  52.496  1.00  0.00    -0.030 C 
HETATM    3  C3  UNL     1      23.811   2.610  52.089  1.00  0.00     0.010 C 
HETATM    4  C10 UNL     1      25.271   2.758  51.846  1.00  0.00     0.019 C 
HETATM    5  C11 UNL     1      26.365   2.034  51.896  1.00  0.00     0.003 C 
HETATM    6  C12 UNL     1      26.997   0.733  52.167  1.00  0.00     0.020 C 
HETATM    7  C13 UNL     1      26.365  -0.429  52.564  1.00  0.00     0.050 C 
HETATM    8  C14 UNL     1      27.090  -1.644  52.804  1.00  0.00     0.097 C 
HETATM    9  N1  UNL     1      27.687  -2.606  53.004  1.00  0.00    -0.192 NA
HETATM   10  C15 UNL     1      24.949  -0.247  52.656  1.00  0.00     0.320 C 
HETATM   11  N2  UNL     1      24.041  -0.282  53.630  1.00  0.00     0.100 NA
HETATM   12  C16 UNL     1      22.812   0.254  53.029  1.00  0.00     0.275 C 
HETATM   13  H14 UNL     1      24.254   0.290  54.476  1.00  0.00     0.317 HD
ENDROOT
BRANCH  12  14
HETATM   14  C17 UNL     1      21.835   0.395  54.202  1.00  0.00     0.029 C 
HETATM   15  C18 UNL     1      21.310  -0.741  54.633  1.00  0.00     0.078 C 
BRANCH  15  16
HETATM   16  N3  UNL     1      21.691  -1.950  53.985  1.00  0.00    -0.408 N 
HETATM   17  H18 UNL     1      22.619  -2.448  53.998  1.00  0.00     0.155 HD
HETATM   18  H19 UNL     1      21.153  -2.593  53.370  1.00  0.00     0.155 HD
ENDBRANCH  15  16
ENDBRANCH  12  14
BRANCH   3  19
HETATM   19  S1  UNL     1      22.775   3.988  51.639  1.00  0.00    -0.087 SA
BRANCH  19  20
HETATM   20  C4  UNL     1      23.603   5.225  50.712  1.00  0.00     0.038 A 
HETATM   21  C5  UNL     1      23.559   4.984  49.334  1.00  0.00     0.024 A 
HETATM   22  C6  UNL     1      24.177   5.884  48.457  1.00  0.00     0.038 A 
HETATM   23  C7  UNL     1      24.826   7.000  48.939  1.00  0.00     0.068 A 
HETATM   24  C8  UNL     1      24.870   7.239  50.312  1.00  0.00     0.074 A 
HETATM   25  C9  UNL     1      24.261   6.355  51.179  1.00  0.00     0.085 A 
BRANCH  23  26
HETATM   26  O1  UNL     1      25.452   7.916  48.106  1.00  0.00    -0.361 OA
HETATM   27  H6  UNL     1      24.998   8.760  47.771  1.00  0.00     0.217 HD
ENDBRANCH  23  26
BRANCH  25  28
HETATM   28  O2  UNL     1      24.210   6.439  52.564  1.00  0.00    -0.359 OA
HETATM   29  H8  UNL     1      24.898   7.088  52.978  1.00  0.00     0.217 HD
ENDBRANCH  25  28
ENDBRANCH  19  20
ENDBRANCH   3  19
TORSDOF 6
ENDMDL
MODEL 7
REMARK VINA RESULT:      -7.4      1.673      3.911
REMARK  6 active torsions:
REMARK  status: ('A' for Active; 'I' for Inactive)
REMARK    1  A    between atoms: C3_3  and  S1_4 
REMARK    2  A    between atoms: S1_4  and  C4_5 
REMARK    3  A    between atoms: C7_8  and  O1_9 
REMARK    4  A    between atoms: C9_11  and  O2_12 
REMARK    5  A    between atoms: C16_21  and  C17_22 
REMARK    6  A    between atoms: C18_23  and  N3_24 
ROOT
HETATM    1  C1  UNL     1      26.893   3.940  49.311  1.00  0.00     0.047 C 
HETATM    2  C2  UNL     1      25.655   4.598  49.863  1.00  0.00    -0.030 C 
HETATM    3  C3  UNL     1      25.251   3.858  50.928  1.00  0.00     0.010 C 
HETATM    4  C10 UNL     1      24.100   3.819  51.869  1.00  0.00     0.019 C 
HETATM    5  C11 UNL     1      22.970   4.452  52.083  1.00  0.00     0.003 C 
HETATM    6  C12 UNL     1      22.033   5.516  51.688  1.00  0.00     0.020 C 
HETATM    7  C13 UNL     1      22.175   6.394  50.630  1.00  0.00     0.050 C 
HETATM    8  C14 UNL     1      21.192   7.400  50.343  1.00  0.00     0.097 C 
HETATM    9  N1  UNL     1      20.402   8.207  50.132  1.00  0.00    -0.192 NA
HETATM   10  C15 UNL     1      23.370   6.131  49.891  1.00  0.00     0.320 C 
HETATM   11  N2  UNL     1      24.503   6.785  49.638  1.00  0.00     0.100 NA
HETATM   12  C16 UNL     1      25.389   5.793  49.012  1.00  0.00     0.275 C 
HETATM   13  H14 UNL     1      25.001   7.175  50.466  1.00  0.00     0.317 HD
ENDROOT
BRANCH  12  14
HETATM   14  C17 UNL     1      26.746   6.495  48.908  1.00  0.00     0.029 C 
HETATM   15  C18 UNL     1      26.833   7.407  47.952  1.00  0.00     0.078 C 
BRANCH  15  16
HETATM   16  N3  UNL     1      25.690   7.642  47.136  1.00  0.00    -0.408 N 
HETATM   17  H18 UNL     1      25.436   7.215  46.208  1.00  0.00     0.155 HD
HETATM   18  H19 UNL     1      24.873   8.271  47.272  1.00  0.00     0.155 HD
ENDBRANCH  15  16
ENDBRANCH  12  14
BRANCH   3  19
HETATM   19  S1  UNL     1      26.442   2.539  51.055  1.00  0.00    -0.087 SA
BRANCH  19  20
HETATM   20  C4  UNL     1      26.213   1.509  52.456  1.00  0.00     0.038 A 
HETATM   21  C5  UNL     1      25.348   0.439  52.200  1.00  0.00     0.024 A 
HETATM   22  C6  UNL     1      25.062  -0.475  53.221  1.00  0.00     0.038 A 
HETATM   23  C7  UNL     1      25.624  -0.329  54.472  1.00  0.00     0.068 A 
HETATM   24  C8  UNL     1      26.486   0.737  54.726  1.00  0.00     0.074 A 
HETATM   25  C9  UNL     1      26.770   1.639  53.721  1.00  0.00     0.085 A 
BRANCH  23  26
HETATM   26  O1  UNL     1      25.368  -1.211  55.512  1.00  0.00    -0.361 OA
HETATM   27  H6  UNL     1      25.979  -1.988  55.742  1.00  0.00     0.217 HD
ENDBRANCH  23  26
BRANCH  25  28
HETATM   28  O2  UNL     1      27.599   2.750  53.801  1.00  0.00    -0.359 OA
HETATM   29  H8  UNL     1      28.607   2.536  53.738  1.00  0.00     0.217 HD
ENDBRANCH  25  28
ENDBRANCH  19  20
ENDBRANCH   3  19
TORSDOF 6
ENDMDL
MODEL 8
REMARK VINA RESULT:      -7.3      4.208      6.675
REMARK  6 active torsions:
REMARK  status: ('A' for Active; 'I' for Inactive)
REMARK    1  A    between atoms: C3_3  and  S1_4 
REMARK    2  A    between atoms: S1_4  and  C4_5 
REMARK    3  A    between atoms: C7_8  and  O1_9 
REMARK    4  A    between atoms: C9_11  and  O2_12 
REMARK    5  A    between atoms: C16_21  and  C17_22 
REMARK    6  A    between atoms: C18_23  and  N3_24 
ROOT
HETATM    1  C1  UNL     1      24.087   0.268  53.093  1.00  0.00     0.047 C 
HETATM    2  C2  UNL     1      24.527   1.380  52.176  1.00  0.00    -0.030 C 
HETATM    3  C3  UNL     1      23.410   1.873  51.582  1.00  0.00     0.010 C 
HETATM    4  C10 UNL     1      23.070   2.859  50.522  1.00  0.00     0.019 C 
HETATM    5  C11 UNL     1      23.679   3.669  49.687  1.00  0.00     0.003 C 
HETATM    6  C12 UNL     1      24.941   4.210  49.158  1.00  0.00     0.020 C 
HETATM    7  C13 UNL     1      26.219   3.867  49.554  1.00  0.00     0.050 C 
HETATM    8  C14 UNL     1      27.382   4.469  48.966  1.00  0.00     0.097 C 
HETATM    9  N1  UNL     1      28.304   4.968  48.494  1.00  0.00    -0.192 NA
HETATM   10  C15 UNL     1      26.199   2.851  50.559  1.00  0.00     0.320 C 
HETATM   11  N2  UNL     1      26.562   2.761  51.838  1.00  0.00     0.100 NA
HETATM   12  C16 UNL     1      26.010   1.482  52.306  1.00  0.00     0.275 C 
HETATM   13  H14 UNL     1      26.205   3.509  52.469  1.00  0.00     0.317 HD
ENDROOT
BRANCH  12  14
HETATM   14  C17 UNL     1      26.260   1.481  53.818  1.00  0.00     0.029 C 
HETATM   15  C18 UNL     1      27.421   0.967  54.192  1.00  0.00     0.078 C 
BRANCH  15  16
HETATM   16  N3  UNL     1      28.300   0.478  53.185  1.00  0.00    -0.408 N 
HETATM   17  H18 UNL     1      29.279   0.104  53.282  1.00  0.00     0.155 HD
HETATM   18  H19 UNL     1      28.175   0.386  52.157  1.00  0.00     0.155 HD
ENDBRANCH  15  16
ENDBRANCH  12  14
BRANCH   3  19
HETATM   19  S1  UNL     1      22.066   0.914  52.252  1.00  0.00    -0.087 SA
BRANCH  19  20
HETATM   20  C4  UNL     1      20.487   1.400  51.667  1.00  0.00     0.038 A 
HETATM   21  C5  UNL     1      19.959   0.502  50.733  1.00  0.00     0.024 A 
HETATM   22  C6  UNL     1      18.701   0.751  50.170  1.00  0.00     0.038 A 
HETATM   23  C7  UNL     1      17.982   1.872  50.529  1.00  0.00     0.068 A 
HETATM   24  C8  UNL     1      18.509   2.767  51.460  1.00  0.00     0.074 A 
HETATM   25  C9  UNL     1      19.747   2.523  52.016  1.00  0.00     0.085 A 
BRANCH  23  26
HETATM   26  O1  UNL     1      16.733   2.157  49.996  1.00  0.00    -0.361 OA
HETATM   27  H6  UNL     1      15.894   2.232  50.561  1.00  0.00     0.217 HD
ENDBRANCH  23  26
BRANCH  25  28
HETATM   28  O2  UNL     1      20.416   3.304  52.950  1.00  0.00    -0.359 OA
HETATM   29  H8  UNL     1      21.104   3.958  52.544  1.00  0.00     0.217 HD
ENDBRANCH  25  28
ENDBRANCH  19  20
ENDBRANCH   3  19
TORSDOF 6
ENDMDL
MODEL 9
REMARK VINA RESULT:      -7.2      5.507      7.848
REMARK  6 active torsions:
REMARK  status: ('A' for Active; 'I' for Inactive)
REMARK    1  A    between atoms: C3_3  and  S1_4 
REMARK    2  A    between atoms: S1_4  and  C4_5 
REMARK    3  A    between atoms: C7_8  and  O1_9 
REMARK    4  A    between atoms: C9_11  and  O2_12 
REMARK    5  A    between atoms: C16_21  and  C17_22 
REMARK    6  A    between atoms: C18_23  and  N3_24 
ROOT
HETATM    1  C1  UNL     1      22.341  -0.928  53.152  1.00  0.00     0.047 C 
HETATM    2  C2  UNL     1      22.482   0.540  52.842  1.00  0.00    -0.030 C 
HETATM    3  C3  UNL     1      21.252   1.098  52.980  1.00  0.00     0.010 C 
HETATM    4  C10 UNL     1      20.608   2.417  52.744  1.00  0.00     0.019 C 
HETATM    5  C11 UNL     1      20.922   3.609  52.290  1.00  0.00     0.003 C 
HETATM    6  C12 UNL     1      21.942   4.511  51.733  1.00  0.00     0.020 C 
HETATM    7  C13 UNL     1      23.261   4.202  51.460  1.00  0.00     0.050 C 
HETATM    8  C14 UNL     1      24.170   5.171  50.918  1.00  0.00     0.097 C 
HETATM    9  N1  UNL     1      24.890   5.961  50.495  1.00  0.00    -0.192 NA
HETATM   10  C15 UNL     1      23.547   2.832  51.753  1.00  0.00     0.320 C 
HETATM   11  N2  UNL     1      24.331   2.180  52.610  1.00  0.00     0.100 NA
HETATM   12  C16 UNL     1      23.919   0.773  52.515  1.00  0.00     0.275 C 
HETATM   13  H14 UNL     1      24.254   2.465  53.610  1.00  0.00     0.317 HD
ENDROOT
BRANCH  12  14
HETATM   14  C17 UNL     1      24.683   0.067  53.640  1.00  0.00     0.029 C 
HETATM   15  C18 UNL     1      25.920  -0.294  53.336  1.00  0.00     0.078 C 
BRANCH  15  16
HETATM   16  N3  UNL     1      26.408  -0.001  52.031  1.00  0.00    -0.408 N 
HETATM   17  H18 UNL     1      26.537   0.934  51.564  1.00  0.00     0.155 HD
HETATM   18  H19 UNL     1      26.735  -0.627  51.269  1.00  0.00     0.155 HD
ENDBRANCH  15  16
ENDBRANCH  12  14
BRANCH   3  19
HETATM   19  S1  UNL     1      20.186  -0.245  53.465  1.00  0.00    -0.087 SA
BRANCH  19  20
HETATM   20  C4  UNL     1      18.734  -0.385  52.490  1.00  0.00     0.038 A 
HETATM   21  C5  UNL     1      18.903   0.125  51.198  1.00  0.00     0.024 A 
HETATM   22  C6  UNL     1      17.832   0.087  50.296  1.00  0.00     0.038 A 
HETATM   23  C7  UNL     1      16.618  -0.448  50.671  1.00  0.00     0.068 A 
HETATM   24  C8  UNL     1      16.451  -0.957  51.959  1.00  0.00     0.074 A 
HETATM   25  C9  UNL     1      17.505  -0.921  52.849  1.00  0.00     0.085 A 
BRANCH  23  26
HETATM   26  O1  UNL     1      15.532  -0.506  49.810  1.00  0.00    -0.361 OA
HETATM   27  H6  UNL     1      15.534  -0.085  48.887  1.00  0.00     0.217 HD
ENDBRANCH  23  26
BRANCH  25  28
HETATM   28  O2  UNL     1      17.511  -1.379  54.160  1.00  0.00    -0.359 OA
HETATM   29  H8  UNL     1      18.162  -2.161  54.336  1.00  0.00     0.217 HD
ENDBRANCH  25  28
ENDBRANCH  19  20
ENDBRANCH   3  19
TORSDOF 6
ENDMDL
