MODEL 1
REMARK VINA RESULT:      -7.0      0.000      0.000
REMARK  6 active torsions:
REMARK  status: ('A' for Active; 'I' for Inactive)
REMARK    1  A    between atoms: C4_5  and  N1_6 
REMARK    2  A    between atoms: N1_6  and  C5_7 
REMARK    3  A    between atoms: C6_8  and  C7_9 
REMARK    4  A    between atoms: C7_9  and  C8_10 
REMARK    5  A    between atoms: C8_10  and  C9_11 
REMARK    6  A    between atoms: C9_11  and  N2_12 
ROOT
HETATM    1  O1  UNL     1      27.184  -2.554  52.920  1.00  0.00    -0.275 OA
HETATM    2  C1  UNL     1      27.350  -1.280  52.820  1.00  0.00     0.224 C 
HETATM    3  C2  UNL     1      26.204  -0.513  52.268  1.00  0.00     0.066 C 
HETATM    4  C3  UNL     1      25.771   0.731  52.029  1.00  0.00     0.004 C 
HETATM    5  C4  UNL     1      26.344   2.072  52.259  1.00  0.00     0.112 C 
HETATM    6  C12 UNL     1      27.606   2.176  52.989  1.00  0.00     0.044 C 
HETATM    7  C13 UNL     1      28.740   1.704  53.546  1.00  0.00    -0.018 C 
HETATM    8  C14 UNL     1      29.723   0.699  53.934  1.00  0.00     0.008 C 
HETATM    9  C15 UNL     1      29.797  -0.641  53.809  1.00  0.00     0.065 C 
HETATM   10  N4  UNL     1      28.533  -0.559  53.206  1.00  0.00    -0.236 NA
HETATM   11  H20 UNL     1      28.783  -1.512  53.542  1.00  0.00     0.136 HD
ENDROOT
BRANCH   5  12
HETATM   12  N1  UNL     1      25.389   2.918  53.002  1.00  0.00    -0.391 N 
HETATM   13  H4  UNL     1      25.696   3.170  53.990  1.00  0.00     0.159 HD
BRANCH  12  14
HETATM   14  C5  UNL     1      24.139   3.583  52.960  1.00  0.00     0.079 C 
HETATM   15  C6  UNL     1      23.007   3.280  52.379  1.00  0.00    -0.010 C 
BRANCH  15  16
HETATM   16  C7  UNL     1      22.305   2.294  51.538  1.00  0.00     0.030 C 
BRANCH  16  17
HETATM   17  C8  UNL     1      21.484   1.328  52.386  1.00  0.00     0.025 C 
BRANCH  17  18
HETATM   18  C9  UNL     1      21.877  -0.102  52.206  1.00  0.00     0.145 C 
BRANCH  18  19
HETATM   19  N2  UNL     1      22.179  -0.697  53.516  1.00  0.00    -0.301 N 
HETATM   20  C10 UNL     1      21.300  -1.449  54.424  1.00  0.00     0.193 A 
HETATM   21  C11 UNL     1      22.589  -1.455  55.187  1.00  0.00     0.132 A 
HETATM   22  N3  UNL     1      23.312  -0.789  54.351  1.00  0.00    -0.192 NA
ENDBRANCH  18  19
ENDBRANCH  17  18
ENDBRANCH  16  17
ENDBRANCH  15  16
ENDBRANCH  12  14
ENDBRANCH   5  12
TORSDOF 6
ENDMDL
MODEL 2
REMARK VINA RESULT:      -6.9      4.092      6.410
REMARK  6 active torsions:
REMARK  status: ('A' for Active; 'I' for Inactive)
REMARK    1  A    between atoms: C4_5  and  N1_6 
REMARK    2  A    between atoms: N1_6  and  C5_7 
REMARK    3  A    between atoms: C6_8  and  C7_9 
REMARK    4  A    between atoms: C7_9  and  C8_10 
REMARK    5  A    between atoms: C8_10  and  C9_11 
REMARK    6  A    between atoms: C9_11  and  N2_12 
ROOT
HETATM    1  O1  UNL     1      29.192   5.028  48.189  1.00  0.00    -0.275 OA
HETATM    2  C1  UNL     1      28.050   5.390  48.663  1.00  0.00     0.224 C 
HETATM    3  C2  UNL     1      27.109   4.295  49.012  1.00  0.00     0.066 C 
HETATM    4  C3  UNL     1      25.921   4.050  49.579  1.00  0.00     0.004 C 
HETATM    5  C4  UNL     1      24.891   4.907  50.200  1.00  0.00     0.112 C 
HETATM    6  C12 UNL     1      25.179   6.331  50.371  1.00  0.00     0.044 C 
HETATM    7  C13 UNL     1      25.869   7.472  50.173  1.00  0.00    -0.018 C 
HETATM    8  C14 UNL     1      26.929   8.320  49.639  1.00  0.00     0.008 C 
HETATM    9  C15 UNL     1      28.011   8.098  48.866  1.00  0.00     0.065 C 
HETATM   10  N4  UNL     1      27.631   6.748  48.887  1.00  0.00    -0.236 NA
HETATM   11  H20 UNL     1      28.620   6.907  48.603  1.00  0.00     0.136 HD
ENDROOT
BRANCH   5  12
HETATM   12  N1  UNL     1      24.554   4.410  51.548  1.00  0.00    -0.391 N 
HETATM   13  H4  UNL     1      24.689   5.120  52.329  1.00  0.00     0.159 HD
BRANCH  12  14
HETATM   14  C5  UNL     1      24.097   3.302  52.304  1.00  0.00     0.079 C 
HETATM   15  C6  UNL     1      24.702   2.517  53.157  1.00  0.00    -0.010 C 
BRANCH  15  16
HETATM   16  C7  UNL     1      25.977   2.221  53.833  1.00  0.00     0.030 C 
BRANCH  16  17
HETATM   17  C8  UNL     1      26.132   0.728  54.094  1.00  0.00     0.025 C 
BRANCH  17  18
HETATM   18  C9  UNL     1      26.722  -0.020  52.943  1.00  0.00     0.145 C 
BRANCH  18  19
HETATM   19  N2  UNL     1      28.087  -0.446  53.283  1.00  0.00    -0.301 N 
HETATM   20  C10 UNL     1      29.256   0.370  53.647  1.00  0.00     0.193 A 
HETATM   21  C11 UNL     1      29.825  -1.013  53.720  1.00  0.00     0.132 A 
HETATM   22  N3  UNL     1      28.768  -1.676  53.395  1.00  0.00    -0.192 NA
ENDBRANCH  18  19
ENDBRANCH  17  18
ENDBRANCH  16  17
ENDBRANCH  15  16
ENDBRANCH  12  14
ENDBRANCH   5  12
TORSDOF 6
ENDMDL
MODEL 3
REMARK VINA RESULT:      -6.6      2.591      4.914
REMARK  6 active torsions:
REMARK  status: ('A' for Active; 'I' for Inactive)
REMARK    1  A    between atoms: C4_5  and  N1_6 
REMARK    2  A    between atoms: N1_6  and  C5_7 
REMARK    3  A    between atoms: C6_8  and  C7_9 
REMARK    4  A    between atoms: C7_9  and  C8_10 
REMARK    5  A    between atoms: C8_10  and  C9_11 
REMARK    6  A    between atoms: C9_11  and  N2_12 
ROOT
HETATM    1  O1  UNL     1      29.417   2.371  54.572  1.00  0.00    -0.275 OA
HETATM    2  C1  UNL     1      28.475   1.579  54.189  1.00  0.00     0.224 C 
HETATM    3  C2  UNL     1      27.128   2.187  54.041  1.00  0.00     0.066 C 
HETATM    4  C3  UNL     1      25.882   1.929  53.627  1.00  0.00     0.004 C 
HETATM    5  C4  UNL     1      25.227   0.741  53.043  1.00  0.00     0.112 C 
HETATM    6  C12 UNL     1      26.052  -0.421  52.716  1.00  0.00     0.044 C 
HETATM    7  C13 UNL     1      27.172  -1.171  52.736  1.00  0.00    -0.018 C 
HETATM    8  C14 UNL     1      28.548  -1.512  53.078  1.00  0.00     0.008 C 
HETATM    9  C15 UNL     1      29.534  -0.883  53.749  1.00  0.00     0.065 C 
HETATM   10  N4  UNL     1      28.630   0.180  53.890  1.00  0.00    -0.236 NA
HETATM   11  H20 UNL     1      29.624   0.443  54.053  1.00  0.00     0.136 HD
ENDROOT
BRANCH   5  12
HETATM   12  N1  UNL     1      24.537   1.100  51.788  1.00  0.00    -0.391 N 
HETATM   13  H4  UNL     1      25.143   1.034  50.915  1.00  0.00     0.159 HD
BRANCH  12  14
HETATM   14  C5  UNL     1      23.321   1.534  51.206  1.00  0.00     0.079 C 
HETATM   15  C6  UNL     1      22.710   2.690  51.220  1.00  0.00    -0.010 C 
BRANCH  15  16
HETATM   16  C7  UNL     1      22.762   4.080  51.707  1.00  0.00     0.030 C 
BRANCH  16  17
HETATM   17  C8  UNL     1      24.112   4.721  51.407  1.00  0.00     0.025 C 
BRANCH  17  18
HETATM   18  C9  UNL     1      24.247   5.192  49.995  1.00  0.00     0.145 C 
BRANCH  18  19
HETATM   19  N2  UNL     1      25.603   4.903  49.509  1.00  0.00    -0.301 N 
HETATM   20  C10 UNL     1      26.406   3.680  49.656  1.00  0.00     0.193 A 
HETATM   21  C11 UNL     1      27.337   4.553  48.872  1.00  0.00     0.132 A 
HETATM   22  N3  UNL     1      26.587   5.598  48.775  1.00  0.00    -0.192 NA
ENDBRANCH  18  19
ENDBRANCH  17  18
ENDBRANCH  16  17
ENDBRANCH  15  16
ENDBRANCH  12  14
ENDBRANCH   5  12
TORSDOF 6
ENDMDL
MODEL 4
REMARK VINA RESULT:      -6.5      2.303      6.402
REMARK  6 active torsions:
REMARK  status: ('A' for Active; 'I' for Inactive)
REMARK    1  A    between atoms: C4_5  and  N1_6 
REMARK    2  A    between atoms: N1_6  and  C5_7 
REMARK    3  A    between atoms: C6_8  and  C7_9 
REMARK    4  A    between atoms: C7_9  and  C8_10 
REMARK    5  A    between atoms: C8_10  and  C9_11 
REMARK    6  A    between atoms: C9_11  and  N2_12 
ROOT
HETATM    1  O1  UNL     1      21.462  -2.082  54.958  1.00  0.00    -0.275 OA
HETATM    2  C1  UNL     1      21.236  -1.063  54.201  1.00  0.00     0.224 C 
HETATM    3  C2  UNL     1      22.389  -0.158  53.962  1.00  0.00     0.066 C 
HETATM    4  C3  UNL     1      22.774   0.913  53.258  1.00  0.00     0.004 C 
HETATM    5  C4  UNL     1      22.106   1.774  52.262  1.00  0.00     0.112 C 
HETATM    6  C12 UNL     1      20.768   1.401  51.803  1.00  0.00     0.044 C 
HETATM    7  C13 UNL     1      19.610   0.711  51.840  1.00  0.00    -0.018 C 
HETATM    8  C14 UNL     1      18.649  -0.266  52.340  1.00  0.00     0.008 C 
HETATM    9  C15 UNL     1      18.665  -1.176  53.334  1.00  0.00     0.065 C 
HETATM   10  N4  UNL     1      19.980  -0.750  53.575  1.00  0.00    -0.236 NA
HETATM   11  H20 UNL     1      19.749  -1.675  53.993  1.00  0.00     0.136 HD
ENDROOT
BRANCH   5  12
HETATM   12  N1  UNL     1      22.926   1.877  51.039  1.00  0.00    -0.391 N 
HETATM   13  H4  UNL     1      23.021   0.970  50.491  1.00  0.00     0.159 HD
BRANCH  12  14
HETATM   14  C5  UNL     1      23.707   2.735  50.225  1.00  0.00     0.079 C 
HETATM   15  C6  UNL     1      24.990   2.986  50.199  1.00  0.00    -0.010 C 
BRANCH  15  16
HETATM   16  C7  UNL     1      26.294   2.680  50.812  1.00  0.00     0.030 C 
BRANCH  16  17
HETATM   17  C8  UNL     1      26.124   1.990  52.161  1.00  0.00     0.025 C 
BRANCH  17  18
HETATM   18  C9  UNL     1      26.608   0.577  52.171  1.00  0.00     0.145 C 
BRANCH  18  19
HETATM   19  N2  UNL     1      27.482   0.366  53.335  1.00  0.00    -0.301 N 
HETATM   20  C10 UNL     1      28.897   0.722  53.515  1.00  0.00     0.193 A 
HETATM   21  C11 UNL     1      28.580   0.092  54.836  1.00  0.00     0.132 A 
HETATM   22  N3  UNL     1      27.341  -0.197  54.621  1.00  0.00    -0.192 NA
ENDBRANCH  18  19
ENDBRANCH  17  18
ENDBRANCH  16  17
ENDBRANCH  15  16
ENDBRANCH  12  14
ENDBRANCH   5  12
TORSDOF 6
ENDMDL
MODEL 5
REMARK VINA RESULT:      -6.5      1.947      2.623
REMARK  6 active torsions:
REMARK  status: ('A' for Active; 'I' for Inactive)
REMARK    1  A    between atoms: C4_5  and  N1_6 
REMARK    2  A    between atoms: N1_6  and  C5_7 
REMARK    3  A    between atoms: C6_8  and  C7_9 
REMARK    4  A    between atoms: C7_9  and  C8_10 
REMARK    5  A    between atoms: C8_10  and  C9_11 
REMARK    6  A    between atoms: C9_11  and  N2_12 
ROOT
HETATM    1  O1  UNL     1      29.424   2.031  54.877  1.00  0.00    -0.275 OA
HETATM    2  C1  UNL     1      28.521   1.238  54.412  1.00  0.00     0.224 C 
HETATM    3  C2  UNL     1      27.152   1.803  54.294  1.00  0.00     0.066 C 
HETATM    4  C3  UNL     1      25.923   1.533  53.837  1.00  0.00     0.004 C 
HETATM    5  C4  UNL     1      25.325   0.375  53.142  1.00  0.00     0.112 C 
HETATM    6  C12 UNL     1      26.201  -0.720  52.731  1.00  0.00     0.044 C 
HETATM    7  C13 UNL     1      27.351  -1.424  52.705  1.00  0.00    -0.018 C 
HETATM    8  C14 UNL     1      28.736  -1.739  53.040  1.00  0.00     0.008 C 
HETATM    9  C15 UNL     1      29.686  -1.132  53.779  1.00  0.00     0.065 C 
HETATM   10  N4  UNL     1      28.737  -0.121  53.996  1.00  0.00    -0.236 NA
HETATM   11  H20 UNL     1      29.717   0.165  54.197  1.00  0.00     0.136 HD
ENDROOT
BRANCH   5  12
HETATM   12  N1  UNL     1      24.638   0.814  51.912  1.00  0.00    -0.391 N 
HETATM   13  H4  UNL     1      24.868   0.237  51.047  1.00  0.00     0.159 HD
BRANCH  12  14
HETATM   14  C5  UNL     1      23.740   1.752  51.346  1.00  0.00     0.079 C 
HETATM   15  C6  UNL     1      22.548   1.616  50.825  1.00  0.00    -0.010 C 
BRANCH  15  16
HETATM   16  C7  UNL     1      21.476   0.662  50.492  1.00  0.00     0.030 C 
BRANCH  16  17
HETATM   17  C8  UNL     1      20.219   0.934  51.311  1.00  0.00     0.025 C 
BRANCH  17  18
HETATM   18  C9  UNL     1      20.502   1.290  52.735  1.00  0.00     0.145 C 
BRANCH  18  19
HETATM   19  N2  UNL     1      20.787   0.067  53.499  1.00  0.00    -0.301 N 
HETATM   20  C10 UNL     1      21.951  -0.260  54.336  1.00  0.00     0.193 A 
HETATM   21  C11 UNL     1      21.128  -1.503  54.474  1.00  0.00     0.132 A 
HETATM   22  N3  UNL     1      20.133  -1.162  53.728  1.00  0.00    -0.192 NA
ENDBRANCH  18  19
ENDBRANCH  17  18
ENDBRANCH  16  17
ENDBRANCH  15  16
ENDBRANCH  12  14
ENDBRANCH   5  12
TORSDOF 6
ENDMDL
MODEL 6
REMARK VINA RESULT:      -6.4      2.835      5.741
REMARK  6 active torsions:
REMARK  status: ('A' for Active; 'I' for Inactive)
REMARK    1  A    between atoms: C4_5  and  N1_6 
REMARK    2  A    between atoms: N1_6  and  C5_7 
REMARK    3  A    between atoms: C6_8  and  C7_9 
REMARK    4  A    between atoms: C7_9  and  C8_10 
REMARK    5  A    between atoms: C8_10  and  C9_11 
REMARK    6  A    between atoms: C9_11  and  N2_12 
ROOT
HETATM    1  O1  UNL     1      18.522  -0.249  52.546  1.00  0.00    -0.275 OA
HETATM    2  C1  UNL     1      19.787  -0.060  52.389  1.00  0.00     0.224 C 
HETATM    3  C2  UNL     1      20.191   0.679  51.166  1.00  0.00     0.066 C 
HETATM    4  C3  UNL     1      21.249   1.218  50.548  1.00  0.00     0.004 C 
HETATM    5  C4  UNL     1      22.683   1.325  50.886  1.00  0.00     0.112 C 
HETATM    6  C12 UNL     1      23.127   0.861  52.199  1.00  0.00     0.044 C 
HETATM    7  C13 UNL     1      22.998   0.220  53.378  1.00  0.00    -0.018 C 
HETATM    8  C14 UNL     1      22.329  -0.567  54.408  1.00  0.00     0.008 C 
HETATM    9  C15 UNL     1      21.092  -1.089  54.537  1.00  0.00     0.065 C 
HETATM   10  N4  UNL     1      20.815  -0.493  53.298  1.00  0.00    -0.236 NA
HETATM   11  H20 UNL     1      19.968  -0.754  53.844  1.00  0.00     0.136 HD
ENDROOT
BRANCH   5  12
HETATM   12  N1  UNL     1      23.130   2.728  50.792  1.00  0.00    -0.391 N 
HETATM   13  H4  UNL     1      22.760   3.363  51.563  1.00  0.00     0.159 HD
BRANCH  12  14
HETATM   14  C5  UNL     1      23.895   3.664  50.053  1.00  0.00     0.079 C 
HETATM   15  C6  UNL     1      25.172   3.729  49.782  1.00  0.00    -0.010 C 
BRANCH  15  16
HETATM   16  C7  UNL     1      26.482   3.079  49.966  1.00  0.00     0.030 C 
BRANCH  16  17
HETATM   17  C8  UNL     1      26.676   2.623  51.408  1.00  0.00     0.025 C 
BRANCH  17  18
HETATM   18  C9  UNL     1      26.553   1.144  51.585  1.00  0.00     0.145 C 
BRANCH  18  19
HETATM   19  N2  UNL     1      26.572   0.819  53.019  1.00  0.00    -0.301 N 
HETATM   20  C10 UNL     1      26.731  -0.487  53.677  1.00  0.00     0.193 A 
HETATM   21  C11 UNL     1      26.600   0.425  54.857  1.00  0.00     0.132 A 
HETATM   22  N3  UNL     1      26.465   1.542  54.225  1.00  0.00    -0.192 NA
ENDBRANCH  18  19
ENDBRANCH  17  18
ENDBRANCH  16  17
ENDBRANCH  15  16
ENDBRANCH  12  14
ENDBRANCH   5  12
TORSDOF 6
ENDMDL
MODEL 7
REMARK VINA RESULT:      -6.4      5.043      6.980
REMARK  6 active torsions:
REMARK  status: ('A' for Active; 'I' for Inactive)
REMARK    1  A    between atoms: C4_5  and  N1_6 
REMARK    2  A    between atoms: N1_6  and  C5_7 
REMARK    3  A    between atoms: C6_8  and  C7_9 
REMARK    4  A    between atoms: C7_9  and  C8_10 
REMARK    5  A    between atoms: C8_10  and  C9_11 
REMARK    6  A    between atoms: C9_11  and  N2_12 
ROOT
HETATM    1  O1  UNL     1      30.480   7.543  48.237  1.00  0.00    -0.275 OA
HETATM    2  C1  UNL     1      29.251   7.299  48.538  1.00  0.00     0.224 C 
HETATM    3  C2  UNL     1      28.791   5.902  48.333  1.00  0.00     0.066 C 
HETATM    4  C3  UNL     1      27.751   5.082  48.531  1.00  0.00     0.004 C 
HETATM    5  C4  UNL     1      26.417   5.256  49.138  1.00  0.00     0.112 C 
HETATM    6  C12 UNL     1      26.104   6.531  49.781  1.00  0.00     0.044 C 
HETATM    7  C13 UNL     1      26.303   7.830  50.085  1.00  0.00    -0.018 C 
HETATM    8  C14 UNL     1      26.984   9.119  50.069  1.00  0.00     0.008 C 
HETATM    9  C15 UNL     1      28.130   9.570  49.520  1.00  0.00     0.065 C 
HETATM   10  N4  UNL     1      28.312   8.258  49.057  1.00  0.00    -0.236 NA
HETATM   11  H20 UNL     1      29.179   8.835  49.055  1.00  0.00     0.136 HD
ENDROOT
BRANCH   5  12
HETATM   12  N1  UNL     1      26.185   4.227  50.172  1.00  0.00    -0.391 N 
HETATM   13  H4  UNL     1      25.874   4.610  51.115  1.00  0.00     0.159 HD
BRANCH  12  14
HETATM   14  C5  UNL     1      26.209   2.842  50.467  1.00  0.00     0.079 C 
HETATM   15  C6  UNL     1      26.721   2.170  51.465  1.00  0.00    -0.010 C 
BRANCH  15  16
HETATM   16  C7  UNL     1      27.473   2.267  52.729  1.00  0.00     0.030 C 
BRANCH  16  17
HETATM   17  C8  UNL     1      26.618   1.836  53.916  1.00  0.00     0.025 C 
BRANCH  17  18
HETATM   18  C9  UNL     1      27.143   0.626  54.618  1.00  0.00     0.145 C 
BRANCH  18  19
HETATM   19  N2  UNL     1      27.057  -0.537  53.724  1.00  0.00    -0.301 N 
HETATM   20  C10 UNL     1      25.885  -1.100  53.037  1.00  0.00     0.193 A 
HETATM   21  C11 UNL     1      26.970  -2.024  52.577  1.00  0.00     0.132 A 
HETATM   22  N3  UNL     1      27.961  -1.487  53.204  1.00  0.00    -0.192 NA
ENDBRANCH  18  19
ENDBRANCH  17  18
ENDBRANCH  16  17
ENDBRANCH  15  16
ENDBRANCH  12  14
ENDBRANCH   5  12
TORSDOF 6
ENDMDL
MODEL 8
REMARK VINA RESULT:      -6.4      3.227      5.091
REMARK  6 active torsions:
REMARK  status: ('A' for Active; 'I' for Inactive)
REMARK    1  A    between atoms: C4_5  and  N1_6 
REMARK    2  A    between atoms: N1_6  and  C5_7 
REMARK    3  A    between atoms: C6_8  and  C7_9 
REMARK    4  A    between atoms: C7_9  and  C8_10 
REMARK    5  A    between atoms: C8_10  and  C9_11 
REMARK    6  A    between atoms: C9_11  and  N2_12 
ROOT
HETATM    1  O1  UNL     1      22.869   5.402  51.027  1.00  0.00    -0.275 OA
HETATM    2  C1  UNL     1      23.873   4.634  51.278  1.00  0.00     0.224 C 
HETATM    3  C2  UNL     1      23.746   3.762  52.474  1.00  0.00     0.066 C 
HETATM    4  C3  UNL     1      24.353   2.773  53.140  1.00  0.00     0.004 C 
HETATM    5  C4  UNL     1      25.599   2.010  52.922  1.00  0.00     0.112 C 
HETATM    6  C12 UNL     1      26.352   2.241  51.690  1.00  0.00     0.044 C 
HETATM    7  C13 UNL     1      26.669   2.895  50.555  1.00  0.00    -0.018 C 
HETATM    8  C14 UNL     1      26.565   3.930  49.532  1.00  0.00     0.008 C 
HETATM    9  C15 UNL     1      25.738   4.977  49.334  1.00  0.00     0.065 C 
HETATM   10  N4  UNL     1      25.078   4.552  50.497  1.00  0.00    -0.236 NA
HETATM   11  H20 UNL     1      24.518   5.195  49.900  1.00  0.00     0.136 HD
ENDROOT
BRANCH   5  12
HETATM   12  N1  UNL     1      25.325   0.560  52.950  1.00  0.00    -0.391 N 
HETATM   13  H4  UNL     1      25.837  -0.002  52.204  1.00  0.00     0.159 HD
BRANCH  12  14
HETATM   14  C5  UNL     1      24.611  -0.482  53.591  1.00  0.00     0.079 C 
HETATM   15  C6  UNL     1      23.349  -0.610  53.907  1.00  0.00    -0.010 C 
BRANCH  15  16
HETATM   16  C7  UNL     1      22.023   0.031  53.872  1.00  0.00     0.030 C 
BRANCH  16  17
HETATM   17  C8  UNL     1      21.484   0.111  52.449  1.00  0.00     0.025 C 
BRANCH  17  18
HETATM   18  C9  UNL     1      20.041   0.493  52.379  1.00  0.00     0.145 C 
BRANCH  18  19
HETATM   19  N2  UNL     1      19.926   1.911  52.009  1.00  0.00    -0.301 N 
HETATM   20  C10 UNL     1      19.553   2.511  50.719  1.00  0.00     0.193 A 
HETATM   21  C11 UNL     1      19.779   3.730  51.559  1.00  0.00     0.132 A 
HETATM   22  N3  UNL     1      20.099   3.148  52.664  1.00  0.00    -0.192 NA
ENDBRANCH  18  19
ENDBRANCH  17  18
ENDBRANCH  16  17
ENDBRANCH  15  16
ENDBRANCH  12  14
ENDBRANCH   5  12
TORSDOF 6
ENDMDL
MODEL 9
REMARK VINA RESULT:      -6.3      3.247      5.764
REMARK  6 active torsions:
REMARK  status: ('A' for Active; 'I' for Inactive)
REMARK    1  A    between atoms: C4_5  and  N1_6 
REMARK    2  A    between atoms: N1_6  and  C5_7 
REMARK    3  A    between atoms: C6_8  and  C7_9 
REMARK    4  A    between atoms: C7_9  and  C8_10 
REMARK    5  A    between atoms: C8_10  and  C9_11 
REMARK    6  A    between atoms: C9_11  and  N2_12 
ROOT
HETATM    1  O1  UNL     1      20.184   3.248  52.722  1.00  0.00    -0.275 OA
HETATM    2  C1  UNL     1      21.081   3.387  51.807  1.00  0.00     0.224 C 
HETATM    3  C2  UNL     1      22.229   4.267  52.144  1.00  0.00     0.066 C 
HETATM    4  C3  UNL     1      23.414   4.693  51.691  1.00  0.00     0.004 C 
HETATM    5  C4  UNL     1      24.201   4.413  50.473  1.00  0.00     0.112 C 
HETATM    6  C12 UNL     1      23.715   3.390  49.548  1.00  0.00     0.044 C 
HETATM    7  C13 UNL     1      22.810   2.528  49.043  1.00  0.00    -0.018 C 
HETATM    8  C14 UNL     1      21.532   1.832  48.949  1.00  0.00     0.008 C 
HETATM    9  C15 UNL     1      20.399   1.843  49.679  1.00  0.00     0.065 C 
HETATM   10  N4  UNL     1      21.059   2.757  50.514  1.00  0.00    -0.236 NA
HETATM   11  H20 UNL     1      20.229   2.305  50.951  1.00  0.00     0.136 HD
ENDROOT
BRANCH   5  12
HETATM   12  N1  UNL     1      25.572   4.001  50.831  1.00  0.00    -0.391 N 
HETATM   13  H4  UNL     1      26.145   4.750  51.326  1.00  0.00     0.159 HD
BRANCH  12  14
HETATM   14  C5  UNL     1      26.527   2.956  50.786  1.00  0.00     0.079 C 
HETATM   15  C6  UNL     1      26.578   1.793  51.384  1.00  0.00    -0.010 C 
BRANCH  15  16
HETATM   16  C7  UNL     1      25.894   0.883  52.318  1.00  0.00     0.030 C 
BRANCH  16  17
HETATM   17  C8  UNL     1      24.384   0.905  52.107  1.00  0.00     0.025 C 
BRANCH  17  18
HETATM   18  C9  UNL     1      23.612   1.162  53.360  1.00  0.00     0.145 C 
BRANCH  18  19
HETATM   19  N2  UNL     1      22.328   0.448  53.300  1.00  0.00    -0.301 N 
HETATM   20  C10 UNL     1      21.399   0.107  54.388  1.00  0.00     0.193 A 
HETATM   21  C11 UNL     1      20.686  -0.461  53.200  1.00  0.00     0.132 A 
HETATM   22  N3  UNL     1      21.537  -0.135  52.288  1.00  0.00    -0.192 NA
ENDBRANCH  18  19
ENDBRANCH  17  18
ENDBRANCH  16  17
ENDBRANCH  15  16
ENDBRANCH  12  14
ENDBRANCH   5  12
TORSDOF 6
ENDMDL
