MODEL 1
REMARK VINA RESULT:      -6.7      0.000      0.000
REMARK  7 active torsions:
REMARK  status: ('A' for Active; 'I' for Inactive)
REMARK    1  A    between atoms: C2_2  and  C3_3 
REMARK    2  A    between atoms: C4_4  and  C5_5 
REMARK    3  A    between atoms: C5_5  and  C6_6 
REMARK    4  A    between atoms: C6_6  and  P1_7 
REMARK    5  A    between atoms: P1_7  and  S1_8 
REMARK    6  A    between atoms: S1_8  and  C7_9 
REMARK    7  A    between atoms: C8_12  and  C9_13 
ROOT
HETATM    1  C7  UNL     1      24.904   3.576  50.906  1.00  0.00     0.237 A 
HETATM    2  N1  UNL     1      25.849   3.335  50.002  1.00  0.00    -0.114 NA
HETATM    3  N2  UNL     1      26.782   2.609  50.608  1.00  0.00    -0.121 NA
HETATM    4  C8  UNL     1      26.418   2.396  51.894  1.00  0.00     0.201 A 
HETATM    5  O2  UNL     1      25.260   3.005  52.034  1.00  0.00    -0.263 OA
ENDROOT
BRANCH   1   6
HETATM    6  S1  UNL     1      23.450   4.531  50.507  1.00  0.00    -0.032 SA
BRANCH   6   7
HETATM    7  P1  UNL     1      21.679   3.647  51.398  1.00  0.00     0.073 P 
BRANCH   7   8
HETATM    8  C6  UNL     1      21.679   1.988  51.579  1.00  0.00    -0.128 C 
BRANCH   8   9
HETATM    9  C5  UNL     1      21.441   0.688  51.403  1.00  0.00     0.074 C 
BRANCH   9  10
HETATM   10  C4  UNL     1      20.626  -0.087  52.372  1.00  0.00    -0.007 C 
HETATM   11  C3  UNL     1      21.499   0.153  53.311  1.00  0.00     0.025 C 
BRANCH  11  12
HETATM   12  C2  UNL     1      21.456  -0.287  54.695  1.00  0.00    -0.005 C 
HETATM   13  C1  UNL     1      21.804  -1.583  54.644  1.00  0.00     0.006 C 
ENDBRANCH  11  12
ENDBRANCH   9  10
ENDBRANCH   8   9
ENDBRANCH   7   8
ENDBRANCH   6   7
ENDBRANCH   1   6
BRANCH   4  14
HETATM   14  C9  UNL     1      27.095   1.660  52.970  1.00  0.00     0.022 C 
HETATM   15  C10 UNL     1      28.388   1.507  53.060  1.00  0.00    -0.006 C 
HETATM   16  C11 UNL     1      29.021   0.753  54.173  1.00  0.00     0.029 C 
HETATM   17  C12 UNL     1      29.995  -0.263  53.574  1.00  0.00     0.016 C 
HETATM   18  C13 UNL     1      28.001  -0.009  54.972  1.00  0.00     0.176 C 
HETATM   19  O1  UNL     1      26.826   0.681  55.149  1.00  0.00    -0.381 OA
HETATM   20  C14 UNL     1      26.196   1.074  53.996  1.00  0.00     0.154 C 
HETATM   21  C15 UNL     1      25.306  -0.011  53.406  1.00  0.00     0.045 C 
ENDBRANCH   4  14
TORSDOF 7
ENDMDL
MODEL 2
REMARK VINA RESULT:      -6.6      2.750      5.104
REMARK  7 active torsions:
REMARK  status: ('A' for Active; 'I' for Inactive)
REMARK    1  A    between atoms: C2_2  and  C3_3 
REMARK    2  A    between atoms: C4_4  and  C5_5 
REMARK    3  A    between atoms: C5_5  and  C6_6 
REMARK    4  A    between atoms: C6_6  and  P1_7 
REMARK    5  A    between atoms: P1_7  and  S1_8 
REMARK    6  A    between atoms: S1_8  and  C7_9 
REMARK    7  A    between atoms: C8_12  and  C9_13 
ROOT
HETATM    1  C7  UNL     1      22.638   1.001  51.718  1.00  0.00     0.237 A 
HETATM    2  N1  UNL     1      22.145   0.392  52.793  1.00  0.00    -0.114 NA
HETATM    3  N2  UNL     1      23.170   0.155  53.603  1.00  0.00    -0.121 NA
HETATM    4  C8  UNL     1      24.307   0.618  53.033  1.00  0.00     0.201 A 
HETATM    5  O2  UNL     1      23.935   1.129  51.880  1.00  0.00    -0.263 OA
ENDROOT
BRANCH   1   6
HETATM    6  S1  UNL     1      21.591   1.502  50.363  1.00  0.00    -0.032 SA
BRANCH   6   7
HETATM    7  P1  UNL     1      22.741   2.540  48.843  1.00  0.00     0.073 P 
BRANCH   7   8
HETATM    8  C6  UNL     1      24.167   3.252  49.337  1.00  0.00    -0.128 C 
BRANCH   8   9
HETATM    9  C5  UNL     1      25.055   4.016  49.972  1.00  0.00     0.074 C 
BRANCH   9  10
HETATM   10  C4  UNL     1      26.488   4.022  49.586  1.00  0.00    -0.007 C 
HETATM   11  C3  UNL     1      26.364   5.231  49.111  1.00  0.00     0.025 C 
BRANCH  11  12
HETATM   12  C2  UNL     1      27.391   6.050  48.492  1.00  0.00    -0.005 C 
HETATM   13  C1  UNL     1      28.442   5.224  48.359  1.00  0.00     0.006 C 
ENDBRANCH  11  12
ENDBRANCH   9  10
ENDBRANCH   8   9
ENDBRANCH   7   8
ENDBRANCH   6   7
ENDBRANCH   1   6
BRANCH   4  14
HETATM   14  C9  UNL     1      25.694   0.601  53.517  1.00  0.00     0.022 C 
HETATM   15  C10 UNL     1      26.390   1.668  53.801  1.00  0.00    -0.006 C 
HETATM   16  C11 UNL     1      27.793   1.592  54.288  1.00  0.00     0.029 C 
HETATM   17  C12 UNL     1      28.648   2.536  53.441  1.00  0.00     0.016 C 
HETATM   18  C13 UNL     1      28.355   0.207  54.136  1.00  0.00     0.176 C 
HETATM   19  O1  UNL     1      27.442  -0.782  54.418  1.00  0.00    -0.381 OA
HETATM   20  C14 UNL     1      26.292  -0.749  53.672  1.00  0.00     0.154 C 
HETATM   21  C15 UNL     1      26.433  -1.456  52.331  1.00  0.00     0.045 C 
ENDBRANCH   4  14
TORSDOF 7
ENDMDL
MODEL 3
REMARK VINA RESULT:      -6.6      3.380      4.712
REMARK  7 active torsions:
REMARK  status: ('A' for Active; 'I' for Inactive)
REMARK    1  A    between atoms: C2_2  and  C3_3 
REMARK    2  A    between atoms: C4_4  and  C5_5 
REMARK    3  A    between atoms: C5_5  and  C6_6 
REMARK    4  A    between atoms: C6_6  and  P1_7 
REMARK    5  A    between atoms: P1_7  and  S1_8 
REMARK    6  A    between atoms: S1_8  and  C7_9 
REMARK    7  A    between atoms: C8_12  and  C9_13 
ROOT
HETATM    1  C7  UNL     1      21.311  -0.755  53.873  1.00  0.00     0.237 A 
HETATM    2  N1  UNL     1      21.761  -1.279  55.010  1.00  0.00    -0.114 NA
HETATM    3  N2  UNL     1      23.083  -1.144  54.997  1.00  0.00    -0.121 NA
HETATM    4  C8  UNL     1      23.459  -0.535  53.848  1.00  0.00     0.201 A 
HETATM    5  O2  UNL     1      22.342  -0.314  53.189  1.00  0.00    -0.263 OA
ENDROOT
BRANCH   1   6
HETATM    6  S1  UNL     1      19.571  -0.729  53.479  1.00  0.00    -0.032 SA
BRANCH   6   7
HETATM    7  P1  UNL     1      19.176   0.618  51.824  1.00  0.00     0.073 P 
BRANCH   7   8
HETATM    8  C6  UNL     1      20.318   0.668  50.609  1.00  0.00    -0.128 C 
BRANCH   8   9
HETATM    9  C5  UNL     1      21.475   0.733  49.951  1.00  0.00     0.074 C 
BRANCH   9  10
HETATM   10  C4  UNL     1      21.735   1.793  48.944  1.00  0.00    -0.007 C 
HETATM   11  C3  UNL     1      22.488   2.430  49.798  1.00  0.00     0.025 C 
BRANCH  11  12
HETATM   12  C2  UNL     1      23.198   3.681  49.594  1.00  0.00    -0.005 C 
HETATM   13  C1  UNL     1      24.474   3.312  49.395  1.00  0.00     0.006 C 
ENDBRANCH  11  12
ENDBRANCH   9  10
ENDBRANCH   8   9
ENDBRANCH   7   8
ENDBRANCH   6   7
ENDBRANCH   1   6
BRANCH   4  14
HETATM   14  C9  UNL     1      24.792  -0.160  53.357  1.00  0.00     0.022 C 
HETATM   15  C10 UNL     1      25.902  -0.749  53.710  1.00  0.00    -0.006 C 
HETATM   16  C11 UNL     1      27.225  -0.328  53.180  1.00  0.00     0.029 C 
HETATM   17  C12 UNL     1      28.177  -0.134  54.360  1.00  0.00     0.016 C 
HETATM   18  C13 UNL     1      27.134   0.982  52.447  1.00  0.00     0.176 C 
HETATM   19  O1  UNL     1      25.988   1.105  51.699  1.00  0.00    -0.381 OA
HETATM   20  C14 UNL     1      24.815   0.972  52.395  1.00  0.00     0.154 C 
HETATM   21  C15 UNL     1      24.360   2.269  53.048  1.00  0.00     0.045 C 
ENDBRANCH   4  14
TORSDOF 7
ENDMDL
MODEL 4
REMARK VINA RESULT:      -6.4      1.350      2.138
REMARK  7 active torsions:
REMARK  status: ('A' for Active; 'I' for Inactive)
REMARK    1  A    between atoms: C2_2  and  C3_3 
REMARK    2  A    between atoms: C4_4  and  C5_5 
REMARK    3  A    between atoms: C5_5  and  C6_6 
REMARK    4  A    between atoms: C6_6  and  P1_7 
REMARK    5  A    between atoms: P1_7  and  S1_8 
REMARK    6  A    between atoms: S1_8  and  C7_9 
REMARK    7  A    between atoms: C8_12  and  C9_13 
ROOT
HETATM    1  C7  UNL     1      25.089   4.172  50.536  1.00  0.00     0.237 A 
HETATM    2  N1  UNL     1      26.225   4.119  49.846  1.00  0.00    -0.114 NA
HETATM    3  N2  UNL     1      26.930   3.110  50.345  1.00  0.00    -0.121 NA
HETATM    4  C8  UNL     1      26.233   2.531  51.350  1.00  0.00     0.201 A 
HETATM    5  O2  UNL     1      25.111   3.213  51.434  1.00  0.00    -0.263 OA
ENDROOT
BRANCH   1   6
HETATM    6  S1  UNL     1      23.838   5.396  50.189  1.00  0.00    -0.032 SA
BRANCH   6   7
HETATM    7  P1  UNL     1      21.886   4.468  49.992  1.00  0.00     0.073 P 
BRANCH   7   8
HETATM    8  C6  UNL     1      21.836   2.802  50.064  1.00  0.00    -0.128 C 
BRANCH   8   9
HETATM    9  C5  UNL     1      22.192   1.521  50.148  1.00  0.00     0.074 C 
BRANCH   9  10
HETATM   10  C4  UNL     1      21.411   0.552  50.959  1.00  0.00    -0.007 C 
HETATM   11  C3  UNL     1      21.980   0.993  52.047  1.00  0.00     0.025 C 
BRANCH  11  12
HETATM   12  C2  UNL     1      21.760   0.539  53.409  1.00  0.00    -0.005 C 
HETATM   13  C1  UNL     1      21.783  -0.801  53.322  1.00  0.00     0.006 C 
ENDBRANCH  11  12
ENDBRANCH   9  10
ENDBRANCH   8   9
ENDBRANCH   7   8
ENDBRANCH   6   7
ENDBRANCH   1   6
BRANCH   4  14
HETATM   14  C9  UNL     1      26.570   1.392  52.215  1.00  0.00     0.022 C 
HETATM   15  C10 UNL     1      25.725   0.465  52.576  1.00  0.00    -0.006 C 
HETATM   16  C11 UNL     1      26.120  -0.668  53.454  1.00  0.00     0.029 C 
HETATM   17  C12 UNL     1      25.108  -0.769  54.595  1.00  0.00     0.016 C 
HETATM   18  C13 UNL     1      27.476  -0.446  54.064  1.00  0.00     0.176 C 
HETATM   19  O1  UNL     1      28.370   0.138  53.198  1.00  0.00    -0.381 OA
HETATM   20  C14 UNL     1      27.980   1.345  52.678  1.00  0.00     0.154 C 
HETATM   21  C15 UNL     1      28.309   2.520  53.588  1.00  0.00     0.045 C 
ENDBRANCH   4  14
TORSDOF 7
ENDMDL
MODEL 5
REMARK VINA RESULT:      -6.4      3.447      6.245
REMARK  7 active torsions:
REMARK  status: ('A' for Active; 'I' for Inactive)
REMARK    1  A    between atoms: C2_2  and  C3_3 
REMARK    2  A    between atoms: C4_4  and  C5_5 
REMARK    3  A    between atoms: C5_5  and  C6_6 
REMARK    4  A    between atoms: C6_6  and  P1_7 
REMARK    5  A    between atoms: P1_7  and  S1_8 
REMARK    6  A    between atoms: S1_8  and  C7_9 
REMARK    7  A    between atoms: C8_12  and  C9_13 
ROOT
HETATM    1  C7  UNL     1      24.835   2.927  50.501  1.00  0.00     0.237 A 
HETATM    2  N1  UNL     1      25.998   2.450  50.937  1.00  0.00    -0.114 NA
HETATM    3  N2  UNL     1      26.945   3.237  50.438  1.00  0.00    -0.121 NA
HETATM    4  C8  UNL     1      26.373   4.208  49.689  1.00  0.00     0.201 A 
HETATM    5  O2  UNL     1      25.079   3.981  49.755  1.00  0.00    -0.263 OA
ENDROOT
BRANCH   1   6
HETATM    6  S1  UNL     1      23.285   2.159  50.939  1.00  0.00    -0.032 SA
BRANCH   6   7
HETATM    7  P1  UNL     1      23.436   1.158  52.859  1.00  0.00     0.073 P 
BRANCH   7   8
HETATM    8  C6  UNL     1      24.705   0.093  53.051  1.00  0.00    -0.128 C 
BRANCH   8   9
HETATM    9  C5  UNL     1      25.766  -0.549  53.541  1.00  0.00     0.074 C 
BRANCH   9  10
HETATM   10  C4  UNL     1      27.055  -0.589  52.806  1.00  0.00    -0.007 C 
HETATM   11  C3  UNL     1      27.503   0.405  53.522  1.00  0.00     0.025 C 
BRANCH  11  12
HETATM   12  C2  UNL     1      28.804   1.045  53.434  1.00  0.00    -0.005 C 
HETATM   13  C1  UNL     1      28.546   2.351  53.618  1.00  0.00     0.006 C 
ENDBRANCH  11  12
ENDBRANCH   9  10
ENDBRANCH   8   9
ENDBRANCH   7   8
ENDBRANCH   6   7
ENDBRANCH   1   6
BRANCH   4  14
HETATM   14  C9  UNL     1      26.977   5.313  48.933  1.00  0.00     0.022 C 
HETATM   15  C10 UNL     1      28.190   5.303  48.452  1.00  0.00    -0.006 C 
HETATM   16  C11 UNL     1      28.750   6.452  47.693  1.00  0.00     0.029 C 
HETATM   17  C12 UNL     1      30.111   6.807  48.292  1.00  0.00     0.016 C 
HETATM   18  C13 UNL     1      27.872   7.666  47.803  1.00  0.00     0.176 C 
HETATM   19  O1  UNL     1      26.530   7.369  47.769  1.00  0.00    -0.381 OA
HETATM   20  C14 UNL     1      26.099   6.494  48.733  1.00  0.00     0.154 C 
HETATM   21  C15 UNL     1      25.772   7.178  50.053  1.00  0.00     0.045 C 
ENDBRANCH   4  14
TORSDOF 7
ENDMDL
MODEL 6
REMARK VINA RESULT:      -6.2      2.723      5.492
REMARK  7 active torsions:
REMARK  status: ('A' for Active; 'I' for Inactive)
REMARK    1  A    between atoms: C2_2  and  C3_3 
REMARK    2  A    between atoms: C4_4  and  C5_5 
REMARK    3  A    between atoms: C5_5  and  C6_6 
REMARK    4  A    between atoms: C6_6  and  P1_7 
REMARK    5  A    between atoms: P1_7  and  S1_8 
REMARK    6  A    between atoms: S1_8  and  C7_9 
REMARK    7  A    between atoms: C8_12  and  C9_13 
ROOT
HETATM    1  C7  UNL     1      24.572   3.505  51.190  1.00  0.00     0.237 A 
HETATM    2  N1  UNL     1      25.410   3.230  50.195  1.00  0.00    -0.114 NA
HETATM    3  N2  UNL     1      26.406   2.522  50.718  1.00  0.00    -0.121 NA
HETATM    4  C8  UNL     1      26.188   2.355  52.043  1.00  0.00     0.201 A 
HETATM    5  O2  UNL     1      25.053   2.973  52.290  1.00  0.00    -0.263 OA
ENDROOT
BRANCH   1   6
HETATM    6  S1  UNL     1      23.082   4.450  50.924  1.00  0.00    -0.032 SA
BRANCH   6   7
HETATM    7  P1  UNL     1      23.539   6.557  50.674  1.00  0.00     0.073 P 
BRANCH   7   8
HETATM    8  C6  UNL     1      24.980   6.927  49.920  1.00  0.00    -0.128 C 
BRANCH   8   9
HETATM    9  C5  UNL     1      26.270   6.962  49.586  1.00  0.00     0.074 C 
BRANCH   9  10
HETATM   10  C4  UNL     1      26.823   6.063  48.541  1.00  0.00    -0.007 C 
HETATM   11  C3  UNL     1      27.875   6.827  48.430  1.00  0.00     0.025 C 
BRANCH  11  12
HETATM   12  C2  UNL     1      29.013   6.646  47.545  1.00  0.00    -0.005 C 
HETATM   13  C1  UNL     1      29.787   5.749  48.177  1.00  0.00     0.006 C 
ENDBRANCH  11  12
ENDBRANCH   9  10
ENDBRANCH   8   9
ENDBRANCH   7   8
ENDBRANCH   6   7
ENDBRANCH   1   6
BRANCH   4  14
HETATM   14  C9  UNL     1      26.982   1.655  53.061  1.00  0.00     0.022 C 
HETATM   15  C10 UNL     1      28.286   1.597  53.070  1.00  0.00    -0.006 C 
HETATM   16  C11 UNL     1      29.040   0.874  54.128  1.00  0.00     0.029 C 
HETATM   17  C12 UNL     1      30.046  -0.057  53.451  1.00  0.00     0.016 C 
HETATM   18  C13 UNL     1      28.129   0.026  54.971  1.00  0.00     0.176 C 
HETATM   19  O1  UNL     1      26.920   0.625  55.233  1.00  0.00    -0.381 OA
HETATM   20  C14 UNL     1      26.194   0.988  54.128  1.00  0.00     0.154 C 
HETATM   21  C15 UNL     1      25.351  -0.151  53.571  1.00  0.00     0.045 C 
ENDBRANCH   4  14
TORSDOF 7
ENDMDL
MODEL 7
REMARK VINA RESULT:      -6.1      1.761      3.511
REMARK  7 active torsions:
REMARK  status: ('A' for Active; 'I' for Inactive)
REMARK    1  A    between atoms: C2_2  and  C3_3 
REMARK    2  A    between atoms: C4_4  and  C5_5 
REMARK    3  A    between atoms: C5_5  and  C6_6 
REMARK    4  A    between atoms: C6_6  and  P1_7 
REMARK    5  A    between atoms: P1_7  and  S1_8 
REMARK    6  A    between atoms: S1_8  and  C7_9 
REMARK    7  A    between atoms: C8_12  and  C9_13 
ROOT
HETATM    1  C7  UNL     1      25.564   3.449  50.727  1.00  0.00     0.237 A 
HETATM    2  N1  UNL     1      26.742   2.849  50.584  1.00  0.00    -0.114 NA
HETATM    3  N2  UNL     1      26.698   1.741  51.315  1.00  0.00    -0.121 NA
HETATM    4  C8  UNL     1      25.489   1.648  51.915  1.00  0.00     0.201 A 
HETATM    5  O2  UNL     1      24.825   2.715  51.527  1.00  0.00    -0.263 OA
ENDROOT
BRANCH   1   6
HETATM    6  S1  UNL     1      25.192   4.990  49.906  1.00  0.00    -0.032 SA
BRANCH   6   7
HETATM    7  P1  UNL     1      23.047   5.273  49.732  1.00  0.00     0.073 P 
BRANCH   7   8
HETATM    8  C6  UNL     1      22.119   4.790  51.031  1.00  0.00    -0.128 C 
BRANCH   8   9
HETATM    9  C5  UNL     1      21.700   4.179  52.139  1.00  0.00     0.074 C 
BRANCH   9  10
HETATM   10  C4  UNL     1      20.501   3.302  52.133  1.00  0.00    -0.007 C 
HETATM   11  C3  UNL     1      21.174   2.373  51.512  1.00  0.00     0.025 C 
BRANCH  11  12
HETATM   12  C2  UNL     1      20.699   1.068  51.088  1.00  0.00    -0.005 C 
HETATM   13  C1  UNL     1      21.316   0.854  49.914  1.00  0.00     0.006 C 
ENDBRANCH  11  12
ENDBRANCH   9  10
ENDBRANCH   8   9
ENDBRANCH   7   8
ENDBRANCH   6   7
ENDBRANCH   1   6
BRANCH   4  14
HETATM   14  C9  UNL     1      24.944   0.622  52.815  1.00  0.00     0.022 C 
HETATM   15  C10 UNL     1      23.689   0.266  52.855  1.00  0.00    -0.006 C 
HETATM   16  C11 UNL     1      23.192  -0.779  53.787  1.00  0.00     0.029 C 
HETATM   17  C12 UNL     1      21.974  -0.225  54.527  1.00  0.00     0.016 C 
HETATM   18  C13 UNL     1      24.227  -1.137  54.816  1.00  0.00     0.176 C 
HETATM   19  O1  UNL     1      25.504  -1.176  54.309  1.00  0.00    -0.381 OA
HETATM   20  C14 UNL     1      25.936  -0.017  53.717  1.00  0.00     0.154 C 
HETATM   21  C15 UNL     1      26.511   0.981  54.712  1.00  0.00     0.045 C 
ENDBRANCH   4  14
TORSDOF 7
ENDMDL
MODEL 8
REMARK VINA RESULT:      -6.1      3.481      6.088
REMARK  7 active torsions:
REMARK  status: ('A' for Active; 'I' for Inactive)
REMARK    1  A    between atoms: C2_2  and  C3_3 
REMARK    2  A    between atoms: C4_4  and  C5_5 
REMARK    3  A    between atoms: C5_5  and  C6_6 
REMARK    4  A    between atoms: C6_6  and  P1_7 
REMARK    5  A    between atoms: P1_7  and  S1_8 
REMARK    6  A    between atoms: S1_8  and  C7_9 
REMARK    7  A    between atoms: C8_12  and  C9_13 
ROOT
HETATM    1  C7  UNL     1      20.520   4.030  50.984  1.00  0.00     0.237 A 
HETATM    2  N1  UNL     1      19.672   3.795  51.981  1.00  0.00    -0.114 NA
HETATM    3  N2  UNL     1      20.193   2.808  52.703  1.00  0.00    -0.121 NA
HETATM    4  C8  UNL     1      21.369   2.426  52.155  1.00  0.00     0.201 A 
HETATM    5  O2  UNL     1      21.532   3.201  51.104  1.00  0.00    -0.263 OA
ENDROOT
BRANCH   1   6
HETATM    6  S1  UNL     1      20.204   5.292  49.763  1.00  0.00    -0.032 SA
BRANCH   6   7
HETATM    7  P1  UNL     1      21.572   6.960  50.006  1.00  0.00     0.073 P 
BRANCH   7   8
HETATM    8  C6  UNL     1      23.182   6.661  49.686  1.00  0.00    -0.128 C 
BRANCH   8   9
HETATM    9  C5  UNL     1      24.490   6.448  49.828  1.00  0.00     0.074 C 
BRANCH   9  10
HETATM   10  C4  UNL     1      25.027   5.091  50.104  1.00  0.00    -0.007 C 
HETATM   11  C3  UNL     1      26.013   5.305  49.278  1.00  0.00     0.025 C 
BRANCH  11  12
HETATM   12  C2  UNL     1      27.095   4.399  48.935  1.00  0.00    -0.005 C 
HETATM   13  C1  UNL     1      28.093   5.206  48.539  1.00  0.00     0.006 C 
ENDBRANCH  11  12
ENDBRANCH   9  10
ENDBRANCH   8   9
ENDBRANCH   7   8
ENDBRANCH   6   7
ENDBRANCH   1   6
BRANCH   4  14
HETATM   14  C9  UNL     1      22.325   1.389  52.568  1.00  0.00     0.022 C 
HETATM   15  C10 UNL     1      21.990   0.258  53.128  1.00  0.00    -0.006 C 
HETATM   16  C11 UNL     1      23.001  -0.757  53.525  1.00  0.00     0.029 C 
HETATM   17  C12 UNL     1      22.730  -1.163  54.975  1.00  0.00     0.016 C 
HETATM   18  C13 UNL     1      24.396  -0.202  53.459  1.00  0.00     0.176 C 
HETATM   19  O1  UNL     1      24.598   0.628  52.383  1.00  0.00    -0.381 OA
HETATM   20  C14 UNL     1      23.752   1.705  52.305  1.00  0.00     0.154 C 
HETATM   21  C15 UNL     1      24.223   2.892  53.132  1.00  0.00     0.045 C 
ENDBRANCH   4  14
TORSDOF 7
ENDMDL
MODEL 9
REMARK VINA RESULT:      -6.1      2.817      5.332
REMARK  7 active torsions:
REMARK  status: ('A' for Active; 'I' for Inactive)
REMARK    1  A    between atoms: C2_2  and  C3_3 
REMARK    2  A    between atoms: C4_4  and  C5_5 
REMARK    3  A    between atoms: C5_5  and  C6_6 
REMARK    4  A    between atoms: C6_6  and  P1_7 
REMARK    5  A    between atoms: P1_7  and  S1_8 
REMARK    6  A    between atoms: S1_8  and  C7_9 
REMARK    7  A    between atoms: C8_12  and  C9_13 
ROOT
HETATM    1  C7  UNL     1      22.564   4.620  50.397  1.00  0.00     0.237 A 
HETATM    2  N1  UNL     1      21.550   4.995  51.172  1.00  0.00    -0.114 NA
HETATM    3  N2  UNL     1      21.298   3.981  51.991  1.00  0.00    -0.121 NA
HETATM    4  C8  UNL     1      22.157   2.969  51.727  1.00  0.00     0.201 A 
HETATM    5  O2  UNL     1      22.915   3.403  50.744  1.00  0.00    -0.263 OA
ENDROOT
BRANCH   1   6
HETATM    6  S1  UNL     1      23.229   5.697  49.139  1.00  0.00    -0.032 SA
BRANCH   6   7
HETATM    7  P1  UNL     1      25.388   5.840  49.310  1.00  0.00     0.073 P 
BRANCH   7   8
HETATM    8  C6  UNL     1      26.223   4.406  49.486  1.00  0.00    -0.128 C 
BRANCH   8   9
HETATM    9  C5  UNL     1      26.632   3.217  49.928  1.00  0.00     0.074 C 
BRANCH   9  10
HETATM   10  C4  UNL     1      25.916   2.508  51.018  1.00  0.00    -0.007 C 
HETATM   11  C3  UNL     1      26.991   2.537  51.755  1.00  0.00     0.025 C 
BRANCH  11  12
HETATM   12  C2  UNL     1      27.162   2.006  53.097  1.00  0.00    -0.005 C 
HETATM   13  C1  UNL     1      28.429   2.315  53.419  1.00  0.00     0.006 C 
ENDBRANCH  11  12
ENDBRANCH   9  10
ENDBRANCH   8   9
ENDBRANCH   7   8
ENDBRANCH   6   7
ENDBRANCH   1   6
BRANCH   4  14
HETATM   14  C9  UNL     1      22.292   1.643  52.346  1.00  0.00     0.022 C 
HETATM   15  C10 UNL     1      23.306   1.270  53.079  1.00  0.00    -0.006 C 
HETATM   16  C11 UNL     1      23.390  -0.086  53.682  1.00  0.00     0.029 C 
HETATM   17  C12 UNL     1      24.759  -0.678  53.345  1.00  0.00     0.016 C 
HETATM   18  C13 UNL     1      22.344  -1.006  53.119  1.00  0.00     0.176 C 
HETATM   19  O1  UNL     1      21.134  -0.387  52.911  1.00  0.00    -0.381 OA
HETATM   20  C14 UNL     1      21.169   0.707  52.085  1.00  0.00     0.154 C 
HETATM   21  C15 UNL     1      21.078   0.342  50.610  1.00  0.00     0.045 C 
ENDBRANCH   4  14
TORSDOF 7
ENDMDL
