MODEL 1
REMARK VINA RESULT:      -9.0      0.000      0.000
REMARK  0 active torsions:
REMARK  status: ('A' for Active; 'I' for Inactive)
ROOT
HETATM    1  F1  UNL     1      21.531   0.289  54.995  1.00  0.00    -0.209 F 
HETATM    2  C1  UNL     1      21.572   0.333  53.610  1.00  0.00     0.111 C 
HETATM    3  C2  UNL     1      21.157   1.199  52.696  1.00  0.00     0.039 C 
HETATM    4  C3  UNL     1      21.115   1.408  51.257  1.00  0.00     0.003 C 
HETATM    5  C4  UNL     1      21.505   0.718  50.224  1.00  0.00     0.002 C 
HETATM    6  C5  UNL     1      21.306   1.280  48.938  1.00  0.00     0.019 C 
HETATM    7  C6  UNL     1      20.931   2.192  48.122  1.00  0.00     0.114 C 
HETATM    8  N1  UNL     1      20.410   3.294  48.902  1.00  0.00    -0.272 N 
HETATM    9  O1  UNL     1      20.989   4.424  49.377  1.00  0.00    -0.243 OA
HETATM   10  C7  UNL     1      22.124   4.550  50.148  1.00  0.00     0.073 C 
HETATM   11  C8  UNL     1      21.973   4.773  51.467  1.00  0.00     0.012 C 
HETATM   12  C9  UNL     1      22.939   4.464  52.567  1.00  0.00     0.064 C 
HETATM   13  C10 UNL     1      23.804   3.310  52.117  1.00  0.00    -0.075 C 
HETATM   14  C11 UNL     1      24.151   2.425  53.032  1.00  0.00     0.020 C 
HETATM   15  C12 UNL     1      24.933   1.199  53.093  1.00  0.00     0.027 A 
HETATM   16  C13 UNL     1      26.202   1.539  52.662  1.00  0.00     0.133 A 
HETATM   17  N2  UNL     1      27.233   0.636  52.561  1.00  0.00    -0.253 NA
HETATM   18  C14 UNL     1      26.989  -0.639  52.901  1.00  0.00     0.234 A 
HETATM   19  N3  UNL     1      25.772  -0.932  53.309  1.00  0.00    -0.224 NA
HETATM   20  C15 UNL     1      24.723  -0.102  53.431  1.00  0.00     0.137 A 
HETATM   21  N4  UNL     1      23.627  -0.907  53.913  1.00  0.00    -0.368 N 
HETATM   22  C16 UNL     1      22.290  -0.914  53.330  1.00  0.00     0.191 C 
HETATM   23  C17 UNL     1      24.150   3.344  50.688  1.00  0.00     0.041 C 
HETATM   24  C18 UNL     1      23.590   4.510  49.927  1.00  0.00     0.071 C 
HETATM   25  H6  UNL     1      19.686   3.850  49.428  1.00  0.00     0.193 HD
HETATM   26  H13 UNL     1      23.748  -1.538  54.745  1.00  0.00     0.161 HD
ENDROOT
TORSDOF 0
ENDMDL
MODEL 2
REMARK VINA RESULT:      -8.2      1.980      4.108
REMARK  0 active torsions:
REMARK  status: ('A' for Active; 'I' for Inactive)
ROOT
HETATM    1  F1  UNL     1      26.686  -0.035  51.179  1.00  0.00    -0.209 F 
HETATM    2  C1  UNL     1      25.994   1.031  51.731  1.00  0.00     0.111 C 
HETATM    3  C2  UNL     1      25.100   1.895  51.272  1.00  0.00     0.039 C 
HETATM    4  C3  UNL     1      24.294   3.034  51.685  1.00  0.00     0.003 C 
HETATM    5  C4  UNL     1      24.165   3.704  52.794  1.00  0.00     0.002 C 
HETATM    6  C5  UNL     1      23.232   4.771  52.820  1.00  0.00     0.019 C 
HETATM    7  C6  UNL     1      22.330   5.528  52.318  1.00  0.00     0.114 C 
HETATM    8  N1  UNL     1      22.088   5.085  50.962  1.00  0.00    -0.272 N 
HETATM    9  O1  UNL     1      21.184   4.223  50.436  1.00  0.00    -0.243 OA
HETATM   10  C7  UNL     1      20.930   2.918  50.797  1.00  0.00     0.073 C 
HETATM   11  C8  UNL     1      21.439   1.937  50.029  1.00  0.00     0.012 C 
HETATM   12  C9  UNL     1      21.744   0.526  50.424  1.00  0.00     0.064 C 
HETATM   13  C10 UNL     1      22.023   0.508  51.909  1.00  0.00    -0.075 C 
HETATM   14  C11 UNL     1      22.963  -0.315  52.335  1.00  0.00     0.020 C 
HETATM   15  C12 UNL     1      23.571  -0.678  53.607  1.00  0.00     0.027 A 
HETATM   16  C13 UNL     1      22.537  -1.138  54.401  1.00  0.00     0.133 A 
HETATM   17  N2  UNL     1      22.709  -1.563  55.695  1.00  0.00    -0.253 NA
HETATM   18  C14 UNL     1      23.949  -1.528  56.210  1.00  0.00     0.234 A 
HETATM   19  N3  UNL     1      24.913  -1.087  55.429  1.00  0.00    -0.224 NA
HETATM   20  C15 UNL     1      24.813  -0.659  54.160  1.00  0.00     0.137 A 
HETATM   21  N4  UNL     1      26.147  -0.284  53.755  1.00  0.00    -0.368 N 
HETATM   22  C16 UNL     1      26.489   0.978  53.110  1.00  0.00     0.191 C 
HETATM   23  C17 UNL     1      21.180   1.428  52.686  1.00  0.00     0.041 C 
HETATM   24  C18 UNL     1      20.193   2.221  51.879  1.00  0.00     0.071 C 
HETATM   25  H6  UNL     1      22.237   5.033  49.920  1.00  0.00     0.193 HD
HETATM   26  H13 UNL     1      26.956  -0.937  53.904  1.00  0.00     0.161 HD
ENDROOT
TORSDOF 0
ENDMDL
MODEL 3
REMARK VINA RESULT:      -8.1      2.492      6.084
REMARK  0 active torsions:
REMARK  status: ('A' for Active; 'I' for Inactive)
ROOT
HETATM    1  F1  UNL     1      23.259   5.335  52.460  1.00  0.00    -0.209 F 
HETATM    2  C1  UNL     1      23.968   4.152  52.329  1.00  0.00     0.111 C 
HETATM    3  C2  UNL     1      24.167   3.098  53.109  1.00  0.00     0.039 C 
HETATM    4  C3  UNL     1      24.851   1.815  53.142  1.00  0.00     0.003 C 
HETATM    5  C4  UNL     1      25.624   1.172  52.314  1.00  0.00     0.002 C 
HETATM    6  C5  UNL     1      26.094  -0.107  52.702  1.00  0.00     0.019 C 
HETATM    7  C6  UNL     1      26.189  -1.113  53.489  1.00  0.00     0.114 C 
HETATM    8  N1  UNL     1      25.373  -0.840  54.653  1.00  0.00    -0.272 N 
HETATM    9  O1  UNL     1      24.088  -1.149  54.954  1.00  0.00    -0.243 OA
HETATM   10  C7  UNL     1      22.948  -0.892  54.224  1.00  0.00     0.073 C 
HETATM   11  C8  UNL     1      22.172   0.141  54.600  1.00  0.00     0.012 C 
HETATM   12  C9  UNL     1      21.216   0.925  53.758  1.00  0.00     0.064 C 
HETATM   13  C10 UNL     1      21.689   0.853  52.325  1.00  0.00    -0.075 C 
HETATM   14  C11 UNL     1      21.539   1.936  51.586  1.00  0.00     0.020 C 
HETATM   15  C12 UNL     1      21.823   2.347  50.219  1.00  0.00     0.027 A 
HETATM   16  C13 UNL     1      21.135   1.463  49.409  1.00  0.00     0.133 A 
HETATM   17  N2  UNL     1      21.168   1.513  48.036  1.00  0.00    -0.253 NA
HETATM   18  C14 UNL     1      21.907   2.473  47.458  1.00  0.00     0.234 A 
HETATM   19  N3  UNL     1      22.550   3.301  48.255  1.00  0.00    -0.224 NA
HETATM   20  C15 UNL     1      22.560   3.307  49.599  1.00  0.00     0.137 A 
HETATM   21  N4  UNL     1      23.411   4.406  49.989  1.00  0.00    -0.368 N 
HETATM   22  C16 UNL     1      24.488   4.307  50.968  1.00  0.00     0.191 C 
HETATM   23  C17 UNL     1      22.257  -0.450  51.948  1.00  0.00     0.041 C 
HETATM   24  C18 UNL     1      22.269  -1.478  53.042  1.00  0.00     0.071 C 
HETATM   25  H6  UNL     1      25.149  -0.459  55.610  1.00  0.00     0.193 HD
HETATM   26  H13 UNL     1      23.277   5.362  49.577  1.00  0.00     0.161 HD
ENDROOT
TORSDOF 0
ENDMDL
MODEL 4
REMARK VINA RESULT:      -7.9      9.380     11.273
REMARK  0 active torsions:
REMARK  status: ('A' for Active; 'I' for Inactive)
ROOT
HETATM    1  F1  UNL     1      34.296   5.495  48.761  1.00  0.00    -0.209 F 
HETATM    2  C1  UNL     1      32.935   5.376  48.531  1.00  0.00     0.111 C 
HETATM    3  C2  UNL     1      31.866   6.066  48.904  1.00  0.00     0.039 C 
HETATM    4  C3  UNL     1      30.418   6.092  48.767  1.00  0.00     0.003 C 
HETATM    5  C4  UNL     1      29.546   5.336  48.164  1.00  0.00     0.002 C 
HETATM    6  C5  UNL     1      28.180   5.709  48.239  1.00  0.00     0.019 C 
HETATM    7  C6  UNL     1      27.207   6.461  48.592  1.00  0.00     0.114 C 
HETATM    8  N1  UNL     1      27.757   7.576  49.333  1.00  0.00    -0.272 N 
HETATM    9  O1  UNL     1      28.141   8.818  48.952  1.00  0.00    -0.243 OA
HETATM   10  C7  UNL     1      29.025   9.178  47.957  1.00  0.00     0.073 C 
HETATM   11  C8  UNL     1      30.271   9.538  48.315  1.00  0.00     0.012 C 
HETATM   12  C9  UNL     1      31.515   9.488  47.485  1.00  0.00     0.064 C 
HETATM   13  C10 UNL     1      31.339   8.406  46.446  1.00  0.00    -0.075 C 
HETATM   14  C11 UNL     1      32.403   7.688  46.137  1.00  0.00     0.020 C 
HETATM   15  C12 UNL     1      32.729   6.586  45.244  1.00  0.00     0.027 A 
HETATM   16  C13 UNL     1      32.417   7.028  43.972  1.00  0.00     0.133 A 
HETATM   17  N2  UNL     1      32.571   6.256  42.845  1.00  0.00    -0.253 NA
HETATM   18  C14 UNL     1      33.049   5.011  42.995  1.00  0.00     0.234 A 
HETATM   19  N3  UNL     1      33.338   4.619  44.219  1.00  0.00    -0.224 NA
HETATM   20  C15 UNL     1      33.212   5.320  45.358  1.00  0.00     0.137 A 
HETATM   21  N4  UNL     1      33.659   4.449  46.418  1.00  0.00    -0.368 N 
HETATM   22  C16 UNL     1      32.920   4.204  47.651  1.00  0.00     0.191 C 
HETATM   23  C17 UNL     1      29.974   8.309  45.909  1.00  0.00     0.041 C 
HETATM   24  C18 UNL     1      28.996   9.295  46.478  1.00  0.00     0.071 C 
HETATM   25  H6  UNL     1      28.108   8.096  50.180  1.00  0.00     0.193 HD
HETATM   26  H13 UNL     1      34.578   3.944  46.347  1.00  0.00     0.161 HD
ENDROOT
TORSDOF 0
ENDMDL
MODEL 5
REMARK VINA RESULT:      -7.8      2.627      5.771
REMARK  0 active torsions:
REMARK  status: ('A' for Active; 'I' for Inactive)
ROOT
HETATM    1  F1  UNL     1      21.665   1.731  47.820  1.00  0.00    -0.209 F 
HETATM    2  C1  UNL     1      21.400   1.596  49.173  1.00  0.00     0.111 C 
HETATM    3  C2  UNL     1      21.918   0.868  50.153  1.00  0.00     0.039 C 
HETATM    4  C3  UNL     1      21.778   0.604  51.576  1.00  0.00     0.003 C 
HETATM    5  C4  UNL     1      20.978   1.034  52.509  1.00  0.00     0.002 C 
HETATM    6  C5  UNL     1      21.172   0.548  53.826  1.00  0.00     0.019 C 
HETATM    7  C6  UNL     1      21.765  -0.143  54.726  1.00  0.00     0.114 C 
HETATM    8  N1  UNL     1      22.869  -0.834  54.095  1.00  0.00    -0.272 N 
HETATM    9  O1  UNL     1      24.178  -0.514  53.952  1.00  0.00    -0.243 OA
HETATM   10  C7  UNL     1      24.730   0.633  53.423  1.00  0.00     0.073 C 
HETATM   11  C8  UNL     1      25.207   0.586  52.165  1.00  0.00     0.012 C 
HETATM   12  C9  UNL     1      25.383   1.721  51.207  1.00  0.00     0.064 C 
HETATM   13  C10 UNL     1      24.384   2.795  51.568  1.00  0.00    -0.075 C 
HETATM   14  C11 UNL     1      23.832   3.464  50.572  1.00  0.00     0.020 C 
HETATM   15  C12 UNL     1      22.862   4.536  50.410  1.00  0.00     0.027 A 
HETATM   16  C13 UNL     1      23.373   5.615  51.108  1.00  0.00     0.133 A 
HETATM   17  N2  UNL     1      22.728   6.824  51.208  1.00  0.00    -0.253 NA
HETATM   18  C14 UNL     1      21.543   6.959  50.593  1.00  0.00     0.234 A 
HETATM   19  N3  UNL     1      21.083   5.915  49.935  1.00  0.00    -0.224 NA
HETATM   20  C15 UNL     1      21.660   4.709  49.799  1.00  0.00     0.137 A 
HETATM   21  N4  UNL     1      20.759   3.922  48.991  1.00  0.00    -0.368 N 
HETATM   22  C16 UNL     1      20.317   2.572  49.327  1.00  0.00     0.191 C 
HETATM   23  C17 UNL     1      24.168   2.950  53.014  1.00  0.00     0.041 C 
HETATM   24  C18 UNL     1      24.972   2.024  53.878  1.00  0.00     0.071 C 
HETATM   25  H6  UNL     1      23.351  -1.610  53.570  1.00  0.00     0.193 HD
HETATM   26  H13 UNL     1      20.379   4.298  48.087  1.00  0.00     0.161 HD
ENDROOT
TORSDOF 0
ENDMDL
MODEL 6
REMARK VINA RESULT:      -7.7      2.138      4.382
REMARK  0 active torsions:
REMARK  status: ('A' for Active; 'I' for Inactive)
ROOT
HETATM    1  F1  UNL     1      25.830   0.905  51.577  1.00  0.00    -0.209 F 
HETATM    2  C1  UNL     1      25.043   2.038  51.693  1.00  0.00     0.111 C 
HETATM    3  C2  UNL     1      24.627   2.971  50.846  1.00  0.00     0.039 C 
HETATM    4  C3  UNL     1      23.827   4.184  50.787  1.00  0.00     0.003 C 
HETATM    5  C4  UNL     1      23.167   4.885  51.663  1.00  0.00     0.002 C 
HETATM    6  C5  UNL     1      22.469   6.031  51.207  1.00  0.00     0.019 C 
HETATM    7  C6  UNL     1      22.061   6.856  50.318  1.00  0.00     0.114 C 
HETATM    8  N1  UNL     1      22.568   6.411  49.038  1.00  0.00    -0.272 N 
HETATM    9  O1  UNL     1      22.033   5.623  48.073  1.00  0.00    -0.243 OA
HETATM   10  C7  UNL     1      21.512   4.353  48.192  1.00  0.00     0.073 C 
HETATM   11  C8  UNL     1      22.273   3.315  47.798  1.00  0.00     0.012 C 
HETATM   12  C9  UNL     1      22.189   1.891  48.249  1.00  0.00     0.064 C 
HETATM   13  C10 UNL     1      21.602   1.877  49.640  1.00  0.00    -0.075 C 
HETATM   14  C11 UNL     1      22.078   0.982  50.486  1.00  0.00     0.020 C 
HETATM   15  C12 UNL     1      21.852   0.590  51.869  1.00  0.00     0.027 A 
HETATM   16  C13 UNL     1      20.517   0.240  51.948  1.00  0.00     0.133 A 
HETATM   17  N2  UNL     1      19.911  -0.174  53.110  1.00  0.00    -0.253 NA
HETATM   18  C14 UNL     1      20.661  -0.240  54.222  1.00  0.00     0.234 A 
HETATM   19  N3  UNL     1      21.929   0.098  54.115  1.00  0.00    -0.224 NA
HETATM   20  C15 UNL     1      22.580   0.509  53.015  1.00  0.00     0.137 A 
HETATM   21  N4  UNL     1      23.943   0.754  53.423  1.00  0.00    -0.368 N 
HETATM   22  C16 UNL     1      24.690   1.969  53.114  1.00  0.00     0.191 C 
HETATM   23  C17 UNL     1      20.553   2.884  49.857  1.00  0.00     0.041 C 
HETATM   24  C18 UNL     1      20.245   3.745  48.667  1.00  0.00     0.071 C 
HETATM   25  H6  UNL     1      23.261   6.325  48.248  1.00  0.00     0.193 HD
HETATM   26  H13 UNL     1      24.478   0.035  53.970  1.00  0.00     0.161 HD
ENDROOT
TORSDOF 0
ENDMDL
MODEL 7
REMARK VINA RESULT:      -7.3      2.920      4.960
REMARK  0 active torsions:
REMARK  status: ('A' for Active; 'I' for Inactive)
ROOT
HETATM    1  F1  UNL     1      26.844   2.128  49.303  1.00  0.00    -0.209 F 
HETATM    2  C1  UNL     1      26.197   3.232  49.835  1.00  0.00     0.111 C 
HETATM    3  C2  UNL     1      25.572   4.281  49.317  1.00  0.00     0.039 C 
HETATM    4  C3  UNL     1      24.860   5.490  49.700  1.00  0.00     0.003 C 
HETATM    5  C4  UNL     1      24.562   6.050  50.837  1.00  0.00     0.002 C 
HETATM    6  C5  UNL     1      23.812   7.252  50.807  1.00  0.00     0.019 C 
HETATM    7  C6  UNL     1      23.175   8.202  50.232  1.00  0.00     0.114 C 
HETATM    8  N1  UNL     1      23.208   7.954  48.806  1.00  0.00    -0.272 N 
HETATM    9  O1  UNL     1      22.346   7.320  47.975  1.00  0.00    -0.243 OA
HETATM   10  C7  UNL     1      21.830   6.047  48.079  1.00  0.00     0.073 C 
HETATM   11  C8  UNL     1      22.365   5.080  47.310  1.00  0.00     0.012 C 
HETATM   12  C9  UNL     1      22.363   3.605  47.557  1.00  0.00     0.064 C 
HETATM   13  C10 UNL     1      22.268   3.381  49.048  1.00  0.00    -0.075 C 
HETATM   14  C11 UNL     1      22.951   2.369  49.550  1.00  0.00     0.020 C 
HETATM   15  C12 UNL     1      23.175   1.773  50.859  1.00  0.00     0.027 A 
HETATM   16  C13 UNL     1      21.925   1.416  51.329  1.00  0.00     0.133 A 
HETATM   17  N2  UNL     1      21.717   0.832  52.555  1.00  0.00    -0.253 NA
HETATM   18  C14 UNL     1      22.787   0.599  53.331  1.00  0.00     0.234 A 
HETATM   19  N3  UNL     1      23.964   0.949  52.857  1.00  0.00    -0.224 NA
HETATM   20  C15 UNL     1      24.236   1.521  51.672  1.00  0.00     0.137 A 
HETATM   21  N4  UNL     1      25.667   1.702  51.632  1.00  0.00    -0.368 N 
HETATM   22  C16 UNL     1      26.330   2.949  51.266  1.00  0.00     0.191 C 
HETATM   23  C17 UNL     1      21.401   4.344  49.742  1.00  0.00     0.041 C 
HETATM   24  C18 UNL     1      20.762   5.375  48.859  1.00  0.00     0.071 C 
HETATM   25  H6  UNL     1      23.596   7.988  47.827  1.00  0.00     0.193 HD
HETATM   26  H13 UNL     1      26.316   0.909  51.861  1.00  0.00     0.161 HD
ENDROOT
TORSDOF 0
ENDMDL
MODEL 8
REMARK VINA RESULT:      -7.1     10.277     12.335
REMARK  0 active torsions:
REMARK  status: ('A' for Active; 'I' for Inactive)
ROOT
HETATM    1  F1  UNL     1      34.780   7.879  48.943  1.00  0.00    -0.209 F 
HETATM    2  C1  UNL     1      33.540   7.394  48.559  1.00  0.00     0.111 C 
HETATM    3  C2  UNL     1      32.298   7.584  48.983  1.00  0.00     0.039 C 
HETATM    4  C3  UNL     1      30.926   7.181  48.715  1.00  0.00     0.003 C 
HETATM    5  C4  UNL     1      30.364   6.371  47.865  1.00  0.00     0.002 C 
HETATM    6  C5  UNL     1      28.951   6.254  47.895  1.00  0.00     0.019 C 
HETATM    7  C6  UNL     1      27.778   6.536  48.323  1.00  0.00     0.114 C 
HETATM    8  N1  UNL     1      27.917   7.534  49.361  1.00  0.00    -0.272 N 
HETATM    9  O1  UNL     1      27.868   8.888  49.332  1.00  0.00    -0.243 OA
HETATM   10  C7  UNL     1      28.591   9.757  48.545  1.00  0.00     0.073 C 
HETATM   11  C8  UNL     1      29.641  10.391  49.099  1.00  0.00     0.012 C 
HETATM   12  C9  UNL     1      30.840  10.959  48.407  1.00  0.00     0.064 C 
HETATM   13  C10 UNL     1      31.048  10.188  47.124  1.00  0.00    -0.075 C 
HETATM   14  C11 UNL     1      32.294   9.955  46.757  1.00  0.00     0.020 C 
HETATM   15  C12 UNL     1      32.979   9.288  45.659  1.00  0.00     0.027 A 
HETATM   16  C13 UNL     1      32.553   9.923  44.508  1.00  0.00     0.133 A 
HETATM   17  N2  UNL     1      32.968   9.563  43.249  1.00  0.00    -0.253 NA
HETATM   18  C14 UNL     1      33.833   8.542  43.138  1.00  0.00     0.234 A 
HETATM   19  N3  UNL     1      34.222   7.959  44.253  1.00  0.00    -0.224 NA
HETATM   20  C15 UNL     1      33.857   8.260  45.510  1.00  0.00     0.137 A 
HETATM   21  N4  UNL     1      34.557   7.333  46.366  1.00  0.00    -0.368 N 
HETATM   22  C16 UNL     1      33.928   6.551  47.425  1.00  0.00     0.191 C 
HETATM   23  C17 UNL     1      29.799   9.803  46.450  1.00  0.00     0.041 C 
HETATM   24  C18 UNL     1      28.542  10.240  47.143  1.00  0.00     0.071 C 
HETATM   25  H6  UNL     1      28.063   7.899  50.339  1.00  0.00     0.193 HD
HETATM   26  H13 UNL     1      35.592   7.185  46.265  1.00  0.00     0.161 HD
ENDROOT
TORSDOF 0
ENDMDL
MODEL 9
REMARK VINA RESULT:      -7.0      3.515      5.222
REMARK  0 active torsions:
REMARK  status: ('A' for Active; 'I' for Inactive)
ROOT
HETATM    1  F1  UNL     1      19.870   3.331  47.512  1.00  0.00    -0.209 F 
HETATM    2  C1  UNL     1      21.158   3.164  47.994  1.00  0.00     0.111 C 
HETATM    3  C2  UNL     1      22.157   3.989  48.277  1.00  0.00     0.039 C 
HETATM    4  C3  UNL     1      23.525   3.998  48.773  1.00  0.00     0.003 C 
HETATM    5  C4  UNL     1      24.366   3.076  49.144  1.00  0.00     0.002 C 
HETATM    6  C5  UNL     1      25.642   3.488  49.603  1.00  0.00     0.019 C 
HETATM    7  C6  UNL     1      26.536   4.352  49.908  1.00  0.00     0.114 C 
HETATM    8  N1  UNL     1      25.976   5.666  49.673  1.00  0.00    -0.272 N 
HETATM    9  O1  UNL     1      25.332   6.537  50.486  1.00  0.00    -0.243 OA
HETATM   10  C7  UNL     1      24.221   6.320  51.272  1.00  0.00     0.073 C 
HETATM   11  C8  UNL     1      23.031   6.763  50.825  1.00  0.00     0.012 C 
HETATM   12  C9  UNL     1      21.669   6.258  51.186  1.00  0.00     0.064 C 
HETATM   13  C10 UNL     1      21.801   4.810  51.594  1.00  0.00    -0.075 C 
HETATM   14  C11 UNL     1      20.824   3.994  51.244  1.00  0.00     0.020 C 
HETATM   15  C12 UNL     1      20.503   2.582  51.392  1.00  0.00     0.027 A 
HETATM   16  C13 UNL     1      20.479   2.342  52.753  1.00  0.00     0.133 A 
HETATM   17  N2  UNL     1      20.225   1.107  53.298  1.00  0.00    -0.253 NA
HETATM   18  C14 UNL     1      19.990   0.085  52.460  1.00  0.00     0.234 A 
HETATM   19  N3  UNL     1      20.019   0.344  51.170  1.00  0.00    -0.224 NA
HETATM   20  C15 UNL     1      20.259   1.524  50.574  1.00  0.00     0.137 A 
HETATM   21  N4  UNL     1      20.179   1.281  49.153  1.00  0.00    -0.368 N 
HETATM   22  C16 UNL     1      21.181   1.711  48.185  1.00  0.00     0.191 C 
HETATM   23  C17 UNL     1      23.028   4.510  52.346  1.00  0.00     0.041 C 
HETATM   24  C18 UNL     1      23.932   5.685  52.581  1.00  0.00     0.071 C 
HETATM   25  H6  UNL     1      25.726   6.525  49.117  1.00  0.00     0.193 HD
HETATM   26  H13 UNL     1      19.356   0.773  48.741  1.00  0.00     0.161 HD
ENDROOT
TORSDOF 0
ENDMDL
