MODEL 1
REMARK VINA RESULT:      -9.4      0.000      0.000
REMARK  2 active torsions:
REMARK  status: ('A' for Active; 'I' for Inactive)
REMARK    1  A    between atoms: C4_5  and  N1_6 
REMARK    2  A    between atoms: N1_6  and  C5_7 
ROOT
HETATM    1  C5  UNL     1      22.551   1.360  52.271  1.00  0.00     0.142 A 
HETATM    2  N2  UNL     1      21.436   0.631  52.401  1.00  0.00    -0.224 NA
HETATM    3  C6  UNL     1      21.495  -0.483  53.151  1.00  0.00     0.236 A 
HETATM    4  N3  UNL     1      22.598  -0.924  53.783  1.00  0.00    -0.240 NA
HETATM    5  C7  UNL     1      23.752  -0.264  53.711  1.00  0.00     0.089 A 
HETATM    6  C8  UNL     1      23.636   0.876  52.930  1.00  0.00     0.041 A 
HETATM    7  C9  UNL     1      24.908   1.582  52.927  1.00  0.00     0.034 C 
HETATM    8  C10 UNL     1      25.916   2.383  53.232  1.00  0.00     0.084 C 
HETATM    9  N4  UNL     1      27.184   2.566  52.576  1.00  0.00    -0.397 N 
HETATM   10  C11 UNL     1      28.099   2.245  53.676  1.00  0.00     0.149 C 
HETATM   11  C12 UNL     1      27.946   0.850  54.149  1.00  0.00     0.294 C 
HETATM   12  N5  UNL     1      28.062  -0.204  53.214  1.00  0.00     0.119 N 
HETATM   13  C13 UNL     1      29.396  -0.700  52.977  1.00  0.00     0.301 C 
HETATM   14  C14 UNL     1      29.504  -2.052  53.648  1.00  0.00     0.198 C 
HETATM   15  O1  UNL     1      28.660  -2.991  53.067  1.00  0.00    -0.385 OA
HETATM   16  C15 UNL     1      27.472  -2.451  52.586  1.00  0.00     0.227 C 
HETATM   17  C16 UNL     1      27.125  -1.291  53.484  1.00  0.00     0.367 C 
HETATM   18  N6  UNL     1      25.773  -0.845  53.331  1.00  0.00    -0.262 NA
HETATM   19  C17 UNL     1      24.982  -0.741  54.371  1.00  0.00     0.145 C 
HETATM   20  H7  UNL     1      26.663   2.816  51.714  1.00  0.00     0.158 HD
ENDROOT
BRANCH   1  21
HETATM   21  N1  UNL     1      22.856   2.536  51.548  1.00  0.00    -0.340 N 
HETATM   22  H3  UNL     1      23.267   3.402  51.947  1.00  0.00     0.167 HD
BRANCH  21  23
HETATM   23  C4  UNL     1      22.646   2.722  50.161  1.00  0.00     0.035 A 
HETATM   24  C3  UNL     1      22.356   1.681  49.308  1.00  0.00     0.032 A 
HETATM   25  C2  UNL     1      22.141   1.796  47.960  1.00  0.00     0.046 A 
HETATM   26  C1  UNL     1      22.209   3.040  47.360  1.00  0.00     0.133 A 
HETATM   27  F1  UNL     1      22.012   3.242  46.042  1.00  0.00    -0.205 F 
HETATM   28  C19 UNL     1      22.494   4.117  48.161  1.00  0.00     0.051 A 
HETATM   29  C18 UNL     1      22.699   3.932  49.505  1.00  0.00     0.051 A 
HETATM   30 BR1  UNL     1      22.604   5.855  47.411  1.00  0.00    -0.048 Br
ENDBRANCH  21  23
ENDBRANCH   1  21
TORSDOF 2
ENDMDL
MODEL 2
REMARK VINA RESULT:      -9.2      1.976      2.233
REMARK  2 active torsions:
REMARK  status: ('A' for Active; 'I' for Inactive)
REMARK    1  A    between atoms: C4_5  and  N1_6 
REMARK    2  A    between atoms: N1_6  and  C5_7 
ROOT
HETATM    1  C5  UNL     1      22.906   1.202  51.564  1.00  0.00     0.142 A 
HETATM    2  N2  UNL     1      21.799   0.460  51.693  1.00  0.00    -0.224 NA
HETATM    3  C6  UNL     1      21.815  -0.546  52.583  1.00  0.00     0.236 A 
HETATM    4  N3  UNL     1      22.867  -0.867  53.359  1.00  0.00    -0.240 NA
HETATM    5  C7  UNL     1      24.009  -0.185  53.299  1.00  0.00     0.089 A 
HETATM    6  C8  UNL     1      23.939   0.841  52.370  1.00  0.00     0.041 A 
HETATM    7  C9  UNL     1      25.191   1.582  52.382  1.00  0.00     0.034 C 
HETATM    8  C10 UNL     1      26.151   2.446  52.665  1.00  0.00     0.084 C 
HETATM    9  N4  UNL     1      27.468   2.584  52.101  1.00  0.00    -0.397 N 
HETATM   10  C11 UNL     1      28.289   2.436  53.307  1.00  0.00     0.149 C 
HETATM   11  C12 UNL     1      28.124   1.108  53.942  1.00  0.00     0.294 C 
HETATM   12  N5  UNL     1      28.344  -0.052  53.165  1.00  0.00     0.119 N 
HETATM   13  C13 UNL     1      29.703  -0.531  53.108  1.00  0.00     0.301 C 
HETATM   14  C14 UNL     1      29.780  -1.783  53.956  1.00  0.00     0.198 C 
HETATM   15  O1  UNL     1      29.010  -2.814  53.433  1.00  0.00    -0.385 OA
HETATM   16  C15 UNL     1      27.858  -2.379  52.787  1.00  0.00     0.227 C 
HETATM   17  C16 UNL     1      27.409  -1.125  53.494  1.00  0.00     0.367 C 
HETATM   18  N6  UNL     1      26.067  -0.746  53.170  1.00  0.00    -0.262 NA
HETATM   19  C17 UNL     1      25.186  -0.535  54.117  1.00  0.00     0.145 C 
HETATM   20  H7  UNL     1      27.020   2.706  51.172  1.00  0.00     0.158 HD
ENDROOT
BRANCH   1  21
HETATM   21  N1  UNL     1      23.249   2.285  50.723  1.00  0.00    -0.340 N 
HETATM   22  H3  UNL     1      23.915   2.246  49.926  1.00  0.00     0.167 HD
BRANCH  21  23
HETATM   23  C4  UNL     1      22.739   3.600  50.833  1.00  0.00     0.035 A 
HETATM   24  C3  UNL     1      21.396   3.867  50.973  1.00  0.00     0.032 A 
HETATM   25  C2  UNL     1      20.842   5.115  51.086  1.00  0.00     0.046 A 
HETATM   26  C1  UNL     1      21.658   6.230  51.063  1.00  0.00     0.133 A 
HETATM   27  F1  UNL     1      21.196   7.493  51.167  1.00  0.00    -0.205 F 
HETATM   28  C19 UNL     1      23.008   6.027  50.925  1.00  0.00     0.051 A 
HETATM   29  C18 UNL     1      23.498   4.750  50.816  1.00  0.00     0.051 A 
HETATM   30 BR1  UNL     1      24.192   7.509  50.885  1.00  0.00    -0.048 Br
ENDBRANCH  21  23
ENDBRANCH   1  21
TORSDOF 2
ENDMDL
MODEL 3
REMARK VINA RESULT:      -9.1      5.993      8.492
REMARK  2 active torsions:
REMARK  status: ('A' for Active; 'I' for Inactive)
REMARK    1  A    between atoms: C4_5  and  N1_6 
REMARK    2  A    between atoms: N1_6  and  C5_7 
ROOT
HETATM    1  C5  UNL     1      25.260   3.614  49.940  1.00  0.00     0.142 A 
HETATM    2  N2  UNL     1      23.934   3.498  50.092  1.00  0.00    -0.224 NA
HETATM    3  C6  UNL     1      23.157   4.486  49.616  1.00  0.00     0.236 A 
HETATM    4  N3  UNL     1      23.613   5.588  48.994  1.00  0.00    -0.240 NA
HETATM    5  C7  UNL     1      24.916   5.788  48.798  1.00  0.00     0.089 A 
HETATM    6  C8  UNL     1      25.670   4.742  49.305  1.00  0.00     0.041 A 
HETATM    7  C9  UNL     1      27.076   4.987  49.020  1.00  0.00     0.034 C 
HETATM    8  C10 UNL     1      28.264   5.032  48.441  1.00  0.00     0.084 C 
HETATM    9  N4  UNL     1      29.500   5.602  48.907  1.00  0.00    -0.397 N 
HETATM   10  C11 UNL     1      29.779   6.550  47.824  1.00  0.00     0.149 C 
HETATM   11  C12 UNL     1      28.732   7.591  47.701  1.00  0.00     0.294 C 
HETATM   12  N5  UNL     1      28.405   8.366  48.837  1.00  0.00     0.119 N 
HETATM   13  C13 UNL     1      29.199   9.552  49.047  1.00  0.00     0.301 C 
HETATM   14  C14 UNL     1      28.336  10.746  48.696  1.00  0.00     0.198 C 
HETATM   15  O1  UNL     1      27.254  10.877  49.557  1.00  0.00    -0.385 OA
HETATM   16  C15 UNL     1      26.757   9.663  50.018  1.00  0.00     0.227 C 
HETATM   17  C16 UNL     1      26.975   8.656  48.917  1.00  0.00     0.367 C 
HETATM   18  N6  UNL     1      26.223   7.451  49.098  1.00  0.00    -0.262 NA
HETATM   19  C17 UNL     1      25.443   7.002  48.146  1.00  0.00     0.145 C 
HETATM   20  H7  UNL     1      29.434   4.981  49.737  1.00  0.00     0.158 HD
ENDROOT
BRANCH   1  21
HETATM   21  N1  UNL     1      26.349   2.808  50.341  1.00  0.00    -0.340 N 
HETATM   22  H3  UNL     1      27.201   2.617  49.777  1.00  0.00     0.167 HD
BRANCH  21  23
HETATM   23  C4  UNL     1      26.454   2.128  51.577  1.00  0.00     0.035 A 
HETATM   24  C3  UNL     1      27.546   2.258  52.406  1.00  0.00     0.032 A 
HETATM   25  C2  UNL     1      27.705   1.630  53.613  1.00  0.00     0.046 A 
HETATM   26  C1  UNL     1      26.716   0.784  54.080  1.00  0.00     0.133 A 
HETATM   27  F1  UNL     1      26.793   0.126  55.254  1.00  0.00    -0.205 F 
HETATM   28  C19 UNL     1      25.603   0.614  53.296  1.00  0.00     0.051 A 
HETATM   29  C18 UNL     1      25.506   1.274  52.097  1.00  0.00     0.051 A 
HETATM   30 BR1  UNL     1      24.204  -0.530  53.870  1.00  0.00    -0.048 Br
ENDBRANCH  21  23
ENDBRANCH   1  21
TORSDOF 2
ENDMDL
MODEL 4
REMARK VINA RESULT:      -9.0      4.382      7.613
REMARK  2 active torsions:
REMARK  status: ('A' for Active; 'I' for Inactive)
REMARK    1  A    between atoms: C4_5  and  N1_6 
REMARK    2  A    between atoms: N1_6  and  C5_7 
ROOT
HETATM    1  C5  UNL     1      24.397   0.927  53.271  1.00  0.00     0.142 A 
HETATM    2  N2  UNL     1      23.672  -0.107  53.716  1.00  0.00    -0.224 NA
HETATM    3  C6  UNL     1      22.565  -0.441  53.032  1.00  0.00     0.236 A 
HETATM    4  N3  UNL     1      22.126   0.189  51.927  1.00  0.00    -0.240 NA
HETATM    5  C7  UNL     1      22.782   1.228  51.412  1.00  0.00     0.089 A 
HETATM    6  C8  UNL     1      23.915   1.529  52.152  1.00  0.00     0.041 A 
HETATM    7  C9  UNL     1      24.617   2.634  51.518  1.00  0.00     0.034 C 
HETATM    8  C10 UNL     1      25.417   3.357  50.752  1.00  0.00     0.084 C 
HETATM    9  N4  UNL     1      25.590   4.784  50.680  1.00  0.00    -0.397 N 
HETATM   10  C11 UNL     1      25.277   5.017  49.267  1.00  0.00     0.149 C 
HETATM   11  C12 UNL     1      23.886   4.637  48.927  1.00  0.00     0.294 C 
HETATM   12  N5  UNL     1      22.824   5.201  49.671  1.00  0.00     0.119 N 
HETATM   13  C13 UNL     1      22.322   6.469  49.200  1.00  0.00     0.301 C 
HETATM   14  C14 UNL     1      20.975   6.215  48.558  1.00  0.00     0.198 C 
HETATM   15  O1  UNL     1      20.034   5.772  49.478  1.00  0.00    -0.385 OA
HETATM   16  C15 UNL     1      20.573   4.992  50.496  1.00  0.00     0.227 C 
HETATM   17  C16 UNL     1      21.742   4.247  49.902  1.00  0.00     0.367 C 
HETATM   18  N6  UNL     1      22.191   3.160  50.719  1.00  0.00    -0.262 NA
HETATM   19  C17 UNL     1      22.306   1.954  50.220  1.00  0.00     0.145 C 
HETATM   20  H7  UNL     1      25.835   4.770  51.689  1.00  0.00     0.158 HD
ENDROOT
BRANCH   1  21
HETATM   21  N1  UNL     1      25.565   1.563  53.749  1.00  0.00    -0.340 N 
HETATM   22  H3  UNL     1      25.604   2.500  54.195  1.00  0.00     0.167 HD
BRANCH  21  23
HETATM   23  C4  UNL     1      26.871   1.023  53.695  1.00  0.00     0.035 A 
HETATM   24  C3  UNL     1      28.000   1.792  53.869  1.00  0.00     0.032 A 
HETATM   25  C2  UNL     1      29.289   1.330  53.830  1.00  0.00     0.046 A 
HETATM   26  C1  UNL     1      29.528  -0.012  53.599  1.00  0.00     0.133 A 
HETATM   27  F1  UNL     1      30.763  -0.550  53.544  1.00  0.00    -0.205 F 
HETATM   28  C19 UNL     1      28.441  -0.829  53.417  1.00  0.00     0.051 A 
HETATM   29  C18 UNL     1      27.176  -0.302  53.469  1.00  0.00     0.051 A 
HETATM   30 BR1  UNL     1      28.688  -2.682  53.096  1.00  0.00    -0.048 Br
ENDBRANCH  21  23
ENDBRANCH   1  21
TORSDOF 2
ENDMDL
MODEL 5
REMARK VINA RESULT:      -9.0      5.306      8.585
REMARK  2 active torsions:
REMARK  status: ('A' for Active; 'I' for Inactive)
REMARK    1  A    between atoms: C4_5  and  N1_6 
REMARK    2  A    between atoms: N1_6  and  C5_7 
ROOT
HETATM    1  C5  UNL     1      25.164   2.922  50.958  1.00  0.00     0.142 A 
HETATM    2  N2  UNL     1      24.153   2.087  51.232  1.00  0.00    -0.224 NA
HETATM    3  C6  UNL     1      22.990   2.274  50.587  1.00  0.00     0.236 A 
HETATM    4  N3  UNL     1      22.761   3.242  49.682  1.00  0.00    -0.240 NA
HETATM    5  C7  UNL     1      23.707   4.118  49.346  1.00  0.00     0.089 A 
HETATM    6  C8  UNL     1      24.885   3.880  50.036  1.00  0.00     0.041 A 
HETATM    7  C9  UNL     1      25.895   4.830  49.596  1.00  0.00     0.034 C 
HETATM    8  C10 UNL     1      26.874   5.427  48.936  1.00  0.00     0.084 C 
HETATM    9  N4  UNL     1      27.491   6.709  49.155  1.00  0.00    -0.397 N 
HETATM   10  C11 UNL     1      27.252   7.343  47.855  1.00  0.00     0.149 C 
HETATM   11  C12 UNL     1      25.808   7.496  47.559  1.00  0.00     0.294 C 
HETATM   12  N5  UNL     1      24.990   8.173  48.491  1.00  0.00     0.119 N 
HETATM   13  C13 UNL     1      24.911   9.607  48.344  1.00  0.00     0.301 C 
HETATM   14  C14 UNL     1      23.546   9.932  47.776  1.00  0.00     0.198 C 
HETATM   15  O1  UNL     1      22.523   9.601  48.657  1.00  0.00    -0.385 OA
HETATM   16  C15 UNL     1      22.799   8.483  49.437  1.00  0.00     0.227 C 
HETATM   17  C16 UNL     1      23.664   7.572  48.604  1.00  0.00     0.367 C 
HETATM   18  N6  UNL     1      23.753   6.243  49.130  1.00  0.00    -0.262 NA
HETATM   19  C17 UNL     1      23.473   5.207  48.379  1.00  0.00     0.145 C 
HETATM   20  H7  UNL     1      27.731   6.392  50.114  1.00  0.00     0.158 HD
ENDROOT
BRANCH   1  21
HETATM   21  N1  UNL     1      26.479   3.041  51.461  1.00  0.00    -0.340 N 
HETATM   22  H3  UNL     1      27.104   3.862  51.333  1.00  0.00     0.167 HD
BRANCH  21  23
HETATM   23  C4  UNL     1      27.158   2.059  52.219  1.00  0.00     0.035 A 
HETATM   24  C3  UNL     1      28.118   2.375  53.155  1.00  0.00     0.032 A 
HETATM   25  C2  UNL     1      28.808   1.472  53.921  1.00  0.00     0.046 A 
HETATM   26  C1  UNL     1      28.555   0.120  53.778  1.00  0.00     0.133 A 
HETATM   27  F1  UNL     1      29.188  -0.834  54.490  1.00  0.00    -0.205 F 
HETATM   28  C19 UNL     1      27.609  -0.256  52.860  1.00  0.00     0.051 A 
HETATM   29  C18 UNL     1      26.954   0.699  52.125  1.00  0.00     0.051 A 
HETATM   30 BR1  UNL     1      27.207  -2.093  52.608  1.00  0.00    -0.048 Br
ENDBRANCH  21  23
ENDBRANCH   1  21
TORSDOF 2
ENDMDL
MODEL 6
REMARK VINA RESULT:      -8.7      4.455      7.753
REMARK  2 active torsions:
REMARK  status: ('A' for Active; 'I' for Inactive)
REMARK    1  A    between atoms: C4_5  and  N1_6 
REMARK    2  A    between atoms: N1_6  and  C5_7 
ROOT
HETATM    1  C5  UNL     1      24.640   2.575  51.286  1.00  0.00     0.142 A 
HETATM    2  N2  UNL     1      24.896   3.775  50.749  1.00  0.00    -0.224 NA
HETATM    3  C6  UNL     1      23.910   4.689  50.749  1.00  0.00     0.236 A 
HETATM    4  N3  UNL     1      22.679   4.488  51.251  1.00  0.00    -0.240 NA
HETATM    5  C7  UNL     1      22.334   3.327  51.805  1.00  0.00     0.089 A 
HETATM    6  C8  UNL     1      23.384   2.423  51.782  1.00  0.00     0.041 A 
HETATM    7  C9  UNL     1      22.970   1.195  52.443  1.00  0.00     0.034 C 
HETATM    8  C10 UNL     1      22.718   0.263  53.347  1.00  0.00     0.084 C 
HETATM    9  N4  UNL     1      22.135  -1.044  53.192  1.00  0.00    -0.397 N 
HETATM   10  C11 UNL     1      20.987  -0.930  54.097  1.00  0.00     0.149 C 
HETATM   11  C12 UNL     1      20.036   0.125  53.673  1.00  0.00     0.294 C 
HETATM   12  N5  UNL     1      19.510   0.081  52.362  1.00  0.00     0.119 N 
HETATM   13  C13 UNL     1      18.316  -0.709  52.183  1.00  0.00     0.301 C 
HETATM   14  C14 UNL     1      17.159   0.249  51.998  1.00  0.00     0.198 C 
HETATM   15  O1  UNL     1      17.280   0.993  50.831  1.00  0.00    -0.385 OA
HETATM   16  C15 UNL     1      18.596   1.282  50.487  1.00  0.00     0.227 C 
HETATM   17  C16 UNL     1      19.365   1.412  51.778  1.00  0.00     0.367 C 
HETATM   18  N6  UNL     1      20.644   2.034  51.611  1.00  0.00    -0.262 NA
HETATM   19  C17 UNL     1      20.981   3.072  52.336  1.00  0.00     0.145 C 
HETATM   20  H7  UNL     1      22.898  -1.268  52.525  1.00  0.00     0.158 HD
ENDROOT
BRANCH   1  21
HETATM   21  N1  UNL     1      25.406   1.396  51.420  1.00  0.00    -0.340 N 
HETATM   22  H3  UNL     1      25.191   0.481  50.977  1.00  0.00     0.167 HD
BRANCH  21  23
HETATM   23  C4  UNL     1      26.591   1.270  52.183  1.00  0.00     0.035 A 
HETATM   24  C3  UNL     1      27.195   2.344  52.797  1.00  0.00     0.032 A 
HETATM   25  C2  UNL     1      28.339   2.288  53.549  1.00  0.00     0.046 A 
HETATM   26  C1  UNL     1      28.975   1.075  53.736  1.00  0.00     0.133 A 
HETATM   27  F1  UNL     1      30.104   0.931  54.460  1.00  0.00    -0.205 F 
HETATM   28  C19 UNL     1      28.419  -0.032  53.148  1.00  0.00     0.051 A 
HETATM   29  C18 UNL     1      27.271   0.094  52.407  1.00  0.00     0.051 A 
HETATM   30 BR1  UNL     1      29.235  -1.731  53.361  1.00  0.00    -0.048 Br
ENDBRANCH  21  23
ENDBRANCH   1  21
TORSDOF 2
ENDMDL
MODEL 7
REMARK VINA RESULT:      -8.7      4.532      7.892
REMARK  2 active torsions:
REMARK  status: ('A' for Active; 'I' for Inactive)
REMARK    1  A    between atoms: C4_5  and  N1_6 
REMARK    2  A    between atoms: N1_6  and  C5_7 
ROOT
HETATM    1  C5  UNL     1      22.964   0.228  53.464  1.00  0.00     0.142 A 
HETATM    2  N2  UNL     1      22.645  -0.557  54.501  1.00  0.00    -0.224 NA
HETATM    3  C6  UNL     1      21.401  -1.061  54.550  1.00  0.00     0.236 A 
HETATM    4  N3  UNL     1      20.445  -0.834  53.632  1.00  0.00    -0.240 NA
HETATM    5  C7  UNL     1      20.671  -0.067  52.567  1.00  0.00     0.089 A 
HETATM    6  C8  UNL     1      21.967   0.424  52.562  1.00  0.00     0.041 A 
HETATM    7  C9  UNL     1      22.174   1.211  51.356  1.00  0.00     0.034 C 
HETATM    8  C10 UNL     1      22.456   1.589  50.121  1.00  0.00     0.084 C 
HETATM    9  N4  UNL     1      22.402   2.894  49.517  1.00  0.00    -0.397 N 
HETATM   10  C11 UNL     1      21.469   2.637  48.415  1.00  0.00     0.149 C 
HETATM   11  C12 UNL     1      20.130   2.221  48.893  1.00  0.00     0.294 C 
HETATM   12  N5  UNL     1      19.446   3.051  49.810  1.00  0.00     0.119 N 
HETATM   13  C13 UNL     1      18.635   4.098  49.237  1.00  0.00     0.301 C 
HETATM   14  C14 UNL     1      17.186   3.693  49.404  1.00  0.00     0.198 C 
HETATM   15  O1  UNL     1      16.812   3.636  50.741  1.00  0.00    -0.385 OA
HETATM   16  C15 UNL     1      17.837   3.236  51.591  1.00  0.00     0.227 C 
HETATM   17  C16 UNL     1      18.706   2.283  50.808  1.00  0.00     0.367 C 
HETATM   18  N6  UNL     1      19.600   1.528  51.633  1.00  0.00    -0.262 NA
HETATM   19  C17 UNL     1      19.631   0.220  51.561  1.00  0.00     0.145 C 
HETATM   20  H7  UNL     1      23.067   3.221  50.244  1.00  0.00     0.158 HD
ENDROOT
BRANCH   1  21
HETATM   21  N1  UNL     1      24.135   0.940  53.118  1.00  0.00    -0.340 N 
HETATM   22  H3  UNL     1      24.169   1.925  52.787  1.00  0.00     0.167 HD
BRANCH  21  23
HETATM   23  C4  UNL     1      25.451   0.424  53.164  1.00  0.00     0.035 A 
HETATM   24  C3  UNL     1      25.759  -0.860  52.775  1.00  0.00     0.032 A 
HETATM   25  C2  UNL     1      27.011  -1.417  52.794  1.00  0.00     0.046 A 
HETATM   26  C1  UNL     1      28.086  -0.667  53.233  1.00  0.00     0.133 A 
HETATM   27  F1  UNL     1      29.349  -1.136  53.285  1.00  0.00    -0.205 F 
HETATM   28  C19 UNL     1      27.841   0.621  53.635  1.00  0.00     0.051 A 
HETATM   29  C18 UNL     1      26.563   1.118  53.591  1.00  0.00     0.051 A 
HETATM   30 BR1  UNL     1      29.266   1.712  54.250  1.00  0.00    -0.048 Br
ENDBRANCH  21  23
ENDBRANCH   1  21
TORSDOF 2
ENDMDL
MODEL 8
REMARK VINA RESULT:      -8.4      6.752      9.021
REMARK  2 active torsions:
REMARK  status: ('A' for Active; 'I' for Inactive)
REMARK    1  A    between atoms: C4_5  and  N1_6 
REMARK    2  A    between atoms: N1_6  and  C5_7 
ROOT
HETATM    1  C5  UNL     1      25.557   5.111  49.219  1.00  0.00     0.142 A 
HETATM    2  N2  UNL     1      24.238   5.269  49.053  1.00  0.00    -0.224 NA
HETATM    3  C6  UNL     1      23.816   6.304  48.306  1.00  0.00     0.236 A 
HETATM    4  N3  UNL     1      24.624   7.198  47.710  1.00  0.00    -0.240 NA
HETATM    5  C7  UNL     1      25.950   7.120  47.819  1.00  0.00     0.089 A 
HETATM    6  C8  UNL     1      26.331   6.037  48.595  1.00  0.00     0.041 A 
HETATM    7  C9  UNL     1      27.784   5.971  48.639  1.00  0.00     0.034 C 
HETATM    8  C10 UNL     1      29.050   5.707  48.366  1.00  0.00     0.084 C 
HETATM    9  N4  UNL     1      30.248   6.098  49.061  1.00  0.00    -0.397 N 
HETATM   10  C11 UNL     1      30.955   6.809  47.991  1.00  0.00     0.149 C 
HETATM   11  C12 UNL     1      30.211   7.997  47.514  1.00  0.00     0.294 C 
HETATM   12  N5  UNL     1      29.818   8.978  48.453  1.00  0.00     0.119 N 
HETATM   13  C13 UNL     1      30.784  10.013  48.733  1.00  0.00     0.301 C 
HETATM   14  C14 UNL     1      30.298  11.282  48.066  1.00  0.00     0.198 C 
HETATM   15  O1  UNL     1      29.108  11.738  48.620  1.00  0.00    -0.385 OA
HETATM   16  C15 UNL     1      28.272  10.719  49.063  1.00  0.00     0.227 C 
HETATM   17  C16 UNL     1      28.503   9.538  48.153  1.00  0.00     0.367 C 
HETATM   18  N6  UNL     1      27.488   8.535  48.263  1.00  0.00    -0.262 NA
HETATM   19  C17 UNL     1      26.856   8.105  47.199  1.00  0.00     0.145 C 
HETATM   20  H7  UNL     1      29.870   5.630  49.907  1.00  0.00     0.158 HD
ENDROOT
BRANCH   1  21
HETATM   21  N1  UNL     1      26.333   4.183  49.951  1.00  0.00    -0.340 N 
HETATM   22  H3  UNL     1      27.364   4.077  49.892  1.00  0.00     0.167 HD
BRANCH  21  23
HETATM   23  C4  UNL     1      25.826   3.246  50.881  1.00  0.00     0.035 A 
HETATM   24  C3  UNL     1      24.676   3.467  51.607  1.00  0.00     0.032 A 
HETATM   25  C2  UNL     1      24.134   2.601  52.519  1.00  0.00     0.046 A 
HETATM   26  C1  UNL     1      24.756   1.391  52.766  1.00  0.00     0.133 A 
HETATM   27  F1  UNL     1      24.291   0.482  53.647  1.00  0.00    -0.205 F 
HETATM   28  C19 UNL     1      25.907   1.114  52.073  1.00  0.00     0.051 A 
HETATM   29  C18 UNL     1      26.397   2.026  51.173  1.00  0.00     0.051 A 
HETATM   30 BR1  UNL     1      26.817  -0.525  52.358  1.00  0.00    -0.048 Br
ENDBRANCH  21  23
ENDBRANCH   1  21
TORSDOF 2
ENDMDL
MODEL 9
REMARK VINA RESULT:      -8.4      4.540      8.345
REMARK  2 active torsions:
REMARK  status: ('A' for Active; 'I' for Inactive)
REMARK    1  A    between atoms: C4_5  and  N1_6 
REMARK    2  A    between atoms: N1_6  and  C5_7 
ROOT
HETATM    1  C5  UNL     1      25.986   3.089  51.002  1.00  0.00     0.142 A 
HETATM    2  N2  UNL     1      27.020   3.488  50.250  1.00  0.00    -0.224 NA
HETATM    3  C6  UNL     1      26.767   4.313  49.220  1.00  0.00     0.236 A 
HETATM    4  N3  UNL     1      25.547   4.770  48.884  1.00  0.00    -0.240 NA
HETATM    5  C7  UNL     1      24.461   4.426  49.575  1.00  0.00     0.089 A 
HETATM    6  C8  UNL     1      24.776   3.579  50.626  1.00  0.00     0.041 A 
HETATM    7  C9  UNL     1      23.565   3.277  51.374  1.00  0.00     0.034 C 
HETATM    8  C10 UNL     1      22.564   3.317  52.237  1.00  0.00     0.084 C 
HETATM    9  N4  UNL     1      21.446   2.426  52.399  1.00  0.00    -0.397 N 
HETATM   10  C11 UNL     1      20.333   3.364  52.223  1.00  0.00     0.149 C 
HETATM   11  C12 UNL     1      20.322   3.983  50.878  1.00  0.00     0.294 C 
HETATM   12  N5  UNL     1      20.320   3.143  49.741  1.00  0.00     0.119 N 
HETATM   13  C13 UNL     1      19.026   2.712  49.272  1.00  0.00     0.301 C 
HETATM   14  C14 UNL     1      18.726   3.473  47.998  1.00  0.00     0.198 C 
HETATM   15  O1  UNL     1      19.609   3.146  46.976  1.00  0.00    -0.385 OA
HETATM   16  C15 UNL     1      20.891   2.844  47.422  1.00  0.00     0.227 C 
HETATM   17  C16 UNL     1      21.134   3.680  48.653  1.00  0.00     0.367 C 
HETATM   18  N6  UNL     1      22.513   3.737  49.032  1.00  0.00    -0.262 NA
HETATM   19  C17 UNL     1      23.109   4.891  49.211  1.00  0.00     0.145 C 
HETATM   20  H7  UNL     1      22.125   1.654  52.543  1.00  0.00     0.158 HD
ENDROOT
BRANCH   1  21
HETATM   21  N1  UNL     1      25.880   2.217  52.110  1.00  0.00    -0.340 N 
HETATM   22  H3  UNL     1      25.020   2.049  52.668  1.00  0.00     0.167 HD
BRANCH  21  23
HETATM   23  C4  UNL     1      26.933   1.434  52.639  1.00  0.00     0.035 A 
HETATM   24  C3  UNL     1      27.990   1.981  53.330  1.00  0.00     0.032 A 
HETATM   25  C2  UNL     1      29.036   1.277  53.867  1.00  0.00     0.046 A 
HETATM   26  C1  UNL     1      29.078  -0.098  53.730  1.00  0.00     0.133 A 
HETATM   27  F1  UNL     1      30.069  -0.865  54.226  1.00  0.00    -0.205 F 
HETATM   28  C19 UNL     1      28.050  -0.700  53.050  1.00  0.00     0.051 A 
HETATM   29  C18 UNL     1      27.033   0.063  52.536  1.00  0.00     0.051 A 
HETATM   30 BR1  UNL     1      28.038  -2.583  52.821  1.00  0.00    -0.048 Br
ENDBRANCH  21  23
ENDBRANCH   1  21
TORSDOF 2
ENDMDL
