MODEL 1
REMARK VINA RESULT:      -8.7      0.000      0.000
REMARK  5 active torsions:
REMARK  status: ('A' for Active; 'I' for Inactive)
REMARK    1  A    between atoms: C1_2  and  N1_3 
REMARK    2  A    between atoms: N1_3  and  C2_4 
REMARK    3  A    between atoms: C5_9  and  N4_10 
REMARK    4  A    between atoms: N4_10  and  C6_11 
REMARK    5  A    between atoms: C10_16  and  C11_17 
ROOT
HETATM    1  C6  UNL     1      24.632   0.488  53.709  1.00  0.00     0.035 C 
HETATM    2  C7  UNL     1      23.879  -0.619  53.789  1.00  0.00     0.031 C 
HETATM    3  C8  UNL     1      22.525  -1.002  53.375  1.00  0.00     0.026 C 
HETATM    4  C9  UNL     1      21.463  -0.320  52.970  1.00  0.00     0.136 C 
HETATM    5  O1  UNL     1      21.258   1.041  52.793  1.00  0.00    -0.347 OA
HETATM    6  C10 UNL     1      21.905   2.126  52.242  1.00  0.00     0.205 C 
HETATM    7  C17 UNL     1      23.295   2.372  52.597  1.00  0.00     0.047 C 
HETATM    8 CL1  UNL     1      23.743   4.029  52.138  1.00  0.00    -0.086 Cl
HETATM    9  C18 UNL     1      24.371   1.800  53.149  1.00  0.00     0.052 C 
ENDROOT
BRANCH   1  10
HETATM   10  N4  UNL     1      25.939   0.405  54.267  1.00  0.00    -0.338 N 
HETATM   11  H6  UNL     1      25.830   1.089  55.048  1.00  0.00     0.167 HD
BRANCH  10  12
HETATM   12  C5  UNL     1      27.064  -0.365  53.896  1.00  0.00     0.177 A 
HETATM   13  C2  UNL     1      28.358   0.087  54.048  1.00  0.00     0.079 A 
HETATM   14  C3  UNL     1      29.364  -0.765  53.646  1.00  0.00     0.054 A 
HETATM   15  C4  UNL     1      29.066  -2.022  53.112  1.00  0.00     0.143 A 
HETATM   16  N2  UNL     1      27.764  -2.406  52.990  1.00  0.00    -0.161 NA
HETATM   17  N3  UNL     1      26.784  -1.579  53.381  1.00  0.00    -0.130 NA
BRANCH  13  18
HETATM   18  N1  UNL     1      28.622   1.359  54.589  1.00  0.00    -0.361 N 
HETATM   19  H3  UNL     1      28.642   1.487  55.623  1.00  0.00     0.162 HD
BRANCH  18  20
HETATM   20  C1  UNL     1      28.862   2.462  53.678  1.00  0.00     0.345 C 
HETATM   21  F1  UNL     1      27.834   2.583  52.749  1.00  0.00    -0.234 F 
ENDBRANCH  18  20
ENDBRANCH  13  18
ENDBRANCH  10  12
ENDBRANCH   1  10
BRANCH   6  22
HETATM   22  C11 UNL     1      21.655   2.112  50.758  1.00  0.00    -0.021 A 
HETATM   23  C12 UNL     1      20.301   2.280  50.464  1.00  0.00     0.010 A 
HETATM   24  C13 UNL     1      19.862   2.296  49.153  1.00  0.00     0.004 A 
HETATM   25  C14 UNL     1      20.804   2.141  48.148  1.00  0.00     0.042 A 
HETATM   26  C15 UNL     1      22.149   1.974  48.442  1.00  0.00     0.117 A 
HETATM   27  F2  UNL     1      23.112   1.819  47.491  1.00  0.00    -0.206 F 
HETATM   28  C16 UNL     1      22.585   1.959  49.750  1.00  0.00     0.052 A 
ENDBRANCH   6  22
TORSDOF 5
ENDMDL
MODEL 2
REMARK VINA RESULT:      -8.4      3.320      7.698
REMARK  5 active torsions:
REMARK  status: ('A' for Active; 'I' for Inactive)
REMARK    1  A    between atoms: C1_2  and  N1_3 
REMARK    2  A    between atoms: N1_3  and  C2_4 
REMARK    3  A    between atoms: C5_9  and  N4_10 
REMARK    4  A    between atoms: N4_10  and  C6_11 
REMARK    5  A    between atoms: C10_16  and  C11_17 
ROOT
HETATM    1  C6  UNL     1      23.430   1.061  52.012  1.00  0.00     0.035 C 
HETATM    2  C7  UNL     1      24.115   1.893  51.212  1.00  0.00     0.031 C 
HETATM    3  C8  UNL     1      25.495   2.384  51.141  1.00  0.00     0.026 C 
HETATM    4  C9  UNL     1      26.520   2.363  51.980  1.00  0.00     0.136 C 
HETATM    5  O1  UNL     1      26.647   1.849  53.263  1.00  0.00    -0.347 OA
HETATM    6  C10 UNL     1      26.319   0.707  53.962  1.00  0.00     0.205 C 
HETATM    7  C17 UNL     1      24.957   0.199  53.882  1.00  0.00     0.047 C 
HETATM    8 CL1  UNL     1      24.680  -0.970  55.190  1.00  0.00    -0.086 Cl
HETATM    9  C18 UNL     1      23.825   0.291  53.175  1.00  0.00     0.052 C 
ENDROOT
BRANCH   1  10
HETATM   10  N4  UNL     1      22.056   0.870  51.696  1.00  0.00    -0.338 N 
HETATM   11  H6  UNL     1      22.020  -0.172  51.738  1.00  0.00     0.167 HD
BRANCH  10  12
HETATM   12  C5  UNL     1      21.027   1.795  51.410  1.00  0.00     0.177 A 
HETATM   13  C2  UNL     1      20.573   2.031  50.129  1.00  0.00     0.079 A 
HETATM   14  C3  UNL     1      19.564   2.960  49.990  1.00  0.00     0.054 A 
HETATM   15  C4  UNL     1      19.039   3.618  51.105  1.00  0.00     0.143 A 
HETATM   16  N2  UNL     1      19.534   3.337  52.344  1.00  0.00    -0.161 NA
HETATM   17  N3  UNL     1      20.516   2.434  52.482  1.00  0.00    -0.130 NA
BRANCH  13  18
HETATM   18  N1  UNL     1      21.124   1.350  49.029  1.00  0.00    -0.361 N 
HETATM   19  H3  UNL     1      21.101   0.308  49.001  1.00  0.00     0.162 HD
BRANCH  18  20
HETATM   20  C1  UNL     1      21.713   2.129  47.956  1.00  0.00     0.345 C 
HETATM   21  F1  UNL     1      23.094   2.216  48.093  1.00  0.00    -0.234 F 
ENDBRANCH  18  20
ENDBRANCH  13  18
ENDBRANCH  10  12
ENDBRANCH   1  10
BRANCH   6  22
HETATM   22  C11 UNL     1      27.369  -0.331  53.673  1.00  0.00    -0.021 A 
HETATM   23  C12 UNL     1      26.850  -1.394  52.933  1.00  0.00     0.010 A 
HETATM   24  C13 UNL     1      27.655  -2.455  52.563  1.00  0.00     0.004 A 
HETATM   25  C14 UNL     1      28.986  -2.429  52.951  1.00  0.00     0.042 A 
HETATM   26  C15 UNL     1      29.500  -1.372  53.687  1.00  0.00     0.117 A 
HETATM   27  F2  UNL     1      30.799  -1.299  54.090  1.00  0.00    -0.206 F 
HETATM   28  C16 UNL     1      28.695  -0.314  54.054  1.00  0.00     0.052 A 
ENDBRANCH   6  22
TORSDOF 5
ENDMDL
MODEL 3
REMARK VINA RESULT:      -8.4      6.046      7.681
REMARK  5 active torsions:
REMARK  status: ('A' for Active; 'I' for Inactive)
REMARK    1  A    between atoms: C1_2  and  N1_3 
REMARK    2  A    between atoms: N1_3  and  C2_4 
REMARK    3  A    between atoms: C5_9  and  N4_10 
REMARK    4  A    between atoms: N4_10  and  C6_11 
REMARK    5  A    between atoms: C10_16  and  C11_17 
ROOT
HETATM    1  C6  UNL     1      25.283   7.011  50.452  1.00  0.00     0.035 C 
HETATM    2  C7  UNL     1      24.077   7.561  50.661  1.00  0.00     0.031 C 
HETATM    3  C8  UNL     1      22.685   7.104  50.590  1.00  0.00     0.026 C 
HETATM    4  C9  UNL     1      22.096   6.037  50.069  1.00  0.00     0.136 C 
HETATM    5  O1  UNL     1      22.613   4.945  49.385  1.00  0.00    -0.347 OA
HETATM    6  C10 UNL     1      23.663   4.058  49.486  1.00  0.00     0.205 C 
HETATM    7  C17 UNL     1      25.007   4.579  49.689  1.00  0.00     0.047 C 
HETATM    8 CL1  UNL     1      26.198   3.310  49.333  1.00  0.00    -0.086 Cl
HETATM    9  C18 UNL     1      25.682   5.677  50.051  1.00  0.00     0.052 C 
ENDROOT
BRANCH   1  10
HETATM   10  N4  UNL     1      26.407   7.860  50.647  1.00  0.00    -0.338 N 
HETATM   11  H6  UNL     1      26.683   7.552  51.605  1.00  0.00     0.167 HD
BRANCH  10  12
HETATM   12  C5  UNL     1      26.996   8.836  49.811  1.00  0.00     0.177 A 
HETATM   13  C2  UNL     1      28.117   8.584  49.048  1.00  0.00     0.079 A 
HETATM   14  C3  UNL     1      28.590   9.624  48.277  1.00  0.00     0.054 A 
HETATM   15  C4  UNL     1      27.949  10.866  48.282  1.00  0.00     0.143 A 
HETATM   16  N2  UNL     1      26.845  11.048  49.061  1.00  0.00    -0.161 NA
HETATM   17  N3  UNL     1      26.383  10.037  49.811  1.00  0.00    -0.130 NA
BRANCH  13  18
HETATM   18  N1  UNL     1      28.737   7.321  49.067  1.00  0.00    -0.361 N 
HETATM   19  H3  UNL     1      29.250   7.009  49.918  1.00  0.00     0.162 HD
BRANCH  18  20
HETATM   20  C1  UNL     1      28.638   6.485  47.886  1.00  0.00     0.345 C 
HETATM   21  F1  UNL     1      28.571   5.137  48.223  1.00  0.00    -0.234 F 
ENDBRANCH  18  20
ENDBRANCH  13  18
ENDBRANCH  10  12
ENDBRANCH   1  10
BRANCH   6  22
HETATM   22  C11 UNL     1      23.275   2.988  50.470  1.00  0.00    -0.021 A 
HETATM   23  C12 UNL     1      23.792   3.247  51.740  1.00  0.00     0.010 A 
HETATM   24  C13 UNL     1      23.549   2.381  52.790  1.00  0.00     0.004 A 
HETATM   25  C14 UNL     1      22.780   1.254  52.540  1.00  0.00     0.042 A 
HETATM   26  C15 UNL     1      22.268   0.998  51.278  1.00  0.00     0.117 A 
HETATM   27  F2  UNL     1      21.508  -0.093  50.983  1.00  0.00    -0.206 F 
HETATM   28  C16 UNL     1      22.511   1.864  50.232  1.00  0.00     0.052 A 
ENDBRANCH   6  22
TORSDOF 5
ENDMDL
MODEL 4
REMARK VINA RESULT:      -8.3      2.478      3.655
REMARK  5 active torsions:
REMARK  status: ('A' for Active; 'I' for Inactive)
REMARK    1  A    between atoms: C1_2  and  N1_3 
REMARK    2  A    between atoms: N1_3  and  C2_4 
REMARK    3  A    between atoms: C5_9  and  N4_10 
REMARK    4  A    between atoms: N4_10  and  C6_11 
REMARK    5  A    between atoms: C10_16  and  C11_17 
ROOT
HETATM    1  C6  UNL     1      24.379   1.522  52.937  1.00  0.00     0.035 C 
HETATM    2  C7  UNL     1      24.672   2.333  51.909  1.00  0.00     0.031 C 
HETATM    3  C8  UNL     1      24.047   2.674  50.627  1.00  0.00     0.026 C 
HETATM    4  C9  UNL     1      23.074   2.132  49.908  1.00  0.00     0.136 C 
HETATM    5  O1  UNL     1      22.283   1.013  50.130  1.00  0.00    -0.347 OA
HETATM    6  C10 UNL     1      21.566   0.434  51.155  1.00  0.00     0.205 C 
HETATM    7  C17 UNL     1      22.211   0.246  52.446  1.00  0.00     0.047 C 
HETATM    8 CL1  UNL     1      21.266  -0.900  53.422  1.00  0.00    -0.086 Cl
HETATM    9  C18 UNL     1      23.267   0.624  53.175  1.00  0.00     0.052 C 
ENDROOT
BRANCH   1  10
HETATM   10  N4  UNL     1      25.307   1.508  54.015  1.00  0.00    -0.338 N 
HETATM   11  H6  UNL     1      24.642   1.638  54.809  1.00  0.00     0.167 HD
BRANCH  10  12
HETATM   12  C5  UNL     1      26.713   1.362  54.035  1.00  0.00     0.177 A 
HETATM   13  C2  UNL     1      27.335   0.134  53.949  1.00  0.00     0.079 A 
HETATM   14  C3  UNL     1      28.713   0.132  53.981  1.00  0.00     0.054 A 
HETATM   15  C4  UNL     1      29.426   1.329  54.095  1.00  0.00     0.143 A 
HETATM   16  N2  UNL     1      28.748   2.509  54.176  1.00  0.00    -0.161 NA
HETATM   17  N3  UNL     1      27.408   2.512  54.145  1.00  0.00    -0.130 NA
BRANCH  13  18
HETATM   18  N1  UNL     1      26.585  -1.051  53.835  1.00  0.00    -0.361 N 
HETATM   19  H3  UNL     1      26.168  -1.484  54.687  1.00  0.00     0.162 HD
BRANCH  18  20
HETATM   20  C1  UNL     1      26.416  -1.639  52.520  1.00  0.00     0.345 C 
HETATM   21  F1  UNL     1      26.727  -0.729  51.515  1.00  0.00    -0.234 F 
ENDBRANCH  18  20
ENDBRANCH  13  18
ENDBRANCH  10  12
ENDBRANCH   1  10
BRANCH   6  22
HETATM   22  C11 UNL     1      20.234   1.129  51.241  1.00  0.00    -0.021 A 
HETATM   23  C12 UNL     1      20.359   2.416  51.766  1.00  0.00     0.010 A 
HETATM   24  C13 UNL     1      19.248   3.222  51.928  1.00  0.00     0.004 A 
HETATM   25  C14 UNL     1      18.014   2.713  51.553  1.00  0.00     0.042 A 
HETATM   26  C15 UNL     1      17.891   1.435  51.031  1.00  0.00     0.117 A 
HETATM   27  F2  UNL     1      16.703   0.891  50.648  1.00  0.00    -0.206 F 
HETATM   28  C16 UNL     1      19.001   0.632  50.871  1.00  0.00     0.052 A 
ENDBRANCH   6  22
TORSDOF 5
ENDMDL
MODEL 5
REMARK VINA RESULT:      -8.2      3.146      4.075
REMARK  5 active torsions:
REMARK  status: ('A' for Active; 'I' for Inactive)
REMARK    1  A    between atoms: C1_2  and  N1_3 
REMARK    2  A    between atoms: N1_3  and  C2_4 
REMARK    3  A    between atoms: C5_9  and  N4_10 
REMARK    4  A    between atoms: N4_10  and  C6_11 
REMARK    5  A    between atoms: C10_16  and  C11_17 
ROOT
HETATM    1  C6  UNL     1      25.503   2.428  51.621  1.00  0.00     0.035 C 
HETATM    2  C7  UNL     1      24.349   2.446  52.306  1.00  0.00     0.031 C 
HETATM    3  C8  UNL     1      23.151   3.292  52.325  1.00  0.00     0.026 C 
HETATM    4  C9  UNL     1      22.865   4.488  51.831  1.00  0.00     0.136 C 
HETATM    5  O1  UNL     1      23.629   5.386  51.097  1.00  0.00    -0.347 OA
HETATM    6  C10 UNL     1      24.495   5.379  50.025  1.00  0.00     0.205 C 
HETATM    7  C17 UNL     1      25.589   4.419  50.009  1.00  0.00     0.047 C 
HETATM    8 CL1  UNL     1      26.790   4.905  48.793  1.00  0.00    -0.086 Cl
HETATM    9  C18 UNL     1      26.027   3.292  50.582  1.00  0.00     0.052 C 
ENDROOT
BRANCH   1  10
HETATM   10  N4  UNL     1      26.412   1.382  51.944  1.00  0.00    -0.338 N 
HETATM   11  H6  UNL     1      26.140   0.693  51.210  1.00  0.00     0.167 HD
BRANCH  10  12
HETATM   12  C5  UNL     1      27.399   1.282  52.950  1.00  0.00     0.177 A 
HETATM   13  C2  UNL     1      27.602   0.130  53.682  1.00  0.00     0.079 A 
HETATM   14  C3  UNL     1      28.599   0.167  54.633  1.00  0.00     0.054 A 
HETATM   15  C4  UNL     1      29.356   1.325  54.831  1.00  0.00     0.143 A 
HETATM   16  N2  UNL     1      29.103   2.429  54.073  1.00  0.00    -0.161 NA
HETATM   17  N3  UNL     1      28.134   2.396  53.146  1.00  0.00    -0.130 NA
BRANCH  13  18
HETATM   18  N1  UNL     1      26.821  -1.018  53.456  1.00  0.00    -0.361 N 
HETATM   19  H3  UNL     1      25.839  -1.052  53.804  1.00  0.00     0.162 HD
BRANCH  18  20
HETATM   20  C1  UNL     1      27.416  -2.129  52.738  1.00  0.00     0.345 C 
HETATM   21  F1  UNL     1      26.553  -2.623  51.765  1.00  0.00    -0.234 F 
ENDBRANCH  18  20
ENDBRANCH  13  18
ENDBRANCH  10  12
ENDBRANCH   1  10
BRANCH   6  22
HETATM   22  C11 UNL     1      23.673   5.378  48.764  1.00  0.00    -0.021 A 
HETATM   23  C12 UNL     1      23.698   6.622  48.134  1.00  0.00     0.010 A 
HETATM   24  C13 UNL     1      23.003   6.830  46.956  1.00  0.00     0.004 A 
HETATM   25  C14 UNL     1      22.286   5.768  46.428  1.00  0.00     0.042 A 
HETATM   26  C15 UNL     1      22.262   4.532  47.056  1.00  0.00     0.117 A 
HETATM   27  F2  UNL     1      21.574   3.459  46.576  1.00  0.00    -0.206 F 
HETATM   28  C16 UNL     1      22.956   4.327  48.230  1.00  0.00     0.052 A 
ENDBRANCH   6  22
TORSDOF 5
ENDMDL
MODEL 6
REMARK VINA RESULT:      -8.1      1.485      2.332
REMARK  5 active torsions:
REMARK  status: ('A' for Active; 'I' for Inactive)
REMARK    1  A    between atoms: C1_2  and  N1_3 
REMARK    2  A    between atoms: N1_3  and  C2_4 
REMARK    3  A    between atoms: C5_9  and  N4_10 
REMARK    4  A    between atoms: N4_10  and  C6_11 
REMARK    5  A    between atoms: C10_16  and  C11_17 
ROOT
HETATM    1  C6  UNL     1      24.280   1.122  53.529  1.00  0.00     0.035 C 
HETATM    2  C7  UNL     1      23.580   0.004  53.285  1.00  0.00     0.031 C 
HETATM    3  C8  UNL     1      22.386  -0.341  52.506  1.00  0.00     0.026 C 
HETATM    4  C9  UNL     1      21.423   0.373  51.940  1.00  0.00     0.136 C 
HETATM    5  O1  UNL     1      21.206   1.743  51.886  1.00  0.00    -0.347 OA
HETATM    6  C10 UNL     1      21.917   2.899  51.648  1.00  0.00     0.205 C 
HETATM    7  C17 UNL     1      23.168   3.116  52.362  1.00  0.00     0.047 C 
HETATM    8 CL1  UNL     1      23.638   4.824  52.235  1.00  0.00    -0.086 Cl
HETATM    9  C18 UNL     1      24.103   2.491  53.087  1.00  0.00     0.052 C 
ENDROOT
BRANCH   1  10
HETATM   10  N4  UNL     1      25.414   0.985  54.376  1.00  0.00    -0.338 N 
HETATM   11  H6  UNL     1      24.926   0.786  55.277  1.00  0.00     0.167 HD
BRANCH  10  12
HETATM   12  C5  UNL     1      26.798   1.083  54.105  1.00  0.00     0.177 A 
HETATM   13  C2  UNL     1      27.573  -0.012  53.785  1.00  0.00     0.079 A 
HETATM   14  C3  UNL     1      28.910   0.222  53.544  1.00  0.00     0.054 A 
HETATM   15  C4  UNL     1      29.435   1.515  53.626  1.00  0.00     0.143 A 
HETATM   16  N2  UNL     1      28.612   2.553  53.948  1.00  0.00    -0.161 NA
HETATM   17  N3  UNL     1      27.311   2.328  54.182  1.00  0.00    -0.130 NA
BRANCH  13  18
HETATM   18  N1  UNL     1      27.012  -1.300  53.711  1.00  0.00    -0.361 N 
HETATM   19  H3  UNL     1      26.843  -1.842  54.585  1.00  0.00     0.162 HD
BRANCH  18  20
HETATM   20  C1  UNL     1      26.682  -1.837  52.404  1.00  0.00     0.345 C 
HETATM   21  F1  UNL     1      26.517  -0.823  51.467  1.00  0.00    -0.234 F 
ENDBRANCH  18  20
ENDBRANCH  13  18
ENDBRANCH  10  12
ENDBRANCH   1  10
BRANCH   6  22
HETATM   22  C11 UNL     1      22.035   3.075  50.159  1.00  0.00    -0.021 A 
HETATM   23  C12 UNL     1      21.565   4.324  49.750  1.00  0.00     0.010 A 
HETATM   24  C13 UNL     1      21.586   4.682  48.415  1.00  0.00     0.004 A 
HETATM   25  C14 UNL     1      22.085   3.766  47.502  1.00  0.00     0.042 A 
HETATM   26  C15 UNL     1      22.551   2.526  47.910  1.00  0.00     0.117 A 
HETATM   27  F2  UNL     1      23.050   1.593  47.053  1.00  0.00    -0.206 F 
HETATM   28  C16 UNL     1      22.529   2.170  49.242  1.00  0.00     0.052 A 
ENDBRANCH   6  22
TORSDOF 5
ENDMDL
MODEL 7
REMARK VINA RESULT:      -8.0      3.708      7.736
REMARK  5 active torsions:
REMARK  status: ('A' for Active; 'I' for Inactive)
REMARK    1  A    between atoms: C1_2  and  N1_3 
REMARK    2  A    between atoms: N1_3  and  C2_4 
REMARK    3  A    between atoms: C5_9  and  N4_10 
REMARK    4  A    between atoms: N4_10  and  C6_11 
REMARK    5  A    between atoms: C10_16  and  C11_17 
ROOT
HETATM    1  C6  UNL     1      23.646   1.445  51.377  1.00  0.00     0.035 C 
HETATM    2  C7  UNL     1      24.477   2.265  50.716  1.00  0.00     0.031 C 
HETATM    3  C8  UNL     1      25.877   2.679  50.854  1.00  0.00     0.026 C 
HETATM    4  C9  UNL     1      26.774   2.568  51.823  1.00  0.00     0.136 C 
HETATM    5  O1  UNL     1      26.695   2.001  53.088  1.00  0.00    -0.347 OA
HETATM    6  C10 UNL     1      26.215   0.855  53.685  1.00  0.00     0.205 C 
HETATM    7  C17 UNL     1      24.853   0.430  53.398  1.00  0.00     0.047 C 
HETATM    8 CL1  UNL     1      24.337  -0.769  54.604  1.00  0.00    -0.086 Cl
HETATM    9  C18 UNL     1      23.836   0.612  52.548  1.00  0.00     0.052 C 
ENDROOT
BRANCH   1  10
HETATM   10  N4  UNL     1      22.321   1.345  50.870  1.00  0.00    -0.338 N 
HETATM   11  H6  UNL     1      22.440   0.508  50.257  1.00  0.00     0.167 HD
BRANCH  10  12
HETATM   12  C5  UNL     1      21.168   2.127  51.108  1.00  0.00     0.177 A 
HETATM   13  C2  UNL     1      20.053   1.634  51.752  1.00  0.00     0.079 A 
HETATM   14  C3  UNL     1      18.997   2.504  51.919  1.00  0.00     0.054 A 
HETATM   15  C4  UNL     1      19.073   3.819  51.451  1.00  0.00     0.143 A 
HETATM   16  N2  UNL     1      20.206   4.242  50.821  1.00  0.00    -0.161 NA
HETATM   17  N3  UNL     1      21.235   3.397  50.658  1.00  0.00    -0.130 NA
BRANCH  13  18
HETATM   18  N1  UNL     1      20.011   0.305  52.212  1.00  0.00    -0.361 N 
HETATM   19  H3  UNL     1      19.786  -0.465  51.547  1.00  0.00     0.162 HD
BRANCH  18  20
HETATM   20  C1  UNL     1      20.285   0.049  53.613  1.00  0.00     0.345 C 
HETATM   21  F1  UNL     1      20.408  -1.313  53.864  1.00  0.00    -0.234 F 
ENDBRANCH  18  20
ENDBRANCH  13  18
ENDBRANCH  10  12
ENDBRANCH   1  10
BRANCH   6  22
HETATM   22  C11 UNL     1      27.239  -0.230  53.496  1.00  0.00    -0.021 A 
HETATM   23  C12 UNL     1      26.709  -1.323  52.809  1.00  0.00     0.010 A 
HETATM   24  C13 UNL     1      27.491  -2.429  52.533  1.00  0.00     0.004 A 
HETATM   25  C14 UNL     1      28.810  -2.417  52.961  1.00  0.00     0.042 A 
HETATM   26  C15 UNL     1      29.335  -1.331  53.644  1.00  0.00     0.117 A 
HETATM   27  F2  UNL     1      30.623  -1.272  54.083  1.00  0.00    -0.206 F 
HETATM   28  C16 UNL     1      28.553  -0.229  53.917  1.00  0.00     0.052 A 
ENDBRANCH   6  22
TORSDOF 5
ENDMDL
MODEL 8
REMARK VINA RESULT:      -8.0      3.226      7.486
REMARK  5 active torsions:
REMARK  status: ('A' for Active; 'I' for Inactive)
REMARK    1  A    between atoms: C1_2  and  N1_3 
REMARK    2  A    between atoms: N1_3  and  C2_4 
REMARK    3  A    between atoms: C5_9  and  N4_10 
REMARK    4  A    between atoms: N4_10  and  C6_11 
REMARK    5  A    between atoms: C10_16  and  C11_17 
ROOT
HETATM    1  C6  UNL     1      23.256   2.410  52.499  1.00  0.00     0.035 C 
HETATM    2  C7  UNL     1      22.806   1.417  53.282  1.00  0.00     0.031 C 
HETATM    3  C8  UNL     1      23.316   0.117  53.730  1.00  0.00     0.026 C 
HETATM    4  C9  UNL     1      24.317  -0.658  53.340  1.00  0.00     0.136 C 
HETATM    5  O1  UNL     1      25.263  -0.502  52.336  1.00  0.00    -0.347 OA
HETATM    6  C10 UNL     1      26.101   0.474  51.841  1.00  0.00     0.205 C 
HETATM    7  C17 UNL     1      25.551   1.788  51.541  1.00  0.00     0.047 C 
HETATM    8 CL1  UNL     1      26.689   2.690  50.517  1.00  0.00    -0.086 Cl
HETATM    9  C18 UNL     1      24.490   2.574  51.757  1.00  0.00     0.052 C 
ENDROOT
BRANCH   1  10
HETATM   10  N4  UNL     1      22.392   3.528  52.337  1.00  0.00    -0.338 N 
HETATM   11  H6  UNL     1      22.965   4.253  52.823  1.00  0.00     0.167 HD
BRANCH  10  12
HETATM   12  C5  UNL     1      21.131   3.651  51.710  1.00  0.00     0.177 A 
HETATM   13  C2  UNL     1      20.990   4.001  50.384  1.00  0.00     0.079 A 
HETATM   14  C3  UNL     1      19.703   4.086  49.897  1.00  0.00     0.054 A 
HETATM   15  C4  UNL     1      18.608   3.825  50.725  1.00  0.00     0.143 A 
HETATM   16  N2  UNL     1      18.818   3.484  52.028  1.00  0.00    -0.161 NA
HETATM   17  N3  UNL     1      20.070   3.401  52.503  1.00  0.00    -0.130 NA
BRANCH  13  18
HETATM   18  N1  UNL     1      22.116   4.256  49.579  1.00  0.00    -0.361 N 
HETATM   19  H3  UNL     1      22.722   5.079  49.784  1.00  0.00     0.162 HD
BRANCH  18  20
HETATM   20  C1  UNL     1      22.397   3.356  48.477  1.00  0.00     0.345 C 
HETATM   21  F1  UNL     1      22.903   2.143  48.931  1.00  0.00    -0.234 F 
ENDBRANCH  18  20
ENDBRANCH  13  18
ENDBRANCH  10  12
ENDBRANCH   1  10
BRANCH   6  22
HETATM   22  C11 UNL     1      27.328   0.517  52.710  1.00  0.00    -0.021 A 
HETATM   23  C12 UNL     1      27.877  -0.754  52.888  1.00  0.00     0.010 A 
HETATM   24  C13 UNL     1      29.012  -0.930  53.657  1.00  0.00     0.004 A 
HETATM   25  C14 UNL     1      29.583   0.190  54.241  1.00  0.00     0.042 A 
HETATM   26  C15 UNL     1      29.037   1.452  54.064  1.00  0.00     0.117 A 
HETATM   27  F2  UNL     1      29.561   2.581  54.616  1.00  0.00    -0.206 F 
HETATM   28  C16 UNL     1      27.905   1.626  53.296  1.00  0.00     0.052 A 
ENDBRANCH   6  22
TORSDOF 5
ENDMDL
MODEL 9
REMARK VINA RESULT:      -7.7      2.928      3.991
REMARK  5 active torsions:
REMARK  status: ('A' for Active; 'I' for Inactive)
REMARK    1  A    between atoms: C1_2  and  N1_3 
REMARK    2  A    between atoms: N1_3  and  C2_4 
REMARK    3  A    between atoms: C5_9  and  N4_10 
REMARK    4  A    between atoms: N4_10  and  C6_11 
REMARK    5  A    between atoms: C10_16  and  C11_17 
ROOT
HETATM    1  C6  UNL     1      24.934   2.795  52.338  1.00  0.00     0.035 C 
HETATM    2  C7  UNL     1      25.687   3.083  51.266  1.00  0.00     0.031 C 
HETATM    3  C8  UNL     1      25.432   3.439  49.867  1.00  0.00     0.026 C 
HETATM    4  C9  UNL     1      24.362   3.384  49.087  1.00  0.00     0.136 C 
HETATM    5  O1  UNL     1      23.065   2.954  49.336  1.00  0.00    -0.347 OA
HETATM    6  C10 UNL     1      22.095   3.086  50.306  1.00  0.00     0.205 C 
HETATM    7  C17 UNL     1      22.453   2.845  51.696  1.00  0.00     0.047 C 
HETATM    8 CL1  UNL     1      20.977   2.632  52.662  1.00  0.00    -0.086 Cl
HETATM    9  C18 UNL     1      23.498   2.724  52.522  1.00  0.00     0.052 C 
ENDROOT
BRANCH   1  10
HETATM   10  N4  UNL     1      25.634   2.497  53.540  1.00  0.00    -0.338 N 
HETATM   11  H6  UNL     1      24.984   2.942  54.226  1.00  0.00     0.167 HD
BRANCH  10  12
HETATM   12  C5  UNL     1      26.845   1.805  53.768  1.00  0.00     0.177 A 
HETATM   13  C2  UNL     1      26.958   0.437  53.633  1.00  0.00     0.079 A 
HETATM   14  C3  UNL     1      28.198  -0.111  53.885  1.00  0.00     0.054 A 
HETATM   15  C4  UNL     1      29.274   0.698  54.260  1.00  0.00     0.143 A 
HETATM   16  N2  UNL     1      29.093   2.044  54.376  1.00  0.00    -0.161 NA
HETATM   17  N3  UNL     1      27.888   2.580  54.130  1.00  0.00    -0.130 NA
BRANCH  13  18
HETATM   18  N1  UNL     1      25.854  -0.347  53.253  1.00  0.00    -0.361 N 
HETATM   19  H3  UNL     1      25.724  -0.608  52.253  1.00  0.00     0.162 HD
BRANCH  18  20
HETATM   20  C1  UNL     1      24.921  -0.770  54.280  1.00  0.00     0.345 C 
HETATM   21  F1  UNL     1      23.668  -0.196  54.094  1.00  0.00    -0.234 F 
ENDBRANCH  18  20
ENDBRANCH  13  18
ENDBRANCH  10  12
ENDBRANCH   1  10
BRANCH   6  22
HETATM   22  C11 UNL     1      21.390   4.396  50.082  1.00  0.00    -0.021 A 
HETATM   23  C12 UNL     1      20.346   4.269  49.165  1.00  0.00     0.010 A 
HETATM   24  C13 UNL     1      19.572   5.361  48.822  1.00  0.00     0.004 A 
HETATM   25  C14 UNL     1      19.866   6.580  49.414  1.00  0.00     0.042 A 
HETATM   26  C15 UNL     1      20.904   6.706  50.325  1.00  0.00     0.117 A 
HETATM   27  F2  UNL     1      21.231   7.879  50.933  1.00  0.00    -0.206 F 
HETATM   28  C16 UNL     1      21.675   5.614  50.666  1.00  0.00     0.052 A 
ENDBRANCH   6  22
TORSDOF 5
ENDMDL
