MODEL 1
REMARK VINA RESULT:      -9.6      0.000      0.000
REMARK  5 active torsions:
REMARK  status: ('A' for Active; 'I' for Inactive)
REMARK    1  A    between atoms: C3_3  and  C4_4 
REMARK    2  A    between atoms: C4_4  and  C5_5 
REMARK    3  A    between atoms: C5_5  and  C6_6 
REMARK    4  A    between atoms: C6_6  and  O2_8 
REMARK    5  A    between atoms: C9_12  and  C10_13 
ROOT
HETATM    1  C10 UNL     1      18.266   0.210  51.113  1.00  0.00     0.047 C 
HETATM    2  C11 UNL     1      19.059  -0.105  52.113  1.00  0.00     0.044 A 
HETATM    3  C12 UNL     1      18.762  -0.842  53.331  1.00  0.00     0.257 A 
HETATM    4  O3  UNL     1      17.672  -1.339  53.703  1.00  0.00    -0.267 OA
HETATM    5  N2  UNL     1      19.929  -0.955  54.134  1.00  0.00    -0.322 N 
HETATM    6  C13 UNL     1      20.913  -0.275  53.370  1.00  0.00     0.047 A 
HETATM    7  C14 UNL     1      22.258  -0.056  53.647  1.00  0.00     0.042 A 
HETATM    8  C15 UNL     1      23.138   0.623  52.830  1.00  0.00    -0.024 A 
HETATM    9  C16 UNL     1      24.524   0.798  53.206  1.00  0.00    -0.026 A 
HETATM   10  C17 UNL     1      25.324   1.864  52.876  1.00  0.00     0.012 A 
HETATM   11  C18 UNL     1      26.637   1.890  53.311  1.00  0.00     0.001 A 
HETATM   12  C19 UNL     1      27.201   0.874  54.080  1.00  0.00     0.000 A 
HETATM   13  C20 UNL     1      26.407  -0.182  54.407  1.00  0.00     0.001 A 
HETATM   14  C21 UNL     1      25.084  -0.221  53.975  1.00  0.00     0.012 A 
HETATM   15  C22 UNL     1      22.657   1.131  51.642  1.00  0.00     0.013 A 
HETATM   16  C23 UNL     1      21.325   0.928  51.344  1.00  0.00     0.015 A 
HETATM   17  C24 UNL     1      20.471   0.242  52.185  1.00  0.00     0.006 A 
HETATM   18  H16 UNL     1      20.068  -1.414  55.059  1.00  0.00     0.169 HD
ENDROOT
BRANCH   1  19
HETATM   19  C9  UNL     1      16.880   0.064  50.665  1.00  0.00     0.344 C 
HETATM   20  N1  UNL     1      16.545   0.974  49.582  1.00  0.00     0.110 N 
HETATM   21  C8  UNL     1      16.332   2.319  50.059  1.00  0.00     0.277 C 
HETATM   22  H13 UNL     1      15.696   0.586  49.114  1.00  0.00     0.319 HD
HETATM   23  C7  UNL     1      14.809   2.529  50.085  1.00  0.00     0.066 C 
HETATM   24  C3  UNL     1      14.331   1.939  51.360  1.00  0.00    -0.056 C 
HETATM   25  C2  UNL     1      14.773   0.904  52.069  1.00  0.00     0.005 C 
HETATM   26  C1  UNL     1      14.123   0.534  53.353  1.00  0.00     0.068 C 
HETATM   27  N3  UNL     1      15.878   0.047  51.691  1.00  0.00    -0.361 N 
HETATM   28  H25 UNL     1      15.999  -0.821  52.296  1.00  0.00     0.161 HD
BRANCH  24  29
HETATM   29  C4  UNL     1      13.192   2.555  52.053  1.00  0.00     0.046 C 
BRANCH  29  30
HETATM   30  C5  UNL     1      13.364   3.947  52.538  1.00  0.00     0.114 C 
BRANCH  30  31
HETATM   31  C6  UNL     1      14.652   4.291  53.170  1.00  0.00     0.139 C 
HETATM   32  O1  UNL     1      15.899   4.384  53.053  1.00  0.00    -0.650 OA
BRANCH  31  33
HETATM   33  O2  UNL     1      14.395   4.695  54.472  1.00  0.00    -0.776 OA
HETATM   34  H8  UNL     1      14.788   4.336  55.322  1.00  0.00     0.167 HD
ENDBRANCH  31  33
ENDBRANCH  30  31
ENDBRANCH  29  30
ENDBRANCH  24  29
ENDBRANCH   1  19
TORSDOF 5
ENDMDL
MODEL 2
REMARK VINA RESULT:      -9.3      1.308      1.900
REMARK  5 active torsions:
REMARK  status: ('A' for Active; 'I' for Inactive)
REMARK    1  A    between atoms: C3_3  and  C4_4 
REMARK    2  A    between atoms: C4_4  and  C5_5 
REMARK    3  A    between atoms: C5_5  and  C6_6 
REMARK    4  A    between atoms: C6_6  and  O2_8 
REMARK    5  A    between atoms: C9_12  and  C10_13 
ROOT
HETATM    1  C10 UNL     1      20.199   0.979  50.667  1.00  0.00     0.047 C 
HETATM    2  C11 UNL     1      20.910   0.550  51.686  1.00  0.00     0.044 A 
HETATM    3  C12 UNL     1      20.507  -0.277  52.812  1.00  0.00     0.257 A 
HETATM    4  O3  UNL     1      19.379  -0.765  53.065  1.00  0.00    -0.267 OA
HETATM    5  N2  UNL     1      21.611  -0.502  53.678  1.00  0.00    -0.322 N 
HETATM    6  C13 UNL     1      22.666   0.205  53.044  1.00  0.00     0.047 A 
HETATM    7  C14 UNL     1      23.996   0.350  53.428  1.00  0.00     0.042 A 
HETATM    8  C15 UNL     1      24.951   1.064  52.735  1.00  0.00    -0.024 A 
HETATM    9  C16 UNL     1      26.311   1.156  53.216  1.00  0.00    -0.026 A 
HETATM   10  C17 UNL     1      27.165   2.216  53.035  1.00  0.00     0.012 A 
HETATM   11  C18 UNL     1      28.444   2.157  53.557  1.00  0.00     0.001 A 
HETATM   12  C19 UNL     1      28.923   1.059  54.269  1.00  0.00     0.000 A 
HETATM   13  C20 UNL     1      28.076   0.008  54.448  1.00  0.00     0.001 A 
HETATM   14  C21 UNL     1      26.785   0.054  53.927  1.00  0.00     0.012 A 
HETATM   15  C22 UNL     1      24.569   1.690  51.566  1.00  0.00     0.013 A 
HETATM   16  C23 UNL     1      23.255   1.562  51.164  1.00  0.00     0.015 A 
HETATM   17  C24 UNL     1      22.324   0.838  51.882  1.00  0.00     0.006 A 
HETATM   18  H16 UNL     1      21.672  -1.044  54.566  1.00  0.00     0.169 HD
ENDROOT
BRANCH   1  19
HETATM   19  C9  UNL     1      18.843   0.921  50.117  1.00  0.00     0.344 C 
HETATM   20  N1  UNL     1      18.425   2.186  49.534  1.00  0.00     0.110 N 
HETATM   21  C8  UNL     1      18.060   3.148  50.545  1.00  0.00     0.277 C 
HETATM   22  H13 UNL     1      17.630   1.973  48.891  1.00  0.00     0.319 HD
HETATM   23  C7  UNL     1      16.523   3.183  50.568  1.00  0.00     0.066 C 
HETATM   24  C3  UNL     1      16.095   2.043  51.416  1.00  0.00    -0.056 C 
HETATM   25  C2  UNL     1      16.639   0.846  51.617  1.00  0.00     0.005 C 
HETATM   26  C1  UNL     1      16.016  -0.119  52.560  1.00  0.00     0.068 C 
HETATM   27  N3  UNL     1      17.835   0.354  50.965  1.00  0.00    -0.361 N 
HETATM   28  H25 UNL     1      18.043  -0.678  51.127  1.00  0.00     0.161 HD
BRANCH  24  29
HETATM   29  C4  UNL     1      14.887   2.174  52.240  1.00  0.00     0.046 C 
BRANCH  29  30
HETATM   30  C5  UNL     1      14.152   3.461  52.167  1.00  0.00     0.114 C 
BRANCH  30  31
HETATM   31  C6  UNL     1      13.955   4.201  53.429  1.00  0.00     0.139 C 
HETATM   32  O1  UNL     1      13.145   4.703  54.248  1.00  0.00    -0.650 OA
BRANCH  31  33
HETATM   33  O2  UNL     1      15.204   4.470  53.967  1.00  0.00    -0.776 OA
HETATM   34  H8  UNL     1      15.482   4.449  54.931  1.00  0.00     0.167 HD
ENDBRANCH  31  33
ENDBRANCH  30  31
ENDBRANCH  29  30
ENDBRANCH  24  29
ENDBRANCH   1  19
TORSDOF 5
ENDMDL
MODEL 3
REMARK VINA RESULT:      -9.1      2.404      3.440
REMARK  5 active torsions:
REMARK  status: ('A' for Active; 'I' for Inactive)
REMARK    1  A    between atoms: C3_3  and  C4_4 
REMARK    2  A    between atoms: C4_4  and  C5_5 
REMARK    3  A    between atoms: C5_5  and  C6_6 
REMARK    4  A    between atoms: C6_6  and  O2_8 
REMARK    5  A    between atoms: C9_12  and  C10_13 
ROOT
HETATM    1  C10 UNL     1      20.589   1.334  50.662  1.00  0.00     0.047 C 
HETATM    2  C11 UNL     1      21.807   1.797  50.495  1.00  0.00     0.044 A 
HETATM    3  C12 UNL     1      22.318   2.713  49.487  1.00  0.00     0.257 A 
HETATM    4  O3  UNL     1      21.705   3.265  48.543  1.00  0.00    -0.267 OA
HETATM    5  N2  UNL     1      23.706   2.945  49.692  1.00  0.00    -0.322 N 
HETATM    6  C13 UNL     1      24.000   2.153  50.832  1.00  0.00     0.047 A 
HETATM    7  C14 UNL     1      25.205   1.975  51.504  1.00  0.00     0.042 A 
HETATM    8  C15 UNL     1      25.387   1.176  52.613  1.00  0.00    -0.024 A 
HETATM    9  C16 UNL     1      26.683   1.056  53.244  1.00  0.00    -0.026 A 
HETATM   10  C17 UNL     1      27.167  -0.050  53.897  1.00  0.00     0.012 A 
HETATM   11  C18 UNL     1      28.433  -0.013  54.454  1.00  0.00     0.001 A 
HETATM   12  C19 UNL     1      29.258   1.108  54.385  1.00  0.00     0.000 A 
HETATM   13  C20 UNL     1      28.778   2.204  53.737  1.00  0.00     0.001 A 
HETATM   14  C21 UNL     1      27.505   2.180  53.172  1.00  0.00     0.012 A 
HETATM   15  C22 UNL     1      24.294   0.492  53.104  1.00  0.00     0.013 A 
HETATM   16  C23 UNL     1      23.087   0.651  52.455  1.00  0.00     0.015 A 
HETATM   17  C24 UNL     1      22.940   1.461  51.346  1.00  0.00     0.006 A 
HETATM   18  H16 UNL     1      24.375   3.541  49.159  1.00  0.00     0.169 HD
ENDROOT
BRANCH   1  19
HETATM   19  C9  UNL     1      19.248   1.415  50.080  1.00  0.00     0.344 C 
HETATM   20  N1  UNL     1      18.856   2.780  49.770  1.00  0.00     0.110 N 
HETATM   21  C8  UNL     1      18.473   3.509  50.954  1.00  0.00     0.277 C 
HETATM   22  H13 UNL     1      18.077   2.721  49.078  1.00  0.00     0.319 HD
HETATM   23  C7  UNL     1      16.936   3.560  50.948  1.00  0.00     0.066 C 
HETATM   24  C3  UNL     1      16.476   2.272  51.522  1.00  0.00    -0.056 C 
HETATM   25  C2  UNL     1      17.004   1.052  51.475  1.00  0.00     0.005 C 
HETATM   26  C1  UNL     1      16.348  -0.083  52.175  1.00  0.00     0.068 C 
HETATM   27  N3  UNL     1      18.213   0.694  50.763  1.00  0.00    -0.361 N 
HETATM   28  H25 UNL     1      18.407  -0.352  50.705  1.00  0.00     0.161 HD
BRANCH  24  29
HETATM   29  C4  UNL     1      15.248   2.241  52.326  1.00  0.00     0.046 C 
BRANCH  29  30
HETATM   30  C5  UNL     1      14.305   3.376  52.169  1.00  0.00     0.114 C 
BRANCH  30  31
HETATM   31  C6  UNL     1      14.004   4.178  53.371  1.00  0.00     0.139 C 
HETATM   32  O1  UNL     1      13.130   4.724  54.090  1.00  0.00    -0.650 OA
BRANCH  31  33
HETATM   33  O2  UNL     1      15.204   4.468  54.004  1.00  0.00    -0.776 OA
HETATM   34  H8  UNL     1      16.071   4.753  53.588  1.00  0.00     0.167 HD
ENDBRANCH  31  33
ENDBRANCH  30  31
ENDBRANCH  29  30
ENDBRANCH  24  29
ENDBRANCH   1  19
TORSDOF 5
ENDMDL
MODEL 4
REMARK VINA RESULT:      -9.0      9.244     13.089
REMARK  5 active torsions:
REMARK  status: ('A' for Active; 'I' for Inactive)
REMARK    1  A    between atoms: C3_3  and  C4_4 
REMARK    2  A    between atoms: C4_4  and  C5_5 
REMARK    3  A    between atoms: C5_5  and  C6_6 
REMARK    4  A    between atoms: C6_6  and  O2_8 
REMARK    5  A    between atoms: C9_12  and  C10_13 
ROOT
HETATM    1  C10 UNL     1      28.727   6.407  47.840  1.00  0.00     0.047 C 
HETATM    2  C11 UNL     1      27.620   6.542  48.535  1.00  0.00     0.044 A 
HETATM    3  C12 UNL     1      26.905   7.752  48.909  1.00  0.00     0.257 A 
HETATM    4  O3  UNL     1      27.192   8.946  48.653  1.00  0.00    -0.267 OA
HETATM    5  N2  UNL     1      25.744   7.426  49.661  1.00  0.00    -0.322 N 
HETATM    6  C13 UNL     1      25.789   6.009  49.723  1.00  0.00     0.047 A 
HETATM    7  C14 UNL     1      24.912   5.117  50.333  1.00  0.00     0.042 A 
HETATM    8  C15 UNL     1      25.046   3.744  50.335  1.00  0.00    -0.024 A 
HETATM    9  C16 UNL     1      24.078   2.899  50.997  1.00  0.00    -0.026 A 
HETATM   10  C17 UNL     1      24.333   1.689  51.593  1.00  0.00     0.012 A 
HETATM   11  C18 UNL     1      23.298   0.992  52.190  1.00  0.00     0.001 A 
HETATM   12  C19 UNL     1      21.986   1.462  52.219  1.00  0.00     0.000 A 
HETATM   13  C20 UNL     1      21.734   2.662  51.629  1.00  0.00     0.001 A 
HETATM   14  C21 UNL     1      22.768   3.374  51.024  1.00  0.00     0.012 A 
HETATM   15  C22 UNL     1      26.134   3.200  49.684  1.00  0.00     0.013 A 
HETATM   16  C23 UNL     1      27.020   4.063  49.072  1.00  0.00     0.015 A 
HETATM   17  C24 UNL     1      26.855   5.434  49.089  1.00  0.00     0.006 A 
HETATM   18  H16 UNL     1      25.017   8.043  50.080  1.00  0.00     0.169 HD
ENDROOT
BRANCH   1  19
HETATM   19  C9  UNL     1      29.740   7.201  47.142  1.00  0.00     0.344 C 
HETATM   20  N1  UNL     1      30.935   7.409  47.945  1.00  0.00     0.110 N 
HETATM   21  C8  UNL     1      30.730   8.416  48.958  1.00  0.00     0.277 C 
HETATM   22  H13 UNL     1      31.701   7.669  47.284  1.00  0.00     0.319 HD
HETATM   23  C7  UNL     1      31.418   9.690  48.442  1.00  0.00     0.066 C 
HETATM   24  C3  UNL     1      30.453  10.339  47.521  1.00  0.00    -0.056 C 
HETATM   25  C2  UNL     1      29.530   9.825  46.713  1.00  0.00     0.005 C 
HETATM   26  C1  UNL     1      28.654  10.712  45.904  1.00  0.00     0.068 C 
HETATM   27  N3  UNL     1      29.285   8.410  46.520  1.00  0.00    -0.361 N 
HETATM   28  H25 UNL     1      28.616   8.174  45.726  1.00  0.00     0.161 HD
BRANCH  24  29
HETATM   29  C4  UNL     1      30.411  11.804  47.439  1.00  0.00     0.046 C 
BRANCH  29  30
HETATM   30  C5  UNL     1      30.137  12.547  48.694  1.00  0.00     0.114 C 
BRANCH  30  31
HETATM   31  C6  UNL     1      28.724  12.783  49.047  1.00  0.00     0.139 C 
HETATM   32  O1  UNL     1      27.752  13.579  49.054  1.00  0.00    -0.650 OA
BRANCH  31  33
HETATM   33  O2  UNL     1      28.229  11.626  49.630  1.00  0.00    -0.776 OA
HETATM   34  H8  UNL     1      28.241  11.365  50.598  1.00  0.00     0.167 HD
ENDBRANCH  31  33
ENDBRANCH  30  31
ENDBRANCH  29  30
ENDBRANCH  24  29
ENDBRANCH   1  19
TORSDOF 5
ENDMDL
MODEL 5
REMARK VINA RESULT:      -8.9      3.731      9.745
REMARK  5 active torsions:
REMARK  status: ('A' for Active; 'I' for Inactive)
REMARK    1  A    between atoms: C3_3  and  C4_4 
REMARK    2  A    between atoms: C4_4  and  C5_5 
REMARK    3  A    between atoms: C5_5  and  C6_6 
REMARK    4  A    between atoms: C6_6  and  O2_8 
REMARK    5  A    between atoms: C9_12  and  C10_13 
ROOT
HETATM    1  C10 UNL     1      21.994   1.442  52.526  1.00  0.00     0.047 C 
HETATM    2  C11 UNL     1      20.977   0.667  52.833  1.00  0.00     0.044 A 
HETATM    3  C12 UNL     1      20.758  -0.144  54.020  1.00  0.00     0.257 A 
HETATM    4  O3  UNL     1      21.500  -0.289  55.021  1.00  0.00    -0.267 OA
HETATM    5  N2  UNL     1      19.511  -0.820  53.931  1.00  0.00    -0.322 N 
HETATM    6  C13 UNL     1      19.003  -0.394  52.676  1.00  0.00     0.047 A 
HETATM    7  C14 UNL     1      17.810  -0.725  52.041  1.00  0.00     0.042 A 
HETATM    8  C15 UNL     1      17.406  -0.251  50.810  1.00  0.00    -0.024 A 
HETATM    9  C16 UNL     1      16.143  -0.654  50.232  1.00  0.00    -0.026 A 
HETATM   10  C17 UNL     1      15.870  -0.784  48.893  1.00  0.00     0.012 A 
HETATM   11  C18 UNL     1      14.607  -1.180  48.491  1.00  0.00     0.001 A 
HETATM   12  C19 UNL     1      13.578  -1.458  49.388  1.00  0.00     0.000 A 
HETATM   13  C20 UNL     1      13.850  -1.329  50.716  1.00  0.00     0.001 A 
HETATM   14  C21 UNL     1      15.117  -0.931  51.134  1.00  0.00     0.012 A 
HETATM   15  C22 UNL     1      18.244   0.619  50.145  1.00  0.00     0.013 A 
HETATM   16  C23 UNL     1      19.434   0.963  50.753  1.00  0.00     0.015 A 
HETATM   17  C24 UNL     1      19.808   0.470  51.988  1.00  0.00     0.006 A 
HETATM   18  H16 UNL     1      19.050  -1.473  54.599  1.00  0.00     0.169 HD
ENDROOT
BRANCH   1  19
HETATM   19  C9  UNL     1      23.281   1.898  53.054  1.00  0.00     0.344 C 
HETATM   20  N1  UNL     1      24.085   2.577  52.051  1.00  0.00     0.110 N 
HETATM   21  C8  UNL     1      24.700   1.646  51.137  1.00  0.00     0.277 C 
HETATM   22  H13 UNL     1      24.794   3.145  52.567  1.00  0.00     0.319 HD
HETATM   23  C7  UNL     1      26.172   1.531  51.567  1.00  0.00     0.066 C 
HETATM   24  C3  UNL     1      26.203   0.549  52.679  1.00  0.00    -0.056 C 
HETATM   25  C2  UNL     1      25.311   0.264  53.624  1.00  0.00     0.005 C 
HETATM   26  C1  UNL     1      25.579  -0.807  54.619  1.00  0.00     0.068 C 
HETATM   27  N3  UNL     1      24.040   0.937  53.800  1.00  0.00    -0.361 N 
HETATM   28  H25 UNL     1      23.520   0.686  54.695  1.00  0.00     0.161 HD
BRANCH  24  29
HETATM   29  C4  UNL     1      27.369  -0.331  52.828  1.00  0.00     0.046 C 
BRANCH  29  30
HETATM   30  C5  UNL     1      28.692   0.318  52.997  1.00  0.00     0.114 C 
BRANCH  30  31
HETATM   31  C6  UNL     1      28.810   1.357  54.038  1.00  0.00     0.139 C 
HETATM   32  O1  UNL     1      28.984   2.572  54.308  1.00  0.00    -0.650 OA
BRANCH  31  33
HETATM   33  O2  UNL     1      28.666   0.744  55.273  1.00  0.00    -0.776 OA
HETATM   34  H8  UNL     1      29.383   0.370  55.868  1.00  0.00     0.167 HD
ENDBRANCH  31  33
ENDBRANCH  30  31
ENDBRANCH  29  30
ENDBRANCH  24  29
ENDBRANCH   1  19
TORSDOF 5
ENDMDL
MODEL 6
REMARK VINA RESULT:      -8.8      8.626     12.475
REMARK  5 active torsions:
REMARK  status: ('A' for Active; 'I' for Inactive)
REMARK    1  A    between atoms: C3_3  and  C4_4 
REMARK    2  A    between atoms: C4_4  and  C5_5 
REMARK    3  A    between atoms: C5_5  and  C6_6 
REMARK    4  A    between atoms: C6_6  and  O2_8 
REMARK    5  A    between atoms: C9_12  and  C10_13 
ROOT
HETATM    1  C10 UNL     1      27.546   5.629  48.526  1.00  0.00     0.047 C 
HETATM    2  C11 UNL     1      26.346   5.364  48.992  1.00  0.00     0.044 A 
HETATM    3  C12 UNL     1      25.105   6.104  48.824  1.00  0.00     0.257 A 
HETATM    4  O3  UNL     1      24.905   7.171  48.196  1.00  0.00    -0.267 OA
HETATM    5  N2  UNL     1      24.044   5.445  49.502  1.00  0.00    -0.322 N 
HETATM    6  C13 UNL     1      24.680   4.310  50.069  1.00  0.00     0.047 A 
HETATM    7  C14 UNL     1      24.146   3.289  50.849  1.00  0.00     0.042 A 
HETATM    8  C15 UNL     1      24.856   2.220  51.354  1.00  0.00    -0.024 A 
HETATM    9  C16 UNL     1      24.210   1.205  52.156  1.00  0.00    -0.026 A 
HETATM   10  C17 UNL     1      24.789   0.481  53.169  1.00  0.00     0.012 A 
HETATM   11  C18 UNL     1      24.039  -0.461  53.849  1.00  0.00     0.001 A 
HETATM   12  C19 UNL     1      22.701  -0.720  53.555  1.00  0.00     0.000 A 
HETATM   13  C20 UNL     1      22.127  -0.002  52.551  1.00  0.00     0.001 A 
HETATM   14  C21 UNL     1      22.872   0.950  51.859  1.00  0.00     0.012 A 
HETATM   15  C22 UNL     1      26.205   2.147  51.072  1.00  0.00     0.013 A 
HETATM   16  C23 UNL     1      26.758   3.148  50.301  1.00  0.00     0.015 A 
HETATM   17  C24 UNL     1      26.018   4.205  49.810  1.00  0.00     0.006 A 
HETATM   18  H16 UNL     1      23.037   5.700  49.586  1.00  0.00     0.169 HD
ENDROOT
BRANCH   1  19
HETATM   19  C9  UNL     1      28.264   6.615  47.715  1.00  0.00     0.344 C 
HETATM   20  N1  UNL     1      29.695   6.364  47.671  1.00  0.00     0.110 N 
HETATM   21  C8  UNL     1      30.348   6.774  48.891  1.00  0.00     0.277 C 
HETATM   22  H13 UNL     1      30.066   6.874  46.839  1.00  0.00     0.319 HD
HETATM   23  C7  UNL     1      31.043   8.109  48.577  1.00  0.00     0.066 C 
HETATM   24  C3  UNL     1      30.004   9.159  48.713  1.00  0.00    -0.056 C 
HETATM   25  C2  UNL     1      28.694   9.133  48.482  1.00  0.00     0.005 C 
HETATM   26  C1  UNL     1      27.857  10.335  48.733  1.00  0.00     0.068 C 
HETATM   27  N3  UNL     1      27.960   7.993  47.972  1.00  0.00    -0.361 N 
HETATM   28  H25 UNL     1      26.949   8.193  47.703  1.00  0.00     0.161 HD
BRANCH  24  29
HETATM   29  C4  UNL     1      30.384  10.487  49.211  1.00  0.00     0.046 C 
BRANCH  29  30
HETATM   30  C5  UNL     1      31.353  11.265  48.400  1.00  0.00     0.114 C 
BRANCH  30  31
HETATM   31  C6  UNL     1      30.957  11.615  47.023  1.00  0.00     0.139 C 
HETATM   32  O1  UNL     1      30.073  11.575  46.131  1.00  0.00    -0.650 OA
BRANCH  31  33
HETATM   33  O2  UNL     1      32.014  12.291  46.432  1.00  0.00    -0.776 OA
HETATM   34  H8  UNL     1      32.514  12.051  45.595  1.00  0.00     0.167 HD
ENDBRANCH  31  33
ENDBRANCH  30  31
ENDBRANCH  29  30
ENDBRANCH  24  29
ENDBRANCH   1  19
TORSDOF 5
ENDMDL
MODEL 7
REMARK VINA RESULT:      -8.8      4.576      8.796
REMARK  5 active torsions:
REMARK  status: ('A' for Active; 'I' for Inactive)
REMARK    1  A    between atoms: C3_3  and  C4_4 
REMARK    2  A    between atoms: C4_4  and  C5_5 
REMARK    3  A    between atoms: C5_5  and  C6_6 
REMARK    4  A    between atoms: C6_6  and  O2_8 
REMARK    5  A    between atoms: C9_12  and  C10_13 
ROOT
HETATM    1  C10 UNL     1      19.538   1.382  52.226  1.00  0.00     0.047 C 
HETATM    2  C11 UNL     1      19.556   0.231  52.861  1.00  0.00     0.044 A 
HETATM    3  C12 UNL     1      20.573  -0.324  53.740  1.00  0.00     0.257 A 
HETATM    4  O3  UNL     1      21.670   0.176  54.087  1.00  0.00    -0.267 OA
HETATM    5  N2  UNL     1      20.171  -1.602  54.213  1.00  0.00    -0.322 N 
HETATM    6  C13 UNL     1      18.905  -1.789  53.599  1.00  0.00     0.047 A 
HETATM    7  C14 UNL     1      18.024  -2.861  53.687  1.00  0.00     0.042 A 
HETATM    8  C15 UNL     1      16.806  -2.945  53.044  1.00  0.00    -0.024 A 
HETATM    9  C16 UNL     1      15.957  -4.105  53.200  1.00  0.00    -0.026 A 
HETATM   10  C17 UNL     1      15.095  -4.611  52.259  1.00  0.00     0.012 A 
HETATM   11  C18 UNL     1      14.343  -5.733  52.556  1.00  0.00     0.001 A 
HETATM   12  C19 UNL     1      14.416  -6.391  53.783  1.00  0.00     0.000 A 
HETATM   13  C20 UNL     1      15.271  -5.890  54.716  1.00  0.00     0.001 A 
HETATM   14  C21 UNL     1      16.033  -4.760  54.429  1.00  0.00     0.012 A 
HETATM   15  C22 UNL     1      16.421  -1.888  52.246  1.00  0.00     0.013 A 
HETATM   16  C23 UNL     1      17.278  -0.812  52.142  1.00  0.00     0.015 A 
HETATM   17  C24 UNL     1      18.491  -0.760  52.800  1.00  0.00     0.006 A 
HETATM   18  H16 UNL     1      20.656  -2.267  54.852  1.00  0.00     0.169 HD
ENDROOT
BRANCH   1  19
HETATM   19  C9  UNL     1      20.342   2.589  52.029  1.00  0.00     0.344 C 
HETATM   20  N1  UNL     1      20.320   3.055  50.652  1.00  0.00     0.110 N 
HETATM   21  C8  UNL     1      21.169   2.255  49.803  1.00  0.00     0.277 C 
HETATM   22  H13 UNL     1      20.614   4.057  50.667  1.00  0.00     0.319 HD
HETATM   23  C7  UNL     1      22.446   3.081  49.572  1.00  0.00     0.066 C 
HETATM   24  C3  UNL     1      23.310   2.846  50.755  1.00  0.00    -0.056 C 
HETATM   25  C2  UNL     1      23.010   2.609  52.029  1.00  0.00     0.005 C 
HETATM   26  C1  UNL     1      24.084   2.372  53.028  1.00  0.00     0.068 C 
HETATM   27  N3  UNL     1      21.669   2.567  52.575  1.00  0.00    -0.361 N 
HETATM   28  H25 UNL     1      21.618   2.517  53.637  1.00  0.00     0.161 HD
BRANCH  24  29
HETATM   29  C4  UNL     1      24.768   2.823  50.585  1.00  0.00     0.046 C 
BRANCH  29  30
HETATM   30  C5  UNL     1      25.322   3.479  49.375  1.00  0.00     0.114 C 
BRANCH  30  31
HETATM   31  C6  UNL     1      26.729   3.920  49.427  1.00  0.00     0.139 C 
HETATM   32  O1  UNL     1      27.696   4.453  48.827  1.00  0.00    -0.650 OA
BRANCH  31  33
HETATM   33  O2  UNL     1      27.222   3.630  50.690  1.00  0.00    -0.776 OA
HETATM   34  H8  UNL     1      28.108   3.224  50.933  1.00  0.00     0.167 HD
ENDBRANCH  31  33
ENDBRANCH  30  31
ENDBRANCH  29  30
ENDBRANCH  24  29
ENDBRANCH   1  19
TORSDOF 5
ENDMDL
MODEL 8
REMARK VINA RESULT:      -8.8      2.878      4.100
REMARK  5 active torsions:
REMARK  status: ('A' for Active; 'I' for Inactive)
REMARK    1  A    between atoms: C3_3  and  C4_4 
REMARK    2  A    between atoms: C4_4  and  C5_5 
REMARK    3  A    between atoms: C5_5  and  C6_6 
REMARK    4  A    between atoms: C6_6  and  O2_8 
REMARK    5  A    between atoms: C9_12  and  C10_13 
ROOT
HETATM    1  C10 UNL     1      21.191   2.054  52.381  1.00  0.00     0.047 C 
HETATM    2  C11 UNL     1      21.885   1.018  52.796  1.00  0.00     0.044 A 
HETATM    3  C12 UNL     1      21.419  -0.266  53.296  1.00  0.00     0.257 A 
HETATM    4  O3  UNL     1      20.241  -0.671  53.446  1.00  0.00    -0.267 OA
HETATM    5  N2  UNL     1      22.525  -1.095  53.627  1.00  0.00    -0.322 N 
HETATM    6  C13 UNL     1      23.644  -0.280  53.316  1.00  0.00     0.047 A 
HETATM    7  C14 UNL     1      25.003  -0.553  53.433  1.00  0.00     0.042 A 
HETATM    8  C15 UNL     1      26.021   0.315  53.099  1.00  0.00    -0.024 A 
HETATM    9  C16 UNL     1      27.408  -0.062  53.255  1.00  0.00    -0.026 A 
HETATM   10  C17 UNL     1      28.449   0.782  53.547  1.00  0.00     0.012 A 
HETATM   11  C18 UNL     1      29.729   0.271  53.666  1.00  0.00     0.001 A 
HETATM   12  C19 UNL     1      30.023  -1.082  53.501  1.00  0.00     0.000 A 
HETATM   13  C20 UNL     1      28.989  -1.919  53.211  1.00  0.00     0.001 A 
HETATM   14  C21 UNL     1      27.696  -1.417  53.089  1.00  0.00     0.012 A 
HETATM   15  C22 UNL     1      25.676   1.559  52.610  1.00  0.00     0.013 A 
HETATM   16  C23 UNL     1      24.334   1.855  52.486  1.00  0.00     0.015 A 
HETATM   17  C24 UNL     1      23.339   0.960  52.829  1.00  0.00     0.006 A 
HETATM   18  H16 UNL     1      22.549  -2.066  54.007  1.00  0.00     0.169 HD
ENDROOT
BRANCH   1  19
HETATM   19  C9  UNL     1      19.810   2.500  52.189  1.00  0.00     0.344 C 
HETATM   20  N1  UNL     1      18.935   1.427  51.746  1.00  0.00     0.110 N 
HETATM   21  C8  UNL     1      19.118   1.129  50.346  1.00  0.00     0.277 C 
HETATM   22  H13 UNL     1      17.958   1.728  51.957  1.00  0.00     0.319 HD
HETATM   23  C7  UNL     1      17.930   1.773  49.612  1.00  0.00     0.066 C 
HETATM   24  C3  UNL     1      18.288   3.200  49.415  1.00  0.00    -0.056 C 
HETATM   25  C2  UNL     1      19.018   4.031  50.153  1.00  0.00     0.005 C 
HETATM   26  C1  UNL     1      19.256   5.429  49.707  1.00  0.00     0.068 C 
HETATM   27  N3  UNL     1      19.629   3.700  51.424  1.00  0.00    -0.361 N 
HETATM   28  H25 UNL     1      20.048   4.526  51.950  1.00  0.00     0.161 HD
BRANCH  24  29
HETATM   29  C4  UNL     1      17.829   3.895  48.206  1.00  0.00     0.046 C 
BRANCH  29  30
HETATM   30  C5  UNL     1      16.386   3.801  47.875  1.00  0.00     0.114 C 
BRANCH  30  31
HETATM   31  C6  UNL     1      15.465   4.704  48.592  1.00  0.00     0.139 C 
HETATM   32  O1  UNL     1      14.555   4.828  49.449  1.00  0.00    -0.650 OA
BRANCH  31  33
HETATM   33  O2  UNL     1      15.687   5.994  48.132  1.00  0.00    -0.776 OA
HETATM   34  H8  UNL     1      16.363   6.305  47.459  1.00  0.00     0.167 HD
ENDBRANCH  31  33
ENDBRANCH  30  31
ENDBRANCH  29  30
ENDBRANCH  24  29
ENDBRANCH   1  19
TORSDOF 5
ENDMDL
MODEL 9
REMARK VINA RESULT:      -8.6      3.816      5.461
REMARK  5 active torsions:
REMARK  status: ('A' for Active; 'I' for Inactive)
REMARK    1  A    between atoms: C3_3  and  C4_4 
REMARK    2  A    between atoms: C4_4  and  C5_5 
REMARK    3  A    between atoms: C5_5  and  C6_6 
REMARK    4  A    between atoms: C6_6  and  O2_8 
REMARK    5  A    between atoms: C9_12  and  C10_13 
ROOT
HETATM    1  C10 UNL     1      21.260   2.190  52.401  1.00  0.00     0.047 C 
HETATM    2  C11 UNL     1      22.524   2.536  52.306  1.00  0.00     0.044 A 
HETATM    3  C12 UNL     1      23.107   3.815  51.933  1.00  0.00     0.257 A 
HETATM    4  O3  UNL     1      22.527   4.880  51.613  1.00  0.00    -0.267 OA
HETATM    5  N2  UNL     1      24.526   3.738  51.970  1.00  0.00    -0.322 N 
HETATM    6  C13 UNL     1      24.766   2.397  52.367  1.00  0.00     0.047 A 
HETATM    7  C14 UNL     1      25.971   1.733  52.574  1.00  0.00     0.042 A 
HETATM    8  C15 UNL     1      26.097   0.416  52.965  1.00  0.00    -0.024 A 
HETATM    9  C16 UNL     1      27.397  -0.186  53.155  1.00  0.00    -0.026 A 
HETATM   10  C17 UNL     1      27.718  -1.505  52.950  1.00  0.00     0.012 A 
HETATM   11  C18 UNL     1      29.012  -1.935  53.177  1.00  0.00     0.001 A 
HETATM   12  C19 UNL     1      30.028  -1.085  53.611  1.00  0.00     0.000 A 
HETATM   13  C20 UNL     1      29.710   0.223  53.815  1.00  0.00     0.001 A 
HETATM   14  C21 UNL     1      28.410   0.669  53.590  1.00  0.00     0.012 A 
HETATM   15  C22 UNL     1      24.942  -0.311  53.168  1.00  0.00     0.013 A 
HETATM   16  C23 UNL     1      23.734   0.324  52.969  1.00  0.00     0.015 A 
HETATM   17  C24 UNL     1      23.644   1.646  52.578  1.00  0.00     0.006 A 
HETATM   18  H16 UNL     1      25.245   4.463  51.762  1.00  0.00     0.169 HD
ENDROOT
BRANCH   1  19
HETATM   19  C9  UNL     1      19.912   2.737  52.235  1.00  0.00     0.344 C 
HETATM   20  N1  UNL     1      18.939   1.719  51.871  1.00  0.00     0.110 N 
HETATM   21  C8  UNL     1      19.046   1.348  50.482  1.00  0.00     0.277 C 
HETATM   22  H13 UNL     1      17.997   2.106  52.102  1.00  0.00     0.319 HD
HETATM   23  C7  UNL     1      17.886   2.053  49.759  1.00  0.00     0.066 C 
HETATM   24  C3  UNL     1      18.347   3.436  49.485  1.00  0.00    -0.056 C 
HETATM   25  C2  UNL     1      19.167   4.238  50.160  1.00  0.00     0.005 C 
HETATM   26  C1  UNL     1      19.497   5.591  49.642  1.00  0.00     0.068 C 
HETATM   27  N3  UNL     1      19.797   3.913  51.423  1.00  0.00    -0.361 N 
HETATM   28  H25 UNL     1      20.298   4.725  51.896  1.00  0.00     0.161 HD
BRANCH  24  29
HETATM   29  C4  UNL     1      17.899   4.114  48.262  1.00  0.00     0.046 C 
BRANCH  29  30
HETATM   30  C5  UNL     1      18.145   3.422  46.973  1.00  0.00     0.114 C 
BRANCH  30  31
HETATM   31  C6  UNL     1      19.314   3.856  46.184  1.00  0.00     0.139 C 
HETATM   32  O1  UNL     1      19.747   4.506  45.200  1.00  0.00    -0.650 OA
BRANCH  31  33
HETATM   33  O2  UNL     1      20.450   3.321  46.773  1.00  0.00    -0.776 OA
HETATM   34  H8  UNL     1      20.530   2.485  47.321  1.00  0.00     0.167 HD
ENDBRANCH  31  33
ENDBRANCH  30  31
ENDBRANCH  29  30
ENDBRANCH  24  29
ENDBRANCH   1  19
TORSDOF 5
ENDMDL
