MODEL 1
REMARK VINA RESULT:      -8.6      0.000      0.000
REMARK  5 active torsions:
REMARK  status: ('A' for Active; 'I' for Inactive)
REMARK    1  A    between atoms: C5_5  and  C6_6 
REMARK    2  A    between atoms: C21_24  and  C22_25 
REMARK    3  A    between atoms: C22_25  and  C23_26 
REMARK    4  A    between atoms: C23_26  and  N3_27 
REMARK    5  A    between atoms: N3_27  and  C24_28 
ROOT
HETATM    1  C1  UNL     1      21.828   4.558  45.914  1.00  0.00     0.016 C 
HETATM    2  C2  UNL     1      22.295   4.992  47.293  1.00  0.00    -0.027 C 
HETATM    3  C3  UNL     1      23.243   5.580  48.004  1.00  0.00     0.026 C 
HETATM    4  C4  UNL     1      24.542   6.276  48.129  1.00  0.00    -0.015 C 
HETATM    5  C5  UNL     1      24.872   6.552  49.373  1.00  0.00    -0.049 C 
HETATM    6  C11 UNL     1      24.230   6.158  50.680  1.00  0.00     0.040 C 
HETATM    7  C12 UNL     1      24.398   4.648  50.864  1.00  0.00     0.068 C 
HETATM    8  C13 UNL     1      23.004   4.134  50.872  1.00  0.00     0.015 C 
HETATM    9  C14 UNL     1      22.479   2.986  51.311  1.00  0.00    -0.016 C 
HETATM   10  C15 UNL     1      21.089   2.401  51.353  1.00  0.00     0.048 C 
HETATM   11  C16 UNL     1      20.710   1.876  52.696  1.00  0.00     0.067 C 
HETATM   12  C17 UNL     1      21.637   0.935  53.298  1.00  0.00     0.068 A 
HETATM   13  N1  UNL     1      21.534  -0.055  54.188  1.00  0.00    -0.177 NA
HETATM   14  N2  UNL     1      22.719  -0.593  54.374  1.00  0.00    -0.284 N 
HETATM   15  C18 UNL     1      23.031  -1.710  55.278  1.00  0.00     0.179 C 
HETATM   16  C19 UNL     1      23.609   0.053  53.599  1.00  0.00     0.126 A 
HETATM   17  C20 UNL     1      22.968   1.064  52.869  1.00  0.00     0.026 A 
HETATM   18  C21 UNL     1      23.402   2.064  51.893  1.00  0.00     0.033 C 
HETATM   19  N4  UNL     1      22.198   5.146  50.276  1.00  0.00    -0.383 N 
HETATM   20  C25 UNL     1      21.087   5.371  49.458  1.00  0.00     0.123 C 
HETATM   21  C26 UNL     1      21.066   4.728  48.085  1.00  0.00     0.030 C 
HETATM   22  C27 UNL     1      22.789   6.436  50.705  1.00  0.00     0.132 C 
ENDROOT
BRANCH  18  23
HETATM   23  C22 UNL     1      24.691   1.985  51.651  1.00  0.00    -0.098 C 
BRANCH  23  24
HETATM   24  C23 UNL     1      25.961   1.688  51.762  1.00  0.00     0.147 C 
BRANCH  24  25
HETATM   25  N3  UNL     1      26.813   2.428  52.555  1.00  0.00    -0.337 N 
HETATM   26  H27 UNL     1      26.629   3.444  52.410  1.00  0.00     0.168 HD
BRANCH  25  27
HETATM   27  C24 UNL     1      27.801   1.926  53.441  1.00  0.00     0.353 C 
HETATM   28  O2  UNL     1      28.439   2.702  54.199  1.00  0.00    -0.283 OA
ENDBRANCH  25  27
ENDBRANCH  24  25
ENDBRANCH  23  24
ENDBRANCH  18  23
BRANCH   5  29
HETATM   29  C6  UNL     1      26.132   7.258  49.694  1.00  0.00     0.150 C 
HETATM   30  C7  UNL     1      27.059   7.328  48.538  1.00  0.00     0.036 C 
HETATM   31  C8  UNL     1      28.225   8.238  48.983  1.00  0.00     0.005 C 
HETATM   32  C9  UNL     1      27.684   9.587  49.334  1.00  0.00     0.026 C 
HETATM   33  C10 UNL     1      26.164   9.554  49.361  1.00  0.00     0.168 C 
HETATM   34  O1  UNL     1      25.787   8.518  50.194  1.00  0.00    -0.382 OA
ENDBRANCH   5  29
TORSDOF 5
ENDMDL
MODEL 2
REMARK VINA RESULT:      -8.5      2.613      4.081
REMARK  5 active torsions:
REMARK  status: ('A' for Active; 'I' for Inactive)
REMARK    1  A    between atoms: C5_5  and  C6_6 
REMARK    2  A    between atoms: C21_24  and  C22_25 
REMARK    3  A    between atoms: C22_25  and  C23_26 
REMARK    4  A    between atoms: C23_26  and  N3_27 
REMARK    5  A    between atoms: N3_27  and  C24_28 
ROOT
HETATM    1  C1  UNL     1      19.405   1.720  48.785  1.00  0.00     0.016 C 
HETATM    2  C2  UNL     1      20.213   2.526  49.787  1.00  0.00    -0.027 C 
HETATM    3  C3  UNL     1      20.799   3.680  50.061  1.00  0.00     0.026 C 
HETATM    4  C4  UNL     1      21.166   5.072  49.723  1.00  0.00    -0.015 C 
HETATM    5  C5  UNL     1      21.915   5.654  50.637  1.00  0.00    -0.049 C 
HETATM    6  C11 UNL     1      22.569   5.104  51.879  1.00  0.00     0.040 C 
HETATM    7  C12 UNL     1      23.669   4.129  51.454  1.00  0.00     0.068 C 
HETATM    8  C13 UNL     1      23.219   2.824  52.005  1.00  0.00     0.015 C 
HETATM    9  C14 UNL     1      23.876   1.687  52.253  1.00  0.00    -0.016 C 
HETATM   10  C15 UNL     1      23.490   0.336  52.806  1.00  0.00     0.048 C 
HETATM   11  C16 UNL     1      24.387  -0.130  53.902  1.00  0.00     0.067 C 
HETATM   12  C17 UNL     1      25.809  -0.129  53.607  1.00  0.00     0.068 A 
HETATM   13  N1  UNL     1      26.866  -0.811  54.051  1.00  0.00    -0.177 NA
HETATM   14  N2  UNL     1      27.944  -0.395  53.422  1.00  0.00    -0.284 N 
HETATM   15  C18 UNL     1      29.313  -0.894  53.625  1.00  0.00     0.179 C 
HETATM   16  C19 UNL     1      27.588   0.573  52.559  1.00  0.00     0.126 A 
HETATM   17  C20 UNL     1      26.206   0.797  52.629  1.00  0.00     0.026 A 
HETATM   18  C21 UNL     1      25.272   1.697  51.950  1.00  0.00     0.033 C 
HETATM   19  N4  UNL     1      21.826   2.956  52.266  1.00  0.00    -0.383 N 
HETATM   20  C25 UNL     1      20.603   2.278  52.252  1.00  0.00     0.123 C 
HETATM   21  C26 UNL     1      20.167   1.615  50.960  1.00  0.00     0.030 C 
HETATM   22  C27 UNL     1      21.632   4.353  52.723  1.00  0.00     0.132 C 
ENDROOT
BRANCH  18  23
HETATM   23  C22 UNL     1      25.880   2.465  51.076  1.00  0.00    -0.098 C 
BRANCH  23  24
HETATM   24  C23 UNL     1      26.453   2.886  49.976  1.00  0.00     0.147 C 
BRANCH  24  25
HETATM   25  N3  UNL     1      26.990   4.153  49.877  1.00  0.00    -0.337 N 
HETATM   26  H27 UNL     1      27.032   4.588  50.823  1.00  0.00     0.168 HD
BRANCH  25  27
HETATM   27  C24 UNL     1      27.425   4.801  48.692  1.00  0.00     0.353 C 
HETATM   28  O2  UNL     1      28.649   5.008  48.486  1.00  0.00    -0.283 OA
ENDBRANCH  25  27
ENDBRANCH  24  25
ENDBRANCH  23  24
ENDBRANCH  18  23
BRANCH   5  29
HETATM   29  C6  UNL     1      22.371   7.053  50.478  1.00  0.00     0.150 C 
HETATM   30  C7  UNL     1      23.193   7.252  49.260  1.00  0.00     0.036 C 
HETATM   31  C8  UNL     1      23.430   8.774  49.151  1.00  0.00     0.005 C 
HETATM   32  C9  UNL     1      22.109   9.466  49.041  1.00  0.00     0.026 C 
HETATM   33  C10 UNL     1      20.977   8.485  49.300  1.00  0.00     0.168 C 
HETATM   34  O1  UNL     1      21.234   7.867  50.508  1.00  0.00    -0.382 OA
ENDBRANCH   5  29
TORSDOF 5
ENDMDL
MODEL 3
REMARK VINA RESULT:      -8.3      3.666      6.984
REMARK  5 active torsions:
REMARK  status: ('A' for Active; 'I' for Inactive)
REMARK    1  A    between atoms: C5_5  and  C6_6 
REMARK    2  A    between atoms: C21_24  and  C22_25 
REMARK    3  A    between atoms: C22_25  and  C23_26 
REMARK    4  A    between atoms: C23_26  and  N3_27 
REMARK    5  A    between atoms: N3_27  and  C24_28 
ROOT
HETATM    1  C1  UNL     1      20.341   6.591  49.704  1.00  0.00     0.016 C 
HETATM    2  C2  UNL     1      20.607   5.103  49.556  1.00  0.00    -0.027 C 
HETATM    3  C3  UNL     1      20.114   3.878  49.642  1.00  0.00     0.026 C 
HETATM    4  C4  UNL     1      19.012   2.928  49.908  1.00  0.00    -0.015 C 
HETATM    5  C5  UNL     1      19.371   1.665  49.807  1.00  0.00    -0.049 C 
HETATM    6  C11 UNL     1      20.726   1.033  49.611  1.00  0.00     0.040 C 
HETATM    7  C12 UNL     1      21.558   1.274  50.872  1.00  0.00     0.068 C 
HETATM    8  C13 UNL     1      22.694   2.105  50.395  1.00  0.00     0.015 C 
HETATM    9  C14 UNL     1      23.896   2.360  50.921  1.00  0.00    -0.016 C 
HETATM   10  C15 UNL     1      25.088   3.184  50.499  1.00  0.00     0.048 C 
HETATM   11  C16 UNL     1      26.375   2.435  50.565  1.00  0.00     0.067 C 
HETATM   12  C17 UNL     1      26.673   1.789  51.831  1.00  0.00     0.068 A 
HETATM   13  N1  UNL     1      27.788   1.422  52.465  1.00  0.00    -0.177 NA
HETATM   14  N2  UNL     1      27.469   0.863  53.612  1.00  0.00    -0.284 N 
HETATM   15  C18 UNL     1      28.410   0.324  54.605  1.00  0.00     0.179 C 
HETATM   16  C19 UNL     1      26.129   0.863  53.729  1.00  0.00     0.126 A 
HETATM   17  C20 UNL     1      25.546   1.453  52.599  1.00  0.00     0.026 A 
HETATM   18  C21 UNL     1      24.173   1.726  52.171  1.00  0.00     0.033 C 
HETATM   19  N4  UNL     1      22.288   2.666  49.150  1.00  0.00    -0.383 N 
HETATM   20  C25 UNL     1      22.373   3.802  48.340  1.00  0.00     0.123 C 
HETATM   21  C26 UNL     1      21.953   5.135  48.929  1.00  0.00     0.030 C 
HETATM   22  C27 UNL     1      21.465   1.625  48.489  1.00  0.00     0.132 C 
ENDROOT
BRANCH  18  23
HETATM   23  C22 UNL     1      23.294   1.323  53.059  1.00  0.00    -0.098 C 
BRANCH  23  24
HETATM   24  C23 UNL     1      22.531   0.553  53.794  1.00  0.00     0.147 C 
BRANCH  24  25
HETATM   25  N3  UNL     1      22.397  -0.795  53.535  1.00  0.00    -0.337 N 
HETATM   26  H27 UNL     1      22.683  -0.990  52.552  1.00  0.00     0.168 HD
BRANCH  25  27
HETATM   27  C24 UNL     1      21.942  -1.792  54.436  1.00  0.00     0.353 C 
HETATM   28  O2  UNL     1      22.447  -1.899  55.583  1.00  0.00    -0.283 OA
ENDBRANCH  25  27
ENDBRANCH  24  25
ENDBRANCH  23  24
ENDBRANCH  18  23
BRANCH   5  29
HETATM   29  C6  UNL     1      18.399   0.571  50.027  1.00  0.00     0.150 C 
HETATM   30  C7  UNL     1      18.183   0.279  51.465  1.00  0.00     0.036 C 
HETATM   31  C8  UNL     1      17.027  -0.745  51.521  1.00  0.00     0.005 C 
HETATM   32  C9  UNL     1      15.811  -0.140  50.895  1.00  0.00     0.026 C 
HETATM   33  C10 UNL     1      16.166   1.171  50.213  1.00  0.00     0.168 C 
HETATM   34  O1  UNL     1      17.222   0.920  49.358  1.00  0.00    -0.382 OA
ENDBRANCH   5  29
TORSDOF 5
ENDMDL
MODEL 4
REMARK VINA RESULT:      -8.2      2.968      7.102
REMARK  5 active torsions:
REMARK  status: ('A' for Active; 'I' for Inactive)
REMARK    1  A    between atoms: C5_5  and  C6_6 
REMARK    2  A    between atoms: C21_24  and  C22_25 
REMARK    3  A    between atoms: C22_25  and  C23_26 
REMARK    4  A    between atoms: C23_26  and  N3_27 
REMARK    5  A    between atoms: N3_27  and  C24_28 
ROOT
HETATM    1  C1  UNL     1      28.543   5.127  48.207  1.00  0.00     0.016 C 
HETATM    2  C2  UNL     1      27.306   4.836  49.040  1.00  0.00    -0.027 C 
HETATM    3  C3  UNL     1      26.715   4.014  49.891  1.00  0.00     0.026 C 
HETATM    4  C4  UNL     1      26.690   2.793  50.725  1.00  0.00    -0.015 C 
HETATM    5  C5  UNL     1      25.548   2.612  51.357  1.00  0.00    -0.049 C 
HETATM    6  C11 UNL     1      24.236   3.349  51.262  1.00  0.00     0.040 C 
HETATM    7  C12 UNL     1      23.631   3.082  49.882  1.00  0.00     0.068 C 
HETATM    8  C13 UNL     1      23.587   4.426  49.248  1.00  0.00     0.015 C 
HETATM    9  C14 UNL     1      22.889   4.900  48.211  1.00  0.00    -0.016 C 
HETATM   10  C15 UNL     1      22.792   6.237  47.518  1.00  0.00     0.048 C 
HETATM   11  C16 UNL     1      21.389   6.707  47.336  1.00  0.00     0.067 C 
HETATM   12  C17 UNL     1      20.483   5.774  46.691  1.00  0.00     0.068 A 
HETATM   13  N1  UNL     1      19.366   5.888  45.970  1.00  0.00    -0.177 NA
HETATM   14  N2  UNL     1      18.949   4.689  45.626  1.00  0.00    -0.284 N 
HETATM   15  C18 UNL     1      17.752   4.383  44.829  1.00  0.00     0.179 C 
HETATM   16  C19 UNL     1      19.803   3.780  46.130  1.00  0.00     0.126 A 
HETATM   17  C20 UNL     1      20.829   4.421  46.837  1.00  0.00     0.026 A 
HETATM   18  C21 UNL     1      22.008   3.970  47.579  1.00  0.00     0.033 C 
HETATM   19  N4  UNL     1      24.497   5.244  49.975  1.00  0.00    -0.383 N 
HETATM   20  C25 UNL     1      25.427   6.282  49.857  1.00  0.00     0.123 C 
HETATM   21  C26 UNL     1      26.567   6.114  48.872  1.00  0.00     0.030 C 
HETATM   22  C27 UNL     1      24.397   4.803  51.386  1.00  0.00     0.132 C 
ENDROOT
BRANCH  18  23
HETATM   23  C22 UNL     1      22.121   2.662  47.571  1.00  0.00    -0.098 C 
BRANCH  23  24
HETATM   24  C23 UNL     1      21.917   1.395  47.829  1.00  0.00     0.147 C 
BRANCH  24  25
HETATM   25  N3  UNL     1      20.961   0.982  48.733  1.00  0.00    -0.337 N 
HETATM   26  H27 UNL     1      20.031   0.947  48.264  1.00  0.00     0.168 HD
BRANCH  25  27
HETATM   27  C24 UNL     1      21.168   0.650  50.098  1.00  0.00     0.353 C 
HETATM   28  O2  UNL     1      20.198   0.344  50.838  1.00  0.00    -0.283 OA
ENDBRANCH  25  27
ENDBRANCH  24  25
ENDBRANCH  23  24
ENDBRANCH  18  23
BRANCH   5  29
HETATM   29  C6  UNL     1      25.340   1.450  52.249  1.00  0.00     0.150 C 
HETATM   30  C7  UNL     1      26.277   0.336  51.964  1.00  0.00     0.036 C 
HETATM   31  C8  UNL     1      26.050  -0.706  53.081  1.00  0.00     0.005 C 
HETATM   32  C9  UNL     1      26.339  -0.071  54.404  1.00  0.00     0.026 C 
HETATM   33  C10 UNL     1      26.533   1.427  54.238  1.00  0.00     0.168 C 
HETATM   34  O1  UNL     1      25.430   1.915  53.565  1.00  0.00    -0.382 OA
ENDBRANCH   5  29
TORSDOF 5
ENDMDL
MODEL 5
REMARK VINA RESULT:      -7.8      3.012      4.476
REMARK  5 active torsions:
REMARK  status: ('A' for Active; 'I' for Inactive)
REMARK    1  A    between atoms: C5_5  and  C6_6 
REMARK    2  A    between atoms: C21_24  and  C22_25 
REMARK    3  A    between atoms: C22_25  and  C23_26 
REMARK    4  A    between atoms: C23_26  and  N3_27 
REMARK    5  A    between atoms: N3_27  and  C24_28 
ROOT
HETATM    1  C1  UNL     1      23.238   7.406  43.734  1.00  0.00     0.016 C 
HETATM    2  C2  UNL     1      23.633   7.772  45.155  1.00  0.00    -0.027 C 
HETATM    3  C3  UNL     1      24.410   8.509  45.931  1.00  0.00     0.026 C 
HETATM    4  C4  UNL     1      25.464   9.526  46.137  1.00  0.00    -0.015 C 
HETATM    5  C5  UNL     1      25.765   9.721  47.404  1.00  0.00    -0.049 C 
HETATM    6  C11 UNL     1      25.328   8.992  48.650  1.00  0.00     0.040 C 
HETATM    7  C12 UNL     1      25.925   7.583  48.619  1.00  0.00     0.068 C 
HETATM    8  C13 UNL     1      24.735   6.694  48.571  1.00  0.00     0.015 C 
HETATM    9  C14 UNL     1      24.579   5.397  48.852  1.00  0.00    -0.016 C 
HETATM   10  C15 UNL     1      23.414   4.437  48.826  1.00  0.00     0.048 C 
HETATM   11  C16 UNL     1      23.267   3.655  50.087  1.00  0.00     0.067 C 
HETATM   12  C17 UNL     1      24.451   2.949  50.542  1.00  0.00     0.068 A 
HETATM   13  N1  UNL     1      24.677   1.864  51.286  1.00  0.00    -0.177 NA
HETATM   14  N2  UNL     1      25.974   1.669  51.382  1.00  0.00    -0.284 N 
HETATM   15  C18 UNL     1      26.634   0.580  52.118  1.00  0.00     0.179 C 
HETATM   16  C19 UNL     1      26.605   2.639  50.695  1.00  0.00     0.126 A 
HETATM   17  C20 UNL     1      25.668   3.509  50.121  1.00  0.00     0.026 A 
HETATM   18  C21 UNL     1      25.753   4.711  49.289  1.00  0.00     0.033 C 
HETATM   19  N4  UNL     1      23.647   7.501  48.131  1.00  0.00    -0.383 N 
HETATM   20  C25 UNL     1      22.478   7.502  47.365  1.00  0.00     0.123 C 
HETATM   21  C26 UNL     1      22.570   7.066  45.916  1.00  0.00     0.030 C 
HETATM   22  C27 UNL     1      23.870   8.838  48.729  1.00  0.00     0.132 C 
ENDROOT
BRANCH  18  23
HETATM   23  C22 UNL     1      26.997   5.037  49.024  1.00  0.00    -0.098 C 
BRANCH  23  24
HETATM   24  C23 UNL     1      28.194   5.048  48.494  1.00  0.00     0.147 C 
BRANCH  24  25
HETATM   25  N3  UNL     1      29.148   5.969  48.874  1.00  0.00    -0.337 N 
HETATM   26  H27 UNL     1      28.702   6.711  49.454  1.00  0.00     0.168 HD
BRANCH  25  27
HETATM   27  C24 UNL     1      30.528   5.948  48.546  1.00  0.00     0.353 C 
HETATM   28  O2  UNL     1      30.904   5.969  47.345  1.00  0.00    -0.283 OA
ENDBRANCH  25  27
ENDBRANCH  24  25
ENDBRANCH  23  24
ENDBRANCH  18  23
BRANCH   5  29
HETATM   29  C6  UNL     1      26.789  10.710  47.807  1.00  0.00     0.150 C 
HETATM   30  C7  UNL     1      27.487  11.315  46.646  1.00  0.00     0.036 C 
HETATM   31  C8  UNL     1      28.378  12.436  47.224  1.00  0.00     0.005 C 
HETATM   32  C9  UNL     1      27.512  13.434  47.923  1.00  0.00     0.026 C 
HETATM   33  C10 UNL     1      26.090  12.910  48.036  1.00  0.00     0.168 C 
HETATM   34  O1  UNL     1      26.155  11.658  48.616  1.00  0.00    -0.382 OA
ENDBRANCH   5  29
TORSDOF 5
ENDMDL
MODEL 6
REMARK VINA RESULT:      -7.7      3.292      5.463
REMARK  5 active torsions:
REMARK  status: ('A' for Active; 'I' for Inactive)
REMARK    1  A    between atoms: C5_5  and  C6_6 
REMARK    2  A    between atoms: C21_24  and  C22_25 
REMARK    3  A    between atoms: C22_25  and  C23_26 
REMARK    4  A    between atoms: C23_26  and  N3_27 
REMARK    5  A    between atoms: N3_27  and  C24_28 
ROOT
HETATM    1  C1  UNL     1      24.647   8.640  43.064  1.00  0.00     0.016 C 
HETATM    2  C2  UNL     1      24.999   8.960  44.507  1.00  0.00    -0.027 C 
HETATM    3  C3  UNL     1      25.840   9.561  45.332  1.00  0.00     0.026 C 
HETATM    4  C4  UNL     1      27.043  10.376  45.608  1.00  0.00    -0.015 C 
HETATM    5  C5  UNL     1      27.283  10.541  46.892  1.00  0.00    -0.049 C 
HETATM    6  C11 UNL     1      26.633   9.930  48.108  1.00  0.00     0.040 C 
HETATM    7  C12 UNL     1      26.965   8.436  48.134  1.00  0.00     0.068 C 
HETATM    8  C13 UNL     1      25.640   7.776  48.005  1.00  0.00     0.015 C 
HETATM    9  C14 UNL     1      25.232   6.534  48.284  1.00  0.00    -0.016 C 
HETATM   10  C15 UNL     1      23.917   5.799  48.181  1.00  0.00     0.048 C 
HETATM   11  C16 UNL     1      23.541   5.085  49.434  1.00  0.00     0.067 C 
HETATM   12  C17 UNL     1      24.542   4.187  49.982  1.00  0.00     0.068 A 
HETATM   13  N1  UNL     1      24.514   3.096  50.749  1.00  0.00    -0.177 NA
HETATM   14  N2  UNL     1      25.744   2.672  50.944  1.00  0.00    -0.284 N 
HETATM   15  C18 UNL     1      26.141   1.499  51.736  1.00  0.00     0.179 C 
HETATM   16  C19 UNL     1      26.587   3.497  50.297  1.00  0.00     0.126 A 
HETATM   17  C20 UNL     1      25.867   4.510  49.647  1.00  0.00     0.026 A 
HETATM   18  C21 UNL     1      26.228   5.658  48.813  1.00  0.00     0.033 C 
HETATM   19  N4  UNL     1      24.751   8.756  47.478  1.00  0.00    -0.383 N 
HETATM   20  C25 UNL     1      23.659   8.951  46.627  1.00  0.00     0.123 C 
HETATM   21  C26 UNL     1      23.774   8.473  45.193  1.00  0.00     0.030 C 
HETATM   22  C27 UNL     1      25.169  10.044  48.080  1.00  0.00     0.132 C 
ENDROOT
BRANCH  18  23
HETATM   23  C22 UNL     1      27.526   5.749  48.639  1.00  0.00    -0.098 C 
BRANCH  23  24
HETATM   24  C23 UNL     1      28.745   5.512  48.224  1.00  0.00     0.147 C 
BRANCH  24  25
HETATM   25  N3  UNL     1      29.849   5.924  48.940  1.00  0.00    -0.337 N 
HETATM   26  H27 UNL     1      29.635   5.888  49.959  1.00  0.00     0.168 HD
BRANCH  25  27
HETATM   27  C24 UNL     1      31.098   6.341  48.411  1.00  0.00     0.353 C 
HETATM   28  O2  UNL     1      32.176   6.002  48.966  1.00  0.00    -0.283 OA
ENDBRANCH  25  27
ENDBRANCH  24  25
ENDBRANCH  23  24
ENDBRANCH  18  23
BRANCH   5  29
HETATM   29  C6  UNL     1      28.438  11.339  47.361  1.00  0.00     0.150 C 
HETATM   30  C7  UNL     1      28.281  11.803  48.761  1.00  0.00     0.036 C 
HETATM   31  C8  UNL     1      29.628  12.454  49.146  1.00  0.00     0.005 C 
HETATM   32  C9  UNL     1      30.714  11.433  49.025  1.00  0.00     0.026 C 
HETATM   33  C10 UNL     1      30.183  10.177  48.353  1.00  0.00     0.168 C 
HETATM   34  O1  UNL     1      29.585  10.562  47.169  1.00  0.00    -0.382 OA
ENDBRANCH   5  29
TORSDOF 5
ENDMDL
MODEL 7
REMARK VINA RESULT:      -7.5      3.278      7.977
REMARK  5 active torsions:
REMARK  status: ('A' for Active; 'I' for Inactive)
REMARK    1  A    between atoms: C5_5  and  C6_6 
REMARK    2  A    between atoms: C21_24  and  C22_25 
REMARK    3  A    between atoms: C22_25  and  C23_26 
REMARK    4  A    between atoms: C23_26  and  N3_27 
REMARK    5  A    between atoms: N3_27  and  C24_28 
ROOT
HETATM    1  C1  UNL     1      27.277   5.554  48.488  1.00  0.00     0.016 C 
HETATM    2  C2  UNL     1      26.077   5.311  49.386  1.00  0.00    -0.027 C 
HETATM    3  C3  UNL     1      25.329   4.418  50.014  1.00  0.00     0.026 C 
HETATM    4  C4  UNL     1      24.996   3.029  50.397  1.00  0.00    -0.015 C 
HETATM    5  C5  UNL     1      23.904   2.932  51.126  1.00  0.00    -0.049 C 
HETATM    6  C11 UNL     1      22.875   3.965  51.511  1.00  0.00     0.040 C 
HETATM    7  C12 UNL     1      22.116   4.383  50.249  1.00  0.00     0.068 C 
HETATM    8  C13 UNL     1      22.435   5.827  50.105  1.00  0.00     0.015 C 
HETATM    9  C14 UNL     1      21.838   6.808  49.420  1.00  0.00    -0.016 C 
HETATM   10  C15 UNL     1      22.101   8.282  49.228  1.00  0.00     0.048 C 
HETATM   11  C16 UNL     1      20.898   9.130  49.460  1.00  0.00     0.067 C 
HETATM   12  C17 UNL     1      19.705   8.763  48.718  1.00  0.00     0.068 A 
HETATM   13  N1  UNL     1      18.625   9.414  48.283  1.00  0.00    -0.177 NA
HETATM   14  N2  UNL     1      17.839   8.572  47.648  1.00  0.00    -0.284 N 
HETATM   15  C18 UNL     1      16.549   8.896  47.020  1.00  0.00     0.179 C 
HETATM   16  C19 UNL     1      18.412   7.355  47.669  1.00  0.00     0.126 A 
HETATM   17  C20 UNL     1      19.634   7.409  48.352  1.00  0.00     0.026 A 
HETATM   18  C21 UNL     1      20.672   6.432  48.686  1.00  0.00     0.033 C 
HETATM   19  N4  UNL     1      23.603   6.062  50.885  1.00  0.00    -0.383 N 
HETATM   20  C25 UNL     1      24.792   6.794  50.948  1.00  0.00     0.123 C 
HETATM   21  C26 UNL     1      25.750   6.707  49.777  1.00  0.00     0.030 C 
HETATM   22  C27 UNL     1      23.479   5.180  52.070  1.00  0.00     0.132 C 
ENDROOT
BRANCH  18  23
HETATM   23  C22 UNL     1      20.381   5.234  48.234  1.00  0.00    -0.098 C 
BRANCH  23  24
HETATM   24  C23 UNL     1      20.179   4.226  47.423  1.00  0.00     0.147 C 
BRANCH  24  25
HETATM   25  N3  UNL     1      20.321   4.352  46.057  1.00  0.00    -0.337 N 
HETATM   26  H27 UNL     1      19.444   4.743  45.651  1.00  0.00     0.168 HD
BRANCH  25  27
HETATM   27  C24 UNL     1      21.463   4.014  45.286  1.00  0.00     0.353 C 
HETATM   28  O2  UNL     1      21.340   3.590  44.108  1.00  0.00    -0.283 OA
ENDBRANCH  25  27
ENDBRANCH  24  25
ENDBRANCH  23  24
ENDBRANCH  18  23
BRANCH   5  29
HETATM   29  C6  UNL     1      23.421   1.622  51.614  1.00  0.00     0.150 C 
HETATM   30  C7  UNL     1      22.678   1.726  52.894  1.00  0.00     0.036 C 
HETATM   31  C8  UNL     1      22.098   0.321  53.164  1.00  0.00     0.005 C 
HETATM   32  C9  UNL     1      21.194  -0.058  52.035  1.00  0.00     0.026 C 
HETATM   33  C10 UNL     1      21.320   0.946  50.900  1.00  0.00     0.168 C 
HETATM   34  O1  UNL     1      22.661   1.051  50.588  1.00  0.00    -0.382 OA
ENDBRANCH   5  29
TORSDOF 5
ENDMDL
MODEL 8
REMARK VINA RESULT:      -7.4      3.705      8.246
REMARK  5 active torsions:
REMARK  status: ('A' for Active; 'I' for Inactive)
REMARK    1  A    between atoms: C5_5  and  C6_6 
REMARK    2  A    between atoms: C21_24  and  C22_25 
REMARK    3  A    between atoms: C22_25  and  C23_26 
REMARK    4  A    between atoms: C23_26  and  N3_27 
REMARK    5  A    between atoms: N3_27  and  C24_28 
ROOT
HETATM    1  C1  UNL     1      20.186   8.778  50.266  1.00  0.00     0.016 C 
HETATM    2  C2  UNL     1      21.124   7.711  49.728  1.00  0.00    -0.027 C 
HETATM    3  C3  UNL     1      21.939   6.710  50.014  1.00  0.00     0.026 C 
HETATM    4  C4  UNL     1      22.609   5.802  50.971  1.00  0.00    -0.015 C 
HETATM    5  C5  UNL     1      23.443   4.959  50.400  1.00  0.00    -0.049 C 
HETATM    6  C11 UNL     1      23.930   4.858  48.976  1.00  0.00     0.040 C 
HETATM    7  C12 UNL     1      24.802   6.080  48.677  1.00  0.00     0.068 C 
HETATM    8  C13 UNL     1      24.065   6.787  47.597  1.00  0.00     0.015 C 
HETATM    9  C14 UNL     1      24.453   7.706  46.707  1.00  0.00    -0.016 C 
HETATM   10  C15 UNL     1      23.769   8.460  45.593  1.00  0.00     0.048 C 
HETATM   11  C16 UNL     1      24.515   8.410  44.303  1.00  0.00     0.067 C 
HETATM   12  C17 UNL     1      25.910   8.809  44.357  1.00  0.00     0.068 A 
HETATM   13  N1  UNL     1      26.782   9.316  43.483  1.00  0.00    -0.177 NA
HETATM   14  N2  UNL     1      27.940   9.491  44.081  1.00  0.00    -0.284 N 
HETATM   15  C18 UNL     1      29.162  10.028  43.463  1.00  0.00     0.179 C 
HETATM   16  C19 UNL     1      27.825   9.094  45.361  1.00  0.00     0.126 A 
HETATM   17  C20 UNL     1      26.523   8.636  45.608  1.00  0.00     0.026 A 
HETATM   18  C21 UNL     1      25.824   8.097  46.776  1.00  0.00     0.033 C 
HETATM   19  N4  UNL     1      22.728   6.301  47.637  1.00  0.00    -0.383 N 
HETATM   20  C25 UNL     1      21.388   6.661  47.466  1.00  0.00     0.123 C 
HETATM   21  C26 UNL     1      20.851   7.827  48.272  1.00  0.00     0.030 C 
HETATM   22  C27 UNL     1      22.831   4.868  48.003  1.00  0.00     0.132 C 
ENDROOT
BRANCH  18  23
HETATM   23  C22 UNL     1      26.607   8.034  47.829  1.00  0.00    -0.098 C 
BRANCH  23  24
HETATM   24  C23 UNL     1      27.613   8.229  48.645  1.00  0.00     0.147 C 
BRANCH  24  25
HETATM   25  N3  UNL     1      28.486   7.215  48.976  1.00  0.00    -0.337 N 
HETATM   26  H27 UNL     1      28.746   7.294  49.982  1.00  0.00     0.168 HD
BRANCH  25  27
HETATM   27  C24 UNL     1      28.981   6.204  48.112  1.00  0.00     0.353 C 
HETATM   28  O2  UNL     1      29.379   5.103  48.573  1.00  0.00    -0.283 OA
ENDBRANCH  25  27
ENDBRANCH  24  25
ENDBRANCH  23  24
ENDBRANCH  18  23
BRANCH   5  29
HETATM   29  C6  UNL     1      24.196   3.965  51.196  1.00  0.00     0.150 C 
HETATM   30  C7  UNL     1      23.724   3.881  52.600  1.00  0.00     0.036 C 
HETATM   31  C8  UNL     1      24.479   2.691  53.232  1.00  0.00     0.005 C 
HETATM   32  C9  UNL     1      24.153   1.448  52.469  1.00  0.00     0.026 C 
HETATM   33  C10 UNL     1      23.383   1.792  51.204  1.00  0.00     0.168 C 
HETATM   34  O1  UNL     1      24.115   2.743  50.520  1.00  0.00    -0.382 OA
ENDBRANCH   5  29
TORSDOF 5
ENDMDL
MODEL 9
REMARK VINA RESULT:      -7.4      3.187      7.782
REMARK  5 active torsions:
REMARK  status: ('A' for Active; 'I' for Inactive)
REMARK    1  A    between atoms: C5_5  and  C6_6 
REMARK    2  A    between atoms: C21_24  and  C22_25 
REMARK    3  A    between atoms: C22_25  and  C23_26 
REMARK    4  A    between atoms: C23_26  and  N3_27 
REMARK    5  A    between atoms: N3_27  and  C24_28 
ROOT
HETATM    1  C1  UNL     1      28.959   6.023  47.831  1.00  0.00     0.016 C 
HETATM    2  C2  UNL     1      27.662   5.777  48.583  1.00  0.00    -0.027 C 
HETATM    3  C3  UNL     1      26.932   4.919  49.276  1.00  0.00     0.026 C 
HETATM    4  C4  UNL     1      26.707   3.595  49.895  1.00  0.00    -0.015 C 
HETATM    5  C5  UNL     1      25.527   3.476  50.468  1.00  0.00    -0.049 C 
HETATM    6  C11 UNL     1      24.332   4.396  50.475  1.00  0.00     0.040 C 
HETATM    7  C12 UNL     1      23.752   4.444  49.059  1.00  0.00     0.068 C 
HETATM    8  C13 UNL     1      23.916   5.865  48.657  1.00  0.00     0.015 C 
HETATM    9  C14 UNL     1      23.331   6.595  47.702  1.00  0.00    -0.016 C 
HETATM   10  C15 UNL     1      23.445   8.027  47.240  1.00  0.00     0.048 C 
HETATM   11  C16 UNL     1      22.127   8.712  47.114  1.00  0.00     0.067 C 
HETATM   12  C17 UNL     1      21.129   8.034  46.307  1.00  0.00     0.068 A 
HETATM   13  N1  UNL     1      20.067   8.418  45.597  1.00  0.00    -0.177 NA
HETATM   14  N2  UNL     1      19.505   7.361  45.052  1.00  0.00    -0.284 N 
HETATM   15  C18 UNL     1      18.310   7.360  44.195  1.00  0.00     0.179 C 
HETATM   16  C19 UNL     1      20.208   6.272  45.411  1.00  0.00     0.126 A 
HETATM   17  C20 UNL     1      21.282   6.640  46.232  1.00  0.00     0.026 A 
HETATM   18  C21 UNL     1      22.358   5.913  46.909  1.00  0.00     0.033 C 
HETATM   19  N4  UNL     1      24.900   6.419  49.525  1.00  0.00    -0.383 N 
HETATM   20  C25 UNL     1      25.965   7.321  49.597  1.00  0.00     0.123 C 
HETATM   21  C26 UNL     1      27.111   7.156  48.617  1.00  0.00     0.030 C 
HETATM   22  C27 UNL     1      24.684   5.773  50.842  1.00  0.00     0.132 C 
ENDROOT
BRANCH  18  23
HETATM   23  C22 UNL     1      22.292   4.621  46.686  1.00  0.00    -0.098 C 
BRANCH  23  24
HETATM   24  C23 UNL     1      21.844   3.439  46.345  1.00  0.00     0.147 C 
BRANCH  24  25
HETATM   25  N3  UNL     1      21.256   2.593  47.262  1.00  0.00    -0.337 N 
HETATM   26  H27 UNL     1      21.788   1.697  47.299  1.00  0.00     0.168 HD
BRANCH  25  27
HETATM   27  C24 UNL     1      20.106   2.860  48.049  1.00  0.00     0.353 C 
HETATM   28  O2  UNL     1      19.071   3.349  47.528  1.00  0.00    -0.283 OA
ENDBRANCH  25  27
ENDBRANCH  24  25
ENDBRANCH  23  24
ENDBRANCH  18  23
BRANCH   5  29
HETATM   29  C6  UNL     1      25.128   2.226  51.151  1.00  0.00     0.150 C 
HETATM   30  C7  UNL     1      26.291   1.397  51.552  1.00  0.00     0.036 C 
HETATM   31  C8  UNL     1      25.716   0.239  52.396  1.00  0.00     0.005 C 
HETATM   32  C9  UNL     1      25.012   0.807  53.586  1.00  0.00     0.026 C 
HETATM   33  C10 UNL     1      24.894   2.317  53.457  1.00  0.00     0.168 C 
HETATM   34  O1  UNL     1      24.316   2.583  52.231  1.00  0.00    -0.382 OA
ENDBRANCH   5  29
TORSDOF 5
ENDMDL
