MODEL 1
REMARK VINA RESULT:      -8.1      0.000      0.000
REMARK  4 active torsions:
REMARK  status: ('A' for Active; 'I' for Inactive)
REMARK    1  A    between atoms: O1_1  and  C1_2 
REMARK    2  A    between atoms: C7_10  and  S1_11 
REMARK    3  A    between atoms: S1_11  and  C8_12 
REMARK    4  A    between atoms: C8_12  and  C9_13 
ROOT
HETATM    1  C1  UNL     1      22.667  -1.409  54.319  1.00  0.00     0.167 A 
HETATM    2  C2  UNL     1      21.359  -0.916  53.755  1.00  0.00     0.018 A 
HETATM    3  C3  UNL     1      21.517   0.086  52.911  1.00  0.00    -0.025 A 
HETATM    4  C4  UNL     1      20.509   0.836  52.159  1.00  0.00     0.043 C 
HETATM    5  C5  UNL     1      20.445   2.312  52.538  1.00  0.00     0.029 C 
HETATM    6  C6  UNL     1      21.713   3.020  52.291  1.00  0.00     0.277 C 
HETATM    7  N1  UNL     1      22.750   3.727  51.921  1.00  0.00    -0.230 NA
HETATM    8  N2  UNL     1      23.907   3.578  52.732  1.00  0.00    -0.176 NA
HETATM    9  C7  UNL     1      24.327   2.338  52.804  1.00  0.00     0.221 C 
HETATM   10  O2  UNL     1      23.715   1.248  52.155  1.00  0.00    -0.285 OA
HETATM   11  C15 UNL     1      22.937   0.352  52.838  1.00  0.00     0.083 A 
HETATM   12  C16 UNL     1      23.594  -0.482  53.625  1.00  0.00     0.046 A 
ENDROOT
BRANCH   9  13
HETATM   13  S1  UNL     1      25.796   2.036  53.814  1.00  0.00    -0.079 SA
BRANCH  13  14
HETATM   14  C8  UNL     1      27.289   2.004  52.797  1.00  0.00     0.121 C 
BRANCH  14  15
HETATM   15  C9  UNL     1      27.960   0.673  53.012  1.00  0.00    -0.049 A 
HETATM   16  C10 UNL     1      29.241   0.612  53.529  1.00  0.00     0.008 A 
HETATM   17  C11 UNL     1      29.742  -0.661  53.677  1.00  0.00     0.001 A 
HETATM   18  C12 UNL     1      29.072  -1.823  53.355  1.00  0.00     0.000 A 
HETATM   19  C13 UNL     1      27.802  -1.652  52.847  1.00  0.00     0.001 A 
HETATM   20  C14 UNL     1      27.187  -0.413  52.651  1.00  0.00     0.008 A 
ENDBRANCH  14  15
ENDBRANCH  13  14
ENDBRANCH   9  13
BRANCH   1  21
HETATM   21  O1  UNL     1      22.718  -1.355  55.687  1.00  0.00    -0.388 OA
HETATM   22  H1  UNL     1      22.583  -0.463  56.056  1.00  0.00     0.210 HD
ENDBRANCH   1  21
TORSDOF 4
ENDMDL
MODEL 2
REMARK VINA RESULT:      -8.0      3.572      5.751
REMARK  4 active torsions:
REMARK  status: ('A' for Active; 'I' for Inactive)
REMARK    1  A    between atoms: O1_1  and  C1_2 
REMARK    2  A    between atoms: C7_10  and  S1_11 
REMARK    3  A    between atoms: S1_11  and  C8_12 
REMARK    4  A    between atoms: C8_12  and  C9_13 
ROOT
HETATM    1  C1  UNL     1      28.035   1.860  53.074  1.00  0.00     0.167 A 
HETATM    2  C2  UNL     1      27.490   0.570  53.631  1.00  0.00     0.018 A 
HETATM    3  C3  UNL     1      26.323   0.245  53.109  1.00  0.00    -0.025 A 
HETATM    4  C4  UNL     1      25.474  -0.917  53.379  1.00  0.00     0.043 C 
HETATM    5  C5  UNL     1      24.120  -0.551  53.977  1.00  0.00     0.029 C 
HETATM    6  C6  UNL     1      23.319   0.311  53.090  1.00  0.00     0.277 C 
HETATM    7  N1  UNL     1      22.503   0.920  52.267  1.00  0.00    -0.230 NA
HETATM    8  N2  UNL     1      22.772   2.298  52.055  1.00  0.00    -0.176 NA
HETATM    9  C7  UNL     1      23.978   2.520  51.591  1.00  0.00     0.221 C 
HETATM   10  O2  UNL     1      24.928   1.515  51.322  1.00  0.00    -0.285 OA
HETATM   11  C15 UNL     1      25.985   1.285  52.162  1.00  0.00     0.083 A 
HETATM   12  C16 UNL     1      26.939   2.199  52.134  1.00  0.00     0.046 A 
ENDROOT
BRANCH   9  13
HETATM   13  S1  UNL     1      24.426   4.245  51.284  1.00  0.00    -0.079 SA
BRANCH  13  14
HETATM   14  C8  UNL     1      24.301   4.647  49.527  1.00  0.00     0.121 C 
BRANCH  14  15
HETATM   15  C9  UNL     1      25.653   5.126  49.071  1.00  0.00    -0.049 A 
HETATM   16  C10 UNL     1      26.748   4.284  49.128  1.00  0.00     0.008 A 
HETATM   17  C11 UNL     1      27.926   4.839  48.684  1.00  0.00     0.001 A 
HETATM   18  C12 UNL     1      28.070   6.126  48.205  1.00  0.00     0.000 A 
HETATM   19  C13 UNL     1      26.917   6.882  48.189  1.00  0.00     0.001 A 
HETATM   20  C14 UNL     1      25.666   6.430  48.615  1.00  0.00     0.008 A 
ENDBRANCH  14  15
ENDBRANCH  13  14
ENDBRANCH   9  13
BRANCH   1  21
HETATM   21  O1  UNL     1      28.276   2.804  54.038  1.00  0.00    -0.388 OA
HETATM   22  H1  UNL     1      27.532   3.415  54.193  1.00  0.00     0.210 HD
ENDBRANCH   1  21
TORSDOF 4
ENDMDL
MODEL 3
REMARK VINA RESULT:      -7.8      3.056      4.823
REMARK  4 active torsions:
REMARK  status: ('A' for Active; 'I' for Inactive)
REMARK    1  A    between atoms: O1_1  and  C1_2 
REMARK    2  A    between atoms: C7_10  and  S1_11 
REMARK    3  A    between atoms: S1_11  and  C8_12 
REMARK    4  A    between atoms: C8_12  and  C9_13 
ROOT
HETATM    1  C1  UNL     1      25.863   0.895  53.429  1.00  0.00     0.167 A 
HETATM    2  C2  UNL     1      24.943  -0.160  53.988  1.00  0.00     0.018 A 
HETATM    3  C3  UNL     1      23.735  -0.111  53.460  1.00  0.00    -0.025 A 
HETATM    4  C4  UNL     1      22.567  -0.951  53.731  1.00  0.00     0.043 C 
HETATM    5  C5  UNL     1      21.390  -0.180  54.320  1.00  0.00     0.029 C 
HETATM    6  C6  UNL     1      20.900   0.882  53.424  1.00  0.00     0.277 C 
HETATM    7  N1  UNL     1      20.315   1.709  52.594  1.00  0.00    -0.230 NA
HETATM    8  N2  UNL     1      20.999   2.935  52.377  1.00  0.00    -0.176 NA
HETATM    9  C7  UNL     1      22.217   2.770  51.919  1.00  0.00     0.221 C 
HETATM   10  O2  UNL     1      22.810   1.518  51.660  1.00  0.00    -0.285 OA
HETATM   11  C15 UNL     1      23.740   0.977  52.507  1.00  0.00     0.083 A 
HETATM   12  C16 UNL     1      24.930   1.550  52.481  1.00  0.00     0.046 A 
ENDROOT
BRANCH   9  13
HETATM   13  S1  UNL     1      23.178   4.269  51.608  1.00  0.00    -0.079 SA
BRANCH  13  14
HETATM   14  C8  UNL     1      23.260   4.634  49.840  1.00  0.00     0.121 C 
BRANCH  14  15
HETATM   15  C9  UNL     1      24.714   4.730  49.461  1.00  0.00    -0.049 A 
HETATM   16  C10 UNL     1      25.229   5.912  48.962  1.00  0.00     0.008 A 
HETATM   17  C11 UNL     1      26.569   5.871  48.653  1.00  0.00     0.001 A 
HETATM   18  C12 UNL     1      27.389   4.772  48.806  1.00  0.00     0.000 A 
HETATM   19  C13 UNL     1      26.778   3.645  49.311  1.00  0.00     0.001 A 
HETATM   20  C14 UNL     1      25.428   3.564  49.660  1.00  0.00     0.008 A 
ENDBRANCH  14  15
ENDBRANCH  13  14
ENDBRANCH   9  13
BRANCH   1  21
HETATM   21  O1  UNL     1      26.381   1.723  54.390  1.00  0.00    -0.388 OA
HETATM   22  H1  UNL     1      27.343   1.632  54.518  1.00  0.00     0.210 HD
ENDBRANCH   1  21
TORSDOF 4
ENDMDL
MODEL 4
REMARK VINA RESULT:      -7.6      2.106      3.379
REMARK  4 active torsions:
REMARK  status: ('A' for Active; 'I' for Inactive)
REMARK    1  A    between atoms: O1_1  and  C1_2 
REMARK    2  A    between atoms: C7_10  and  S1_11 
REMARK    3  A    between atoms: S1_11  and  C8_12 
REMARK    4  A    between atoms: C8_12  and  C9_13 
ROOT
HETATM    1  C1  UNL     1      21.052   1.277  50.259  1.00  0.00     0.167 A 
HETATM    2  C2  UNL     1      20.012   0.562  51.084  1.00  0.00     0.018 A 
HETATM    3  C3  UNL     1      20.408   0.352  52.325  1.00  0.00    -0.025 A 
HETATM    4  C4  UNL     1      19.701  -0.302  53.428  1.00  0.00     0.043 C 
HETATM    5  C5  UNL     1      20.389  -1.571  53.920  1.00  0.00     0.029 C 
HETATM    6  C6  UNL     1      21.748  -1.321  54.430  1.00  0.00     0.277 C 
HETATM    7  N1  UNL     1      22.880  -1.124  55.058  1.00  0.00    -0.230 NA
HETATM    8  N2  UNL     1      23.997  -0.851  54.224  1.00  0.00    -0.176 NA
HETATM    9  C7  UNL     1      23.824   0.201  53.460  1.00  0.00     0.221 C 
HETATM   10  O2  UNL     1      22.660   0.996  53.448  1.00  0.00    -0.285 OA
HETATM   11  C15 UNL     1      21.740   0.904  52.439  1.00  0.00     0.083 A 
HETATM   12  C16 UNL     1      22.113   1.426  51.284  1.00  0.00     0.046 A 
ENDROOT
BRANCH   9  13
HETATM   13  S1  UNL     1      25.187   0.637  52.356  1.00  0.00    -0.079 SA
BRANCH  13  14
HETATM   14  C8  UNL     1      26.679   1.038  53.293  1.00  0.00     0.121 C 
BRANCH  14  15
HETATM   15  C9  UNL     1      27.582  -0.166  53.253  1.00  0.00    -0.049 A 
HETATM   16  C10 UNL     1      27.114  -1.373  52.768  1.00  0.00     0.008 A 
HETATM   17  C11 UNL     1      28.034  -2.396  52.786  1.00  0.00     0.001 A 
HETATM   18  C12 UNL     1      29.334  -2.291  53.235  1.00  0.00     0.000 A 
HETATM   19  C13 UNL     1      29.701  -1.045  53.697  1.00  0.00     0.001 A 
HETATM   20  C14 UNL     1      28.857   0.068  53.731  1.00  0.00     0.008 A 
ENDBRANCH  14  15
ENDBRANCH  13  14
ENDBRANCH   9  13
BRANCH   1  21
HETATM   21  O1  UNL     1      21.426   0.579  49.142  1.00  0.00    -0.388 OA
HETATM   22  H1  UNL     1      21.024  -0.306  49.071  1.00  0.00     0.210 HD
ENDBRANCH   1  21
TORSDOF 4
ENDMDL
MODEL 5
REMARK VINA RESULT:      -7.6      3.618      5.576
REMARK  4 active torsions:
REMARK  status: ('A' for Active; 'I' for Inactive)
REMARK    1  A    between atoms: O1_1  and  C1_2 
REMARK    2  A    between atoms: C7_10  and  S1_11 
REMARK    3  A    between atoms: S1_11  and  C8_12 
REMARK    4  A    between atoms: C8_12  and  C9_13 
ROOT
HETATM    1  C1  UNL     1      22.203   0.315  52.897  1.00  0.00     0.167 A 
HETATM    2  C2  UNL     1      23.172  -0.767  53.301  1.00  0.00     0.018 A 
HETATM    3  C3  UNL     1      24.392  -0.305  53.498  1.00  0.00    -0.025 A 
HETATM    4  C4  UNL     1      25.605  -1.024  53.895  1.00  0.00     0.043 C 
HETATM    5  C5  UNL     1      26.703  -0.988  52.838  1.00  0.00     0.029 C 
HETATM    6  C6  UNL     1      27.152   0.381  52.529  1.00  0.00     0.277 C 
HETATM    7  N1  UNL     1      27.708   1.553  52.354  1.00  0.00    -0.230 NA
HETATM    8  N2  UNL     1      26.951   2.476  51.586  1.00  0.00    -0.176 NA
HETATM    9  C7  UNL     1      25.765   2.715  52.093  1.00  0.00     0.221 C 
HETATM   10  O2  UNL     1      25.269   2.130  53.275  1.00  0.00    -0.285 OA
HETATM   11  C15 UNL     1      24.348   1.118  53.242  1.00  0.00     0.083 A 
HETATM   12  C16 UNL     1      23.123   1.478  52.903  1.00  0.00     0.046 A 
ENDROOT
BRANCH   9  13
HETATM   13  S1  UNL     1      24.715   3.877  51.190  1.00  0.00    -0.079 SA
BRANCH  13  14
HETATM   14  C8  UNL     1      24.966   3.732  49.407  1.00  0.00     0.121 C 
BRANCH  14  15
HETATM   15  C9  UNL     1      25.919   4.820  48.989  1.00  0.00    -0.049 A 
HETATM   16  C10 UNL     1      25.457   6.103  48.762  1.00  0.00     0.008 A 
HETATM   17  C11 UNL     1      26.425   7.005  48.385  1.00  0.00     0.001 A 
HETATM   18  C12 UNL     1      27.766   6.718  48.231  1.00  0.00     0.000 A 
HETATM   19  C13 UNL     1      28.122   5.410  48.483  1.00  0.00     0.001 A 
HETATM   20  C14 UNL     1      27.231   4.406  48.870  1.00  0.00     0.008 A 
ENDBRANCH  14  15
ENDBRANCH  13  14
ENDBRANCH   9  13
BRANCH   1  21
HETATM   21  O1  UNL     1      21.595   0.070  51.693  1.00  0.00    -0.388 OA
HETATM   22  H1  UNL     1      21.950   0.595  50.953  1.00  0.00     0.210 HD
ENDBRANCH   1  21
TORSDOF 4
ENDMDL
MODEL 6
REMARK VINA RESULT:      -7.4      8.005      9.478
REMARK  4 active torsions:
REMARK  status: ('A' for Active; 'I' for Inactive)
REMARK    1  A    between atoms: O1_1  and  C1_2 
REMARK    2  A    between atoms: C7_10  and  S1_11 
REMARK    3  A    between atoms: S1_11  and  C8_12 
REMARK    4  A    between atoms: C8_12  and  C9_13 
ROOT
HETATM    1  C1  UNL     1      27.544   4.889  48.678  1.00  0.00     0.167 A 
HETATM    2  C2  UNL     1      26.582   6.045  48.578  1.00  0.00     0.018 A 
HETATM    3  C3  UNL     1      27.184   7.180  48.278  1.00  0.00    -0.025 A 
HETATM    4  C4  UNL     1      26.611   8.515  48.093  1.00  0.00     0.043 C 
HETATM    5  C5  UNL     1      27.107   9.533  49.114  1.00  0.00     0.029 C 
HETATM    6  C6  UNL     1      28.566   9.731  49.060  1.00  0.00     0.277 C 
HETATM    7  N1  UNL     1      29.823  10.073  48.928  1.00  0.00    -0.230 NA
HETATM    8  N2  UNL     1      30.764   9.132  49.422  1.00  0.00    -0.176 NA
HETATM    9  C7  UNL     1      30.654   7.952  48.860  1.00  0.00     0.221 C 
HETATM   10  O2  UNL     1      29.710   7.625  47.867  1.00  0.00    -0.285 OA
HETATM   11  C15 UNL     1      28.594   6.886  48.154  1.00  0.00     0.083 A 
HETATM   12  C16 UNL     1      28.809   5.601  48.377  1.00  0.00     0.046 A 
ENDROOT
BRANCH   9  13
HETATM   13  S1  UNL     1      31.806   6.676  49.419  1.00  0.00    -0.079 SA
BRANCH  13  14
HETATM   14  C8  UNL     1      33.231   6.558  48.314  1.00  0.00     0.121 C 
BRANCH  14  15
HETATM   15  C9  UNL     1      33.322   5.133  47.836  1.00  0.00    -0.049 A 
HETATM   16  C10 UNL     1      34.501   4.424  47.972  1.00  0.00     0.008 A 
HETATM   17  C11 UNL     1      34.455   3.134  47.496  1.00  0.00     0.001 A 
HETATM   18  C12 UNL     1      33.353   2.535  46.921  1.00  0.00     0.000 A 
HETATM   19  C13 UNL     1      32.228   3.327  46.835  1.00  0.00     0.001 A 
HETATM   20  C14 UNL     1      32.153   4.649  47.280  1.00  0.00     0.008 A 
ENDBRANCH  14  15
ENDBRANCH  13  14
ENDBRANCH   9  13
BRANCH   1  21
HETATM   21  O1  UNL     1      27.512   4.266  49.897  1.00  0.00    -0.388 OA
HETATM   22  H1  UNL     1      26.650   3.867  50.120  1.00  0.00     0.210 HD
ENDBRANCH   1  21
TORSDOF 4
ENDMDL
MODEL 7
REMARK VINA RESULT:      -7.3      2.311      3.828
REMARK  4 active torsions:
REMARK  status: ('A' for Active; 'I' for Inactive)
REMARK    1  A    between atoms: O1_1  and  C1_2 
REMARK    2  A    between atoms: C7_10  and  S1_11 
REMARK    3  A    between atoms: S1_11  and  C8_12 
REMARK    4  A    between atoms: C8_12  and  C9_13 
ROOT
HETATM    1  C1  UNL     1      25.382   3.497  50.056  1.00  0.00     0.167 A 
HETATM    2  C2  UNL     1      24.117   3.377  49.247  1.00  0.00     0.018 A 
HETATM    3  C3  UNL     1      23.122   2.851  49.937  1.00  0.00    -0.025 A 
HETATM    4  C4  UNL     1      21.747   2.570  49.519  1.00  0.00     0.043 C 
HETATM    5  C5  UNL     1      21.397   1.086  49.549  1.00  0.00     0.029 C 
HETATM    6  C6  UNL     1      21.517   0.499  50.895  1.00  0.00     0.277 C 
HETATM    7  N1  UNL     1      21.432  -0.021  52.094  1.00  0.00    -0.230 NA
HETATM    8  N2  UNL     1      22.673  -0.310  52.720  1.00  0.00    -0.176 NA
HETATM    9  C7  UNL     1      23.445   0.744  52.841  1.00  0.00     0.221 C 
HETATM   10  O2  UNL     1      23.103   2.039  52.405  1.00  0.00    -0.285 OA
HETATM   11  C15 UNL     1      23.634   2.573  51.261  1.00  0.00     0.083 A 
HETATM   12  C16 UNL     1      24.903   2.932  51.340  1.00  0.00     0.046 A 
ENDROOT
BRANCH   9  13
HETATM   13  S1  UNL     1      25.053   0.486  53.625  1.00  0.00    -0.079 SA
BRANCH  13  14
HETATM   14  C8  UNL     1      25.976  -0.830  52.801  1.00  0.00     0.121 C 
BRANCH  14  15
HETATM   15  C9  UNL     1      27.439  -0.606  53.078  1.00  0.00    -0.049 A 
HETATM   16  C10 UNL     1      27.924   0.673  53.277  1.00  0.00     0.008 A 
HETATM   17  C11 UNL     1      29.276   0.745  53.521  1.00  0.00     0.001 A 
HETATM   18  C12 UNL     1      30.134  -0.335  53.578  1.00  0.00     0.000 A 
HETATM   19  C13 UNL     1      29.549  -1.566  53.367  1.00  0.00     0.001 A 
HETATM   20  C14 UNL     1      28.191  -1.765  53.110  1.00  0.00     0.008 A 
ENDBRANCH  14  15
ENDBRANCH  13  14
ENDBRANCH   9  13
BRANCH   1  21
HETATM   21  O1  UNL     1      26.444   2.834  49.498  1.00  0.00    -0.388 OA
HETATM   22  H1  UNL     1      26.967   3.372  48.876  1.00  0.00     0.210 HD
ENDBRANCH   1  21
TORSDOF 4
ENDMDL
MODEL 8
REMARK VINA RESULT:      -7.1      3.928      5.672
REMARK  4 active torsions:
REMARK  status: ('A' for Active; 'I' for Inactive)
REMARK    1  A    between atoms: O1_1  and  C1_2 
REMARK    2  A    between atoms: C7_10  and  S1_11 
REMARK    3  A    between atoms: S1_11  and  C8_12 
REMARK    4  A    between atoms: C8_12  and  C9_13 
ROOT
HETATM    1  C1  UNL     1      21.087   1.207  49.936  1.00  0.00     0.167 A 
HETATM    2  C2  UNL     1      21.152   0.238  51.089  1.00  0.00     0.018 A 
HETATM    3  C3  UNL     1      21.992   0.625  52.029  1.00  0.00    -0.025 A 
HETATM    4  C4  UNL     1      22.338  -0.028  53.294  1.00  0.00     0.043 C 
HETATM    5  C5  UNL     1      23.802  -0.446  53.379  1.00  0.00     0.029 C 
HETATM    6  C6  UNL     1      24.727   0.695  53.271  1.00  0.00     0.277 C 
HETATM    7  N1  UNL     1      25.577   1.687  53.364  1.00  0.00    -0.230 NA
HETATM    8  N2  UNL     1      25.851   2.367  52.147  1.00  0.00    -0.176 NA
HETATM    9  C7  UNL     1      24.777   2.868  51.586  1.00  0.00     0.221 C 
HETATM   10  O2  UNL     1      23.474   2.757  52.112  1.00  0.00    -0.285 OA
HETATM   11  C15 UNL     1      22.563   1.880  51.590  1.00  0.00     0.083 A 
HETATM   12  C16 UNL     1      22.062   2.217  50.415  1.00  0.00     0.046 A 
ENDROOT
BRANCH   9  13
HETATM   13  S1  UNL     1      25.013   3.756  50.029  1.00  0.00    -0.079 SA
BRANCH  13  14
HETATM   14  C8  UNL     1      26.746   3.725  49.519  1.00  0.00     0.121 C 
BRANCH  14  15
HETATM   15  C9  UNL     1      27.053   5.047  48.866  1.00  0.00    -0.049 A 
HETATM   16  C10 UNL     1      26.066   6.005  48.730  1.00  0.00     0.008 A 
HETATM   17  C11 UNL     1      26.472   7.168  48.117  1.00  0.00     0.001 A 
HETATM   18  C12 UNL     1      27.748   7.421  47.655  1.00  0.00     0.000 A 
HETATM   19  C13 UNL     1      28.657   6.402  47.840  1.00  0.00     0.001 A 
HETATM   20  C14 UNL     1      28.363   5.178  48.447  1.00  0.00     0.008 A 
ENDBRANCH  14  15
ENDBRANCH  13  14
ENDBRANCH   9  13
BRANCH   1  21
HETATM   21  O1  UNL     1      21.400   0.634  48.732  1.00  0.00    -0.388 OA
HETATM   22  H1  UNL     1      22.347   0.674  48.505  1.00  0.00     0.210 HD
ENDBRANCH   1  21
TORSDOF 4
ENDMDL
MODEL 9
REMARK VINA RESULT:      -7.1      2.641      5.907
REMARK  4 active torsions:
REMARK  status: ('A' for Active; 'I' for Inactive)
REMARK    1  A    between atoms: O1_1  and  C1_2 
REMARK    2  A    between atoms: C7_10  and  S1_11 
REMARK    3  A    between atoms: S1_11  and  C8_12 
REMARK    4  A    between atoms: C8_12  and  C9_13 
ROOT
HETATM    1  C1  UNL     1      22.094   0.512  52.748  1.00  0.00     0.167 A 
HETATM    2  C2  UNL     1      23.078  -0.534  53.204  1.00  0.00     0.018 A 
HETATM    3  C3  UNL     1      24.292  -0.046  53.375  1.00  0.00    -0.025 A 
HETATM    4  C4  UNL     1      25.516  -0.725  53.805  1.00  0.00     0.043 C 
HETATM    5  C5  UNL     1      26.612  -0.727  52.745  1.00  0.00     0.029 C 
HETATM    6  C6  UNL     1      27.041   0.630  52.366  1.00  0.00     0.277 C 
HETATM    7  N1  UNL     1      27.580   1.800  52.132  1.00  0.00    -0.230 NA
HETATM    8  N2  UNL     1      26.807   2.672  51.319  1.00  0.00    -0.176 NA
HETATM    9  C7  UNL     1      25.619   2.919  51.816  1.00  0.00     0.221 C 
HETATM   10  O2  UNL     1      25.133   2.388  53.027  1.00  0.00    -0.285 OA
HETATM   11  C15 UNL     1      24.227   1.362  53.047  1.00  0.00     0.083 A 
HETATM   12  C16 UNL     1      22.997   1.687  52.693  1.00  0.00     0.046 A 
ENDROOT
BRANCH   9  13
HETATM   13  S1  UNL     1      24.551   4.020  50.859  1.00  0.00    -0.079 SA
BRANCH  13  14
HETATM   14  C8  UNL     1      24.205   3.332  49.224  1.00  0.00     0.121 C 
BRANCH  14  15
HETATM   15  C9  UNL     1      22.742   2.978  49.178  1.00  0.00    -0.049 A 
HETATM   16  C10 UNL     1      22.305   1.917  48.408  1.00  0.00     0.008 A 
HETATM   17  C11 UNL     1      20.947   1.697  48.450  1.00  0.00     0.001 A 
HETATM   18  C12 UNL     1      20.042   2.437  49.181  1.00  0.00     0.000 A 
HETATM   19  C13 UNL     1      20.581   3.472  49.916  1.00  0.00     0.001 A 
HETATM   20  C14 UNL     1      21.940   3.794  49.953  1.00  0.00     0.008 A 
ENDBRANCH  14  15
ENDBRANCH  13  14
ENDBRANCH   9  13
BRANCH   1  21
HETATM   21  O1  UNL     1      21.487   0.199  51.560  1.00  0.00    -0.388 OA
HETATM   22  H1  UNL     1      22.097  -0.131  50.875  1.00  0.00     0.210 HD
ENDBRANCH   1  21
TORSDOF 4
ENDMDL
