MODEL 1
REMARK VINA RESULT:      -7.5      0.000      0.000
REMARK  4 active torsions:
REMARK  status: ('A' for Active; 'I' for Inactive)
REMARK    1  A    between atoms: O1_1  and  C1_2 
REMARK    2  A    between atoms: C1_2  and  C2_3 
REMARK    3  A    between atoms: C2_3  and  N1_4 
REMARK    4  A    between atoms: C12_19  and  C13_20 
ROOT
HETATM    1  N1  UNL     1      27.625  -0.109  53.234  1.00  0.00    -0.354 N 
HETATM    2  C3  UNL     1      29.036   1.119  53.774  1.00  0.00     0.214 C 
HETATM    3  C4  UNL     1      28.137   1.578  53.080  1.00  0.00    -0.096 C 
HETATM    4  S1  UNL     1      27.384   1.955  52.473  1.00  0.00    -0.047 SA
HETATM    5  C5  UNL     1      26.652   2.312  51.864  1.00  0.00     0.362 A 
HETATM    6  N2  UNL     1      25.440   3.159  52.121  1.00  0.00     0.113 N 
HETATM    7  C6  UNL     1      24.248   2.567  51.582  1.00  0.00     0.255 C 
HETATM    8  C7  UNL     1      23.464   2.134  52.729  1.00  0.00     0.059 C 
HETATM    9  C8  UNL     1      22.793   1.196  52.137  1.00  0.00     0.124 C 
HETATM   10  N3  UNL     1      22.901   0.011  52.799  1.00  0.00    -0.214 NA
HETATM   11  C9  UNL     1      24.000  -0.580  53.259  1.00  0.00     0.298 C 
HETATM   12  N4  UNL     1      24.998   0.138  52.998  1.00  0.00    -0.395 NA
HETATM   13  C10 UNL     1      26.060   0.699  52.805  1.00  0.00     0.260 A 
HETATM   14  N5  UNL     1      22.155   1.641  50.915  1.00  0.00    -0.374 N 
HETATM   15  C11 UNL     1      22.129   3.018  50.453  1.00  0.00     0.129 C 
HETATM   16  C12 UNL     1      23.500   3.653  50.797  1.00  0.00     0.054 C 
HETATM   17  H9  UNL     1      25.721   3.797  51.190  1.00  0.00     0.318 HD
HETATM   18  H13 UNL     1      21.663   0.828  50.419  1.00  0.00     0.161 HD
ENDROOT
BRANCH   1  19
HETATM   19  C2  UNL     1      27.155  -1.537  53.087  1.00  0.00     0.148 C 
BRANCH  19  20
HETATM   20  C1  UNL     1      28.483  -2.226  53.036  1.00  0.00     0.183 C 
BRANCH  20  21
HETATM   21  O1  UNL     1      28.676  -3.511  53.399  1.00  0.00    -0.399 OA
HETATM   22  H1  UNL     1      29.369  -3.588  54.236  1.00  0.00     0.209 HD
ENDBRANCH  20  21
ENDBRANCH  19  20
ENDBRANCH   1  19
BRANCH  16  23
HETATM   23  C13 UNL     1      23.476   4.891  51.645  1.00  0.00     0.123 C 
HETATM   24 CL1  UNL     1      21.879   5.635  51.621  1.00  0.00    -0.130 Cl
ENDBRANCH  16  23
TORSDOF 4
ENDMDL
MODEL 2
REMARK VINA RESULT:      -7.3      2.563      3.842
REMARK  4 active torsions:
REMARK  status: ('A' for Active; 'I' for Inactive)
REMARK    1  A    between atoms: O1_1  and  C1_2 
REMARK    2  A    between atoms: C1_2  and  C2_3 
REMARK    3  A    between atoms: C2_3  and  N1_4 
REMARK    4  A    between atoms: C12_19  and  C13_20 
ROOT
HETATM    1  N1  UNL     1      26.687   0.627  52.524  1.00  0.00    -0.354 N 
HETATM    2  C3  UNL     1      26.980  -1.255  52.928  1.00  0.00     0.214 C 
HETATM    3  C4  UNL     1      25.854  -0.814  53.125  1.00  0.00    -0.096 C 
HETATM    4  S1  UNL     1      24.908  -0.428  53.310  1.00  0.00    -0.047 SA
HETATM    5  C5  UNL     1      23.989  -0.039  53.506  1.00  0.00     0.362 A 
HETATM    6  N2  UNL     1      22.678  -0.115  52.781  1.00  0.00     0.113 N 
HETATM    7  C6  UNL     1      22.106   1.185  52.566  1.00  0.00     0.255 C 
HETATM    8  C7  UNL     1      22.213   1.436  51.136  1.00  0.00     0.059 C 
HETATM    9  C8  UNL     1      22.210   2.731  51.186  1.00  0.00     0.124 C 
HETATM   10  N3  UNL     1      23.280   3.257  50.527  1.00  0.00    -0.214 NA
HETATM   11  C9  UNL     1      24.558   2.905  50.615  1.00  0.00     0.298 C 
HETATM   12  N4  UNL     1      24.673   1.956  51.431  1.00  0.00    -0.395 NA
HETATM   13  C10 UNL     1      24.956   1.059  52.202  1.00  0.00     0.260 A 
HETATM   14  N5  UNL     1      21.112   3.266  51.964  1.00  0.00    -0.374 N 
HETATM   15  C11 UNL     1      20.030   2.470  52.518  1.00  0.00     0.129 C 
HETATM   16  C12 UNL     1      20.634   1.126  52.995  1.00  0.00     0.054 C 
HETATM   17  H9  UNL     1      22.159  -0.337  53.798  1.00  0.00     0.318 HD
HETATM   18  H13 UNL     1      21.176   4.333  52.038  1.00  0.00     0.161 HD
ENDROOT
BRANCH   1  19
HETATM   19  C2  UNL     1      27.284   1.984  52.235  1.00  0.00     0.148 C 
BRANCH  19  20
HETATM   20  C1  UNL     1      28.290   2.049  53.342  1.00  0.00     0.183 C 
BRANCH  20  21
HETATM   21  O1  UNL     1      29.398   2.818  53.306  1.00  0.00    -0.399 OA
HETATM   22  H1  UNL     1      29.196   3.786  52.847  1.00  0.00     0.209 HD
ENDBRANCH  20  21
ENDBRANCH  19  20
ENDBRANCH   1  19
BRANCH  16  23
HETATM   23  C13 UNL     1      20.042  -0.124  52.413  1.00  0.00     0.123 C 
HETATM   24 CL1  UNL     1      18.787   0.266  51.239  1.00  0.00    -0.130 Cl
ENDBRANCH  16  23
TORSDOF 4
ENDMDL
MODEL 3
REMARK VINA RESULT:      -7.1      2.422      3.368
REMARK  4 active torsions:
REMARK  status: ('A' for Active; 'I' for Inactive)
REMARK    1  A    between atoms: O1_1  and  C1_2 
REMARK    2  A    between atoms: C1_2  and  C2_3 
REMARK    3  A    between atoms: C2_3  and  N1_4 
REMARK    4  A    between atoms: C12_19  and  C13_20 
ROOT
HETATM    1  N1  UNL     1      25.853   0.180  53.007  1.00  0.00    -0.354 N 
HETATM    2  C3  UNL     1      26.502   1.831  52.205  1.00  0.00     0.214 C 
HETATM    3  C4  UNL     1      25.324   1.548  52.018  1.00  0.00    -0.096 C 
HETATM    4  S1  UNL     1      24.334   1.292  51.844  1.00  0.00    -0.047 SA
HETATM    5  C5  UNL     1      23.369   1.024  51.663  1.00  0.00     0.362 A 
HETATM    6  N2  UNL     1      22.062   1.491  52.233  1.00  0.00     0.113 N 
HETATM    7  C6  UNL     1      21.254   0.396  52.692  1.00  0.00     0.255 C 
HETATM    8  C7  UNL     1      21.247   0.488  54.145  1.00  0.00     0.059 C 
HETATM    9  C8  UNL     1      21.011  -0.762  54.397  1.00  0.00     0.124 C 
HETATM   10  N3  UNL     1      21.935  -1.281  55.251  1.00  0.00    -0.214 NA
HETATM   11  C9  UNL     1      23.259  -1.178  55.197  1.00  0.00     0.298 C 
HETATM   12  N4  UNL     1      23.582  -0.489  54.197  1.00  0.00    -0.395 NA
HETATM   13  C10 UNL     1      24.059   0.133  53.267  1.00  0.00     0.260 A 
HETATM   14  N5  UNL     1      19.870  -1.280  53.670  1.00  0.00    -0.374 N 
HETATM   15  C11 UNL     1      18.978  -0.475  52.854  1.00  0.00     0.129 C 
HETATM   16  C12 UNL     1      19.838   0.593  52.133  1.00  0.00     0.054 C 
HETATM   17  H9  UNL     1      21.639   1.542  51.151  1.00  0.00     0.318 HD
HETATM   18  H13 UNL     1      19.742  -2.328  53.852  1.00  0.00     0.161 HD
ENDROOT
BRANCH   1  19
HETATM   19  C2  UNL     1      26.179  -1.145  53.655  1.00  0.00     0.148 C 
BRANCH  19  20
HETATM   20  C1  UNL     1      27.037  -1.737  52.581  1.00  0.00     0.183 C 
BRANCH  20  21
HETATM   21  O1  UNL     1      27.681  -2.917  52.699  1.00  0.00    -0.399 OA
HETATM   22  H1  UNL     1      27.019  -3.695  53.077  1.00  0.00     0.209 HD
ENDBRANCH  20  21
ENDBRANCH  19  20
ENDBRANCH   1  19
BRANCH  16  23
HETATM   23  C13 UNL     1      19.458   2.027  52.354  1.00  0.00     0.123 C 
HETATM   24 CL1  UNL     1      19.006   2.796  50.835  1.00  0.00    -0.130 Cl
ENDBRANCH  16  23
TORSDOF 4
ENDMDL
MODEL 4
REMARK VINA RESULT:      -7.0      3.735      5.952
REMARK  4 active torsions:
REMARK  status: ('A' for Active; 'I' for Inactive)
REMARK    1  A    between atoms: O1_1  and  C1_2 
REMARK    2  A    between atoms: C1_2  and  C2_3 
REMARK    3  A    between atoms: C2_3  and  N1_4 
REMARK    4  A    between atoms: C12_19  and  C13_20 
ROOT
HETATM    1  N1  UNL     1      22.898   2.390  50.970  1.00  0.00    -0.354 N 
HETATM    2  C3  UNL     1      23.571   3.182  49.324  1.00  0.00     0.214 C 
HETATM    3  C4  UNL     1      24.389   2.964  50.210  1.00  0.00    -0.096 C 
HETATM    4  S1  UNL     1      25.073   2.798  50.972  1.00  0.00    -0.047 SA
HETATM    5  C5  UNL     1      25.734   2.648  51.731  1.00  0.00     0.362 A 
HETATM    6  N2  UNL     1      26.778   1.599  51.977  1.00  0.00     0.113 N 
HETATM    7  C6  UNL     1      26.648   1.005  53.278  1.00  0.00     0.255 C 
HETATM    8  C7  UNL     1      26.177  -0.354  53.050  1.00  0.00     0.059 C 
HETATM    9  C8  UNL     1      25.601  -0.532  54.198  1.00  0.00     0.124 C 
HETATM   10  N3  UNL     1      24.309  -0.934  54.049  1.00  0.00    -0.214 NA
HETATM   11  C9  UNL     1      23.370  -0.420  53.262  1.00  0.00     0.298 C 
HETATM   12  N4  UNL     1      23.850   0.546  52.618  1.00  0.00    -0.395 NA
HETATM   13  C10 UNL     1      24.153   1.510  51.940  1.00  0.00     0.260 A 
HETATM   14  N5  UNL     1      26.460  -0.211  55.319  1.00  0.00    -0.374 N 
HETATM   15  C11 UNL     1      27.867   0.135  55.207  1.00  0.00     0.129 C 
HETATM   16  C12 UNL     1      28.038   0.993  53.928  1.00  0.00     0.054 C 
HETATM   17  H9  UNL     1      27.519   2.444  52.275  1.00  0.00     0.318 HD
HETATM   18  H13 UNL     1      25.934  -0.309  56.248  1.00  0.00     0.161 HD
ENDROOT
BRANCH   1  19
HETATM   19  C2  UNL     1      21.709   2.054  51.839  1.00  0.00     0.148 C 
BRANCH  19  20
HETATM   20  C1  UNL     1      21.072   3.406  51.912  1.00  0.00     0.183 C 
BRANCH  20  21
HETATM   21  O1  UNL     1      19.817   3.622  52.359  1.00  0.00    -0.399 OA
HETATM   22  H1  UNL     1      19.729   4.592  52.847  1.00  0.00     0.209 HD
ENDBRANCH  20  21
ENDBRANCH  19  20
ENDBRANCH   1  19
BRANCH  16  23
HETATM   23  C13 UNL     1      29.013   0.491  52.905  1.00  0.00     0.123 C 
HETATM   24 CL1  UNL     1      29.887  -0.914  53.509  1.00  0.00    -0.130 Cl
ENDBRANCH  16  23
TORSDOF 4
ENDMDL
MODEL 5
REMARK VINA RESULT:      -6.9      2.426      3.923
REMARK  4 active torsions:
REMARK  status: ('A' for Active; 'I' for Inactive)
REMARK    1  A    between atoms: O1_1  and  C1_2 
REMARK    2  A    between atoms: C1_2  and  C2_3 
REMARK    3  A    between atoms: C2_3  and  N1_4 
REMARK    4  A    between atoms: C12_19  and  C13_20 
ROOT
HETATM    1  N1  UNL     1      24.392  -0.161  53.446  1.00  0.00    -0.354 N 
HETATM    2  C3  UNL     1      22.658  -1.045  53.402  1.00  0.00     0.214 C 
HETATM    3  C4  UNL     1      22.696   0.123  53.031  1.00  0.00    -0.096 C 
HETATM    4  S1  UNL     1      22.730   1.119  52.740  1.00  0.00    -0.047 SA
HETATM    5  C5  UNL     1      22.769   2.099  52.474  1.00  0.00     0.362 A 
HETATM    6  N2  UNL     1      22.757   2.791  51.142  1.00  0.00     0.113 N 
HETATM    7  C6  UNL     1      23.844   3.721  51.011  1.00  0.00     0.255 C 
HETATM    8  C7  UNL     1      24.755   3.135  50.038  1.00  0.00     0.059 C 
HETATM    9  C8  UNL     1      25.837   3.727  50.435  1.00  0.00     0.124 C 
HETATM   10  N3  UNL     1      26.831   2.831  50.685  1.00  0.00    -0.214 NA
HETATM   11  C9  UNL     1      26.770   1.704  51.387  1.00  0.00     0.298 C 
HETATM   12  N4  UNL     1      25.600   1.546  51.818  1.00  0.00    -0.395 NA
HETATM   13  C10 UNL     1      24.533   1.259  52.326  1.00  0.00     0.260 A 
HETATM   14  N5  UNL     1      25.687   5.162  50.555  1.00  0.00    -0.374 N 
HETATM   15  C11 UNL     1      24.508   5.905  50.142  1.00  0.00     0.129 C 
HETATM   16  C12 UNL     1      23.268   5.042  50.482  1.00  0.00     0.054 C 
HETATM   17  H9  UNL     1      21.975   3.539  51.568  1.00  0.00     0.318 HD
HETATM   18  H13 UNL     1      26.578   5.612  50.945  1.00  0.00     0.161 HD
ENDROOT
BRANCH   1  19
HETATM   19  C2  UNL     1      25.819  -0.161  53.941  1.00  0.00     0.148 C 
BRANCH  19  20
HETATM   20  C1  UNL     1      25.572  -0.418  55.395  1.00  0.00     0.183 C 
BRANCH  20  21
HETATM   21  O1  UNL     1      25.067  -1.573  55.877  1.00  0.00    -0.399 OA
HETATM   22  H1  UNL     1      24.132  -1.406  56.411  1.00  0.00     0.209 HD
ENDBRANCH  20  21
ENDBRANCH  19  20
ENDBRANCH   1  19
BRANCH  16  23
HETATM   23  C13 UNL     1      22.344   4.712  49.347  1.00  0.00     0.123 C 
HETATM   24 CL1  UNL     1      22.981   5.325  47.823  1.00  0.00    -0.130 Cl
ENDBRANCH  16  23
TORSDOF 4
ENDMDL
MODEL 6
REMARK VINA RESULT:      -6.9      3.911      6.352
REMARK  4 active torsions:
REMARK  status: ('A' for Active; 'I' for Inactive)
REMARK    1  A    between atoms: O1_1  and  C1_2 
REMARK    2  A    between atoms: C1_2  and  C2_3 
REMARK    3  A    between atoms: C2_3  and  N1_4 
REMARK    4  A    between atoms: C12_19  and  C13_20 
ROOT
HETATM    1  N1  UNL     1      20.599   0.457  52.321  1.00  0.00    -0.354 N 
HETATM    2  C3  UNL     1      19.944  -0.745  53.706  1.00  0.00     0.214 C 
HETATM    3  C4  UNL     1      21.154  -0.729  53.512  1.00  0.00    -0.096 C 
HETATM    4  S1  UNL     1      22.175  -0.727  53.327  1.00  0.00    -0.047 SA
HETATM    5  C5  UNL     1      23.172  -0.733  53.127  1.00  0.00     0.362 A 
HETATM    6  N2  UNL     1      24.352  -0.125  53.827  1.00  0.00     0.113 N 
HETATM    7  C6  UNL     1      25.169   0.646  52.933  1.00  0.00     0.255 C 
HETATM    8  C7  UNL     1      24.972   2.038  53.311  1.00  0.00     0.059 C 
HETATM    9  C8  UNL     1      25.264   2.573  52.167  1.00  0.00     0.124 C 
HETATM   10  N3  UNL     1      24.273   3.402  51.738  1.00  0.00    -0.214 NA
HETATM   11  C9  UNL     1      22.965   3.172  51.694  1.00  0.00     0.298 C 
HETATM   12  N4  UNL     1      22.730   2.019  52.134  1.00  0.00    -0.395 NA
HETATM   13  C10 UNL     1      22.339   0.930  52.508  1.00  0.00     0.260 A 
HETATM   14  N5  UNL     1      26.528   2.111  51.632  1.00  0.00    -0.374 N 
HETATM   15  C11 UNL     1      27.461   1.254  52.344  1.00  0.00     0.129 C 
HETATM   16  C12 UNL     1      26.629   0.229  53.155  1.00  0.00     0.054 C 
HETATM   17  H9  UNL     1      24.913  -1.136  53.704  1.00  0.00     0.318 HD
HETATM   18  H13 UNL     1      26.708   2.522  50.659  1.00  0.00     0.161 HD
ENDROOT
BRANCH   1  19
HETATM   19  C2  UNL     1      20.288   1.326  51.126  1.00  0.00     0.148 C 
BRANCH  19  20
HETATM   20  C1  UNL     1      19.189   2.159  51.710  1.00  0.00     0.183 C 
BRANCH  20  21
HETATM   21  O1  UNL     1      19.396   3.313  52.377  1.00  0.00    -0.399 OA
HETATM   22  H1  UNL     1      19.800   3.132  53.372  1.00  0.00     0.209 HD
ENDBRANCH  20  21
ENDBRANCH  19  20
ENDBRANCH   1  19
BRANCH  16  23
HETATM   23  C13 UNL     1      26.868   0.187  54.636  1.00  0.00     0.123 C 
HETATM   24 CL1  UNL     1      28.594   0.199  54.991  1.00  0.00    -0.130 Cl
ENDBRANCH  16  23
TORSDOF 4
ENDMDL
MODEL 7
REMARK VINA RESULT:      -6.8      2.259      2.609
REMARK  4 active torsions:
REMARK  status: ('A' for Active; 'I' for Inactive)
REMARK    1  A    between atoms: O1_1  and  C1_2 
REMARK    2  A    between atoms: C1_2  and  C2_3 
REMARK    3  A    between atoms: C2_3  and  N1_4 
REMARK    4  A    between atoms: C12_19  and  C13_20 
ROOT
HETATM    1  N1  UNL     1      26.334   0.403  53.710  1.00  0.00    -0.354 N 
HETATM    2  C3  UNL     1      28.146   0.947  54.170  1.00  0.00     0.214 C 
HETATM    3  C4  UNL     1      27.654   1.449  53.167  1.00  0.00    -0.096 C 
HETATM    4  S1  UNL     1      27.240   1.854  52.305  1.00  0.00    -0.047 SA
HETATM    5  C5  UNL     1      26.834   2.232  51.453  1.00  0.00     0.362 A 
HETATM    6  N2  UNL     1      26.224   3.563  51.122  1.00  0.00     0.113 N 
HETATM    7  C6  UNL     1      24.929   3.425  50.517  1.00  0.00     0.255 C 
HETATM    8  C7  UNL     1      23.973   3.895  51.510  1.00  0.00     0.059 C 
HETATM    9  C8  UNL     1      22.946   3.222  51.094  1.00  0.00     0.124 C 
HETATM   10  N3  UNL     1      22.389   2.492  52.100  1.00  0.00    -0.214 NA
HETATM   11  C9  UNL     1      22.995   1.701  52.979  1.00  0.00     0.298 C 
HETATM   12  N4  UNL     1      24.233   1.711  52.763  1.00  0.00    -0.395 NA
HETATM   13  C10 UNL     1      25.440   1.593  52.674  1.00  0.00     0.260 A 
HETATM   14  N5  UNL     1      22.699   3.384  49.677  1.00  0.00    -0.374 N 
HETATM   15  C11 UNL     1      23.416   4.308  48.814  1.00  0.00     0.129 C 
HETATM   16  C12 UNL     1      24.896   4.321  49.271  1.00  0.00     0.054 C 
HETATM   17  H9  UNL     1      26.845   3.572  50.138  1.00  0.00     0.318 HD
HETATM   18  H13 UNL     1      21.884   2.766  49.355  1.00  0.00     0.161 HD
ENDROOT
BRANCH   1  19
HETATM   19  C2  UNL     1      25.200  -0.575  53.906  1.00  0.00     0.148 C 
BRANCH  19  20
HETATM   20  C1  UNL     1      25.321  -0.794  55.382  1.00  0.00     0.183 C 
BRANCH  20  21
HETATM   21  O1  UNL     1      24.620  -1.726  56.062  1.00  0.00    -0.399 OA
HETATM   22  H1  UNL     1      24.020  -1.275  56.851  1.00  0.00     0.209 HD
ENDBRANCH  20  21
ENDBRANCH  19  20
ENDBRANCH   1  19
BRANCH  16  23
HETATM   23  C13 UNL     1      25.473   5.652  49.654  1.00  0.00     0.123 C 
HETATM   24 CL1  UNL     1      26.851   6.054  48.634  1.00  0.00    -0.130 Cl
ENDBRANCH  16  23
TORSDOF 4
ENDMDL
MODEL 8
REMARK VINA RESULT:      -6.8      2.684      3.537
REMARK  4 active torsions:
REMARK  status: ('A' for Active; 'I' for Inactive)
REMARK    1  A    between atoms: O1_1  and  C1_2 
REMARK    2  A    between atoms: C1_2  and  C2_3 
REMARK    3  A    between atoms: C2_3  and  N1_4 
REMARK    4  A    between atoms: C12_19  and  C13_20 
ROOT
HETATM    1  N1  UNL     1      23.939  -0.346  53.654  1.00  0.00    -0.354 N 
HETATM    2  C3  UNL     1      25.713  -0.386  54.454  1.00  0.00     0.214 C 
HETATM    3  C4  UNL     1      25.586   0.259  53.421  1.00  0.00    -0.096 C 
HETATM    4  S1  UNL     1      25.476   0.785  52.533  1.00  0.00    -0.047 SA
HETATM    5  C5  UNL     1      25.364   1.284  51.653  1.00  0.00     0.362 A 
HETATM    6  N2  UNL     1      25.247   2.742  51.320  1.00  0.00     0.113 N 
HETATM    7  C6  UNL     1      24.104   3.015  50.495  1.00  0.00     0.255 C 
HETATM    8  C7  UNL     1      23.164   3.735  51.341  1.00  0.00     0.059 C 
HETATM    9  C8  UNL     1      22.079   3.414  50.709  1.00  0.00     0.124 C 
HETATM   10  N3  UNL     1      21.156   2.871  51.550  1.00  0.00    -0.214 NA
HETATM   11  C9  UNL     1      21.328   1.917  52.460  1.00  0.00     0.298 C 
HETATM   12  N4  UNL     1      22.530   1.554  52.460  1.00  0.00    -0.395 NA
HETATM   13  C10 UNL     1      23.644   1.077  52.569  1.00  0.00     0.260 A 
HETATM   14  N5  UNL     1      22.156   3.667  49.286  1.00  0.00    -0.374 N 
HETATM   15  C11 UNL     1      23.261   4.345  48.627  1.00  0.00     0.129 C 
HETATM   16  C12 UNL     1      24.568   3.899  49.330  1.00  0.00     0.054 C 
HETATM   17  H9  UNL     1      26.013   2.580  50.460  1.00  0.00     0.318 HD
HETATM   18  H13 UNL     1      21.269   3.332  48.786  1.00  0.00     0.161 HD
ENDROOT
BRANCH   1  19
HETATM   19  C2  UNL     1      22.551  -0.937  53.582  1.00  0.00     0.148 C 
BRANCH  19  20
HETATM   20  C1  UNL     1      22.270  -1.075  55.046  1.00  0.00     0.183 C 
BRANCH  20  21
HETATM   21  O1  UNL     1      22.893  -1.962  55.850  1.00  0.00    -0.399 OA
HETATM   22  H1  UNL     1      22.517  -1.906  56.871  1.00  0.00     0.209 HD
ENDBRANCH  20  21
ENDBRANCH  19  20
ENDBRANCH   1  19
BRANCH  16  23
HETATM   23  C13 UNL     1      25.431   4.986  49.901  1.00  0.00     0.123 C 
HETATM   24 CL1  UNL     1      26.883   5.207  48.928  1.00  0.00    -0.130 Cl
ENDBRANCH  16  23
TORSDOF 4
ENDMDL
MODEL 9
REMARK VINA RESULT:      -6.7      6.836      9.100
REMARK  4 active torsions:
REMARK  status: ('A' for Active; 'I' for Inactive)
REMARK    1  A    between atoms: O1_1  and  C1_2 
REMARK    2  A    between atoms: C1_2  and  C2_3 
REMARK    3  A    between atoms: C2_3  and  N1_4 
REMARK    4  A    between atoms: C12_19  and  C13_20 
ROOT
HETATM    1  N1  UNL     1      24.816   7.228  49.516  1.00  0.00    -0.354 N 
HETATM    2  C3  UNL     1      23.885   8.871  49.042  1.00  0.00     0.214 C 
HETATM    3  C4  UNL     1      25.095   8.950  49.217  1.00  0.00    -0.096 C 
HETATM    4  S1  UNL     1      26.117   9.014  49.390  1.00  0.00    -0.047 SA
HETATM    5  C5  UNL     1      27.114   9.073  49.578  1.00  0.00     0.362 A 
HETATM    6  N2  UNL     1      28.314   9.168  48.681  1.00  0.00     0.113 N 
HETATM    7  C6  UNL     1      29.303   8.177  48.999  1.00  0.00     0.255 C 
HETATM    8  C7  UNL     1      29.286   7.228  47.895  1.00  0.00     0.059 C 
HETATM    9  C8  UNL     1      29.742   6.201  48.542  1.00  0.00     0.124 C 
HETATM   10  N3  UNL     1      28.922   5.123  48.406  1.00  0.00    -0.214 NA
HETATM   11  C9  UNL     1      27.601   5.067  48.545  1.00  0.00     0.298 C 
HETATM   12  N4  UNL     1      27.164   6.211  48.830  1.00  0.00    -0.395 NA
HETATM   13  C10 UNL     1      26.588   7.239  49.131  1.00  0.00     0.260 A 
HETATM   14  N5  UNL     1      30.960   6.486  49.270  1.00  0.00    -0.374 N 
HETATM   15  C11 UNL     1      31.698   7.736  49.187  1.00  0.00     0.129 C 
HETATM   16  C12 UNL     1      30.663   8.883  49.082  1.00  0.00     0.054 C 
HETATM   17  H9  UNL     1      28.726  10.012  49.367  1.00  0.00     0.318 HD
HETATM   18  H13 UNL     1      31.274   5.637  49.843  1.00  0.00     0.161 HD
ENDROOT
BRANCH   1  19
HETATM   19  C2  UNL     1      24.731   5.801  50.004  1.00  0.00     0.148 C 
BRANCH  19  20
HETATM   20  C1  UNL     1      23.998   6.026  51.289  1.00  0.00     0.183 C 
BRANCH  20  21
HETATM   21  O1  UNL     1      24.408   6.882  52.248  1.00  0.00    -0.399 OA
HETATM   22  H1  UNL     1      25.381   7.310  52.009  1.00  0.00     0.209 HD
ENDBRANCH  20  21
ENDBRANCH  19  20
ENDBRANCH   1  19
BRANCH  16  23
HETATM   23  C13 UNL     1      30.778   9.788  47.890  1.00  0.00     0.123 C 
HETATM   24 CL1  UNL     1      31.141  11.438  48.390  1.00  0.00    -0.130 Cl
ENDBRANCH  16  23
TORSDOF 4
ENDMDL
