MODEL 1
REMARK VINA RESULT:      -7.8      0.000      0.000
REMARK  4 active torsions:
REMARK  status: ('A' for Active; 'I' for Inactive)
REMARK    1  A    between atoms: C2_2  and  C3_3 
REMARK    2  A    between atoms: C11_12  and  C12_13 
REMARK    3  A    between atoms: C12_13  and  C13_14 
REMARK    4  A    between atoms: C15_17  and  C17_20 
REMARK       I    between atoms: C17_20  and  N2_21 
ROOT
HETATM    1  C3  UNL     1      26.567   5.038  49.409  1.00  0.00    -0.040 C 
HETATM    2  C4  UNL     1      25.794   6.001  49.817  1.00  0.00     0.018 C 
HETATM    3  C5  UNL     1      24.705   6.520  50.588  1.00  0.00    -0.052 C 
HETATM    4  C6  UNL     1      24.554   7.864  50.444  1.00  0.00    -0.023 C 
HETATM    5  C7  UNL     1      25.367   8.780  49.615  1.00  0.00     0.036 C 
HETATM    6  C8  UNL     1      23.697   5.936  51.541  1.00  0.00     0.112 C 
HETATM    7  S1  UNL     1      22.564   4.952  50.657  1.00  0.00    -0.158 SA
HETATM    8  C9  UNL     1      22.916   3.466  49.864  1.00  0.00     0.138 C 
HETATM    9  C10 UNL     1      23.197   2.256  50.673  1.00  0.00     0.059 C 
HETATM   10  C11 UNL     1      22.348   1.192  50.546  1.00  0.00     0.033 C 
HETATM   11  O1  UNL     1      24.064   1.723  51.594  1.00  0.00    -0.316 OA
HETATM   12  C15 UNL     1      25.391   2.018  51.828  1.00  0.00     0.253 C 
HETATM   13  C16 UNL     1      26.139   0.735  51.867  1.00  0.00     0.113 C 
HETATM   14  N1  UNL     1      26.730  -0.254  51.894  1.00  0.00    -0.193 NA
HETATM   15  C18 UNL     1      25.982   2.949  50.844  1.00  0.00     0.038 C 
HETATM   16  C19 UNL     1      26.586   3.680  49.927  1.00  0.00     0.011 C 
ENDROOT
BRANCH  12  17
HETATM   17  C17 UNL     1      25.439   2.566  53.240  1.00  0.00     0.269 C 
HETATM   18  N2  UNL     1      26.530   2.399  54.117  1.00  0.00    -0.366 N 
HETATM   19  H19 UNL     1      27.320   2.319  54.740  1.00  0.00     0.159 HD
HETATM   20  H20 UNL     1      26.851   1.540  54.604  1.00  0.00     0.159 HD
HETATM   21  O2  UNL     1      24.362   3.168  53.453  1.00  0.00    -0.269 OA
ENDBRANCH  12  17
BRANCH  10  22
HETATM   22  C12 UNL     1      21.249   1.437  49.586  1.00  0.00    -0.002 C 
BRANCH  22  23
HETATM   23  C13 UNL     1      20.228   1.775  48.831  1.00  0.00    -0.031 C 
HETATM   24  C14 UNL     1      19.205   2.771  48.411  1.00  0.00     0.036 C 
ENDBRANCH  22  23
ENDBRANCH  10  22
BRANCH   1  25
HETATM   25  C2  UNL     1      27.679   4.983  48.498  1.00  0.00    -0.015 C 
HETATM   26  C1  UNL     1      28.705   5.714  48.206  1.00  0.00     0.032 C 
ENDBRANCH   1  25
TORSDOF 4
ENDMDL
MODEL 2
REMARK VINA RESULT:      -7.2      2.646      5.786
REMARK  4 active torsions:
REMARK  status: ('A' for Active; 'I' for Inactive)
REMARK    1  A    between atoms: C2_2  and  C3_3 
REMARK    2  A    between atoms: C11_12  and  C12_13 
REMARK    3  A    between atoms: C12_13  and  C13_14 
REMARK    4  A    between atoms: C15_17  and  C17_20 
REMARK       I    between atoms: C17_20  and  N2_21 
ROOT
HETATM    1  C3  UNL     1      21.767   2.781  48.448  1.00  0.00    -0.040 C 
HETATM    2  C4  UNL     1      21.014   2.380  49.429  1.00  0.00     0.018 C 
HETATM    3  C5  UNL     1      20.721   2.201  50.820  1.00  0.00    -0.052 C 
HETATM    4  C6  UNL     1      19.507   1.625  51.030  1.00  0.00    -0.023 C 
HETATM    5  C7  UNL     1      18.523   1.194  50.013  1.00  0.00     0.036 C 
HETATM    6  C8  UNL     1      21.427   2.521  52.109  1.00  0.00     0.112 C 
HETATM    7  S1  UNL     1      22.803   1.470  52.294  1.00  0.00    -0.158 SA
HETATM    8  C9  UNL     1      24.225   1.482  51.325  1.00  0.00     0.138 C 
HETATM    9  C10 UNL     1      25.182   2.607  51.448  1.00  0.00     0.059 C 
HETATM   10  C11 UNL     1      26.449   2.323  51.875  1.00  0.00     0.033 C 
HETATM   11  O1  UNL     1      25.316   3.964  51.283  1.00  0.00    -0.316 OA
HETATM   12  C15 UNL     1      24.630   4.820  50.449  1.00  0.00     0.253 C 
HETATM   13  C16 UNL     1      25.632   5.642  49.722  1.00  0.00     0.113 C 
HETATM   14  N1  UNL     1      26.401   6.281  49.148  1.00  0.00    -0.193 NA
HETATM   15  C18 UNL     1      23.716   4.140  49.508  1.00  0.00     0.038 C 
HETATM   16  C19 UNL     1      22.979   3.575  48.571  1.00  0.00     0.011 C 
ENDROOT
BRANCH  12  17
HETATM   17  C17 UNL     1      23.900   5.779  51.369  1.00  0.00     0.269 C 
HETATM   18  N2  UNL     1      24.484   6.930  51.937  1.00  0.00    -0.366 N 
HETATM   19  H19 UNL     1      24.879   7.777  52.318  1.00  0.00     0.159 HD
HETATM   20  H20 UNL     1      25.199   6.997  52.686  1.00  0.00     0.159 HD
HETATM   21  O2  UNL     1      22.731   5.357  51.510  1.00  0.00    -0.269 OA
ENDBRANCH  12  17
BRANCH  10  22
HETATM   22  C12 UNL     1      26.660   0.885  52.156  1.00  0.00    -0.002 C 
BRANCH  22  23
HETATM   23  C13 UNL     1      26.923  -0.343  52.539  1.00  0.00    -0.031 C 
HETATM   24  C14 UNL     1      26.807  -1.813  52.335  1.00  0.00     0.036 C 
ENDBRANCH  22  23
ENDBRANCH  10  22
BRANCH   1  25
HETATM   25  C2  UNL     1      21.632   2.735  47.017  1.00  0.00    -0.015 C 
HETATM   26  C1  UNL     1      21.860   3.520  46.015  1.00  0.00     0.032 C 
ENDBRANCH   1  25
TORSDOF 4
ENDMDL
MODEL 3
REMARK VINA RESULT:      -6.9      2.666      5.176
REMARK  4 active torsions:
REMARK  status: ('A' for Active; 'I' for Inactive)
REMARK    1  A    between atoms: C2_2  and  C3_3 
REMARK    2  A    between atoms: C11_12  and  C12_13 
REMARK    3  A    between atoms: C12_13  and  C13_14 
REMARK    4  A    between atoms: C15_17  and  C17_20 
REMARK       I    between atoms: C17_20  and  N2_21 
ROOT
HETATM    1  C3  UNL     1      24.164   5.977  50.518  1.00  0.00    -0.040 C 
HETATM    2  C4  UNL     1      25.245   5.645  49.878  1.00  0.00     0.018 C 
HETATM    3  C5  UNL     1      26.146   4.689  49.307  1.00  0.00    -0.052 C 
HETATM    4  C6  UNL     1      27.206   5.272  48.688  1.00  0.00    -0.023 C 
HETATM    5  C7  UNL     1      27.494   6.717  48.557  1.00  0.00     0.036 C 
HETATM    6  C8  UNL     1      26.187   3.188  49.208  1.00  0.00     0.112 C 
HETATM    7  S1  UNL     1      26.510   2.511  50.779  1.00  0.00    -0.158 SA
HETATM    8  C9  UNL     1      25.455   2.554  52.138  1.00  0.00     0.138 C 
HETATM    9  C10 UNL     1      24.227   1.724  52.134  1.00  0.00     0.059 C 
HETATM   10  C11 UNL     1      24.108   0.755  53.091  1.00  0.00     0.033 C 
HETATM   11  O1  UNL     1      23.034   1.524  51.484  1.00  0.00    -0.316 OA
HETATM   12  C15 UNL     1      22.273   2.409  50.750  1.00  0.00     0.253 C 
HETATM   13  C16 UNL     1      20.874   2.316  51.240  1.00  0.00     0.113 C 
HETATM   14  N1  UNL     1      19.786   2.256  51.616  1.00  0.00    -0.193 NA
HETATM   15  C18 UNL     1      22.762   3.803  50.793  1.00  0.00     0.038 C 
HETATM   16  C19 UNL     1      23.086   5.077  50.898  1.00  0.00     0.011 C 
ENDROOT
BRANCH  12  17
HETATM   17  C17 UNL     1      22.254   1.850  49.340  1.00  0.00     0.269 C 
HETATM   18  N2  UNL     1      22.804   2.508  48.221  1.00  0.00    -0.366 N 
HETATM   19  H19 UNL     1      23.227   2.951  47.420  1.00  0.00     0.159 HD
HETATM   20  H20 UNL     1      22.459   3.353  47.727  1.00  0.00     0.159 HD
HETATM   21  O2  UNL     1      21.678   0.739  49.377  1.00  0.00    -0.269 OA
ENDBRANCH  12  17
BRANCH  10  22
HETATM   22  C12 UNL     1      25.271   0.694  54.004  1.00  0.00    -0.002 C 
BRANCH  22  23
HETATM   23  C13 UNL     1      26.389   0.590  54.686  1.00  0.00    -0.031 C 
HETATM   24  C14 UNL     1      27.835   0.245  54.752  1.00  0.00     0.036 C 
ENDBRANCH  22  23
ENDBRANCH  10  22
BRANCH   1  25
HETATM   25  C2  UNL     1      23.602   7.238  50.922  1.00  0.00    -0.015 C 
HETATM   26  C1  UNL     1      22.597   7.980  50.590  1.00  0.00     0.032 C 
ENDBRANCH   1  25
TORSDOF 4
ENDMDL
MODEL 4
REMARK VINA RESULT:      -6.8      2.950      4.966
REMARK  4 active torsions:
REMARK  status: ('A' for Active; 'I' for Inactive)
REMARK    1  A    between atoms: C2_2  and  C3_3 
REMARK    2  A    between atoms: C11_12  and  C12_13 
REMARK    3  A    between atoms: C12_13  and  C13_14 
REMARK    4  A    between atoms: C15_17  and  C17_20 
REMARK       I    between atoms: C17_20  and  N2_21 
ROOT
HETATM    1  C3  UNL     1      21.613   3.834  47.701  1.00  0.00    -0.040 C 
HETATM    2  C4  UNL     1      20.610   4.309  48.378  1.00  0.00     0.018 C 
HETATM    3  C5  UNL     1      20.004   4.814  49.573  1.00  0.00    -0.052 C 
HETATM    4  C6  UNL     1      18.706   5.175  49.391  1.00  0.00    -0.023 C 
HETATM    5  C7  UNL     1      17.913   5.099  48.145  1.00  0.00     0.036 C 
HETATM    6  C8  UNL     1      20.469   5.063  50.983  1.00  0.00     0.112 C 
HETATM    7  S1  UNL     1      20.723   3.540  51.788  1.00  0.00    -0.158 SA
HETATM    8  C9  UNL     1      21.945   2.388  51.417  1.00  0.00     0.138 C 
HETATM    9  C10 UNL     1      23.358   2.693  51.745  1.00  0.00     0.059 C 
HETATM   10  C11 UNL     1      23.996   1.880  52.639  1.00  0.00     0.033 C 
HETATM   11  O1  UNL     1      24.391   3.557  51.475  1.00  0.00    -0.316 OA
HETATM   12  C15 UNL     1      24.634   4.314  50.348  1.00  0.00     0.253 C 
HETATM   13  C16 UNL     1      26.045   4.086  49.946  1.00  0.00     0.113 C 
HETATM   14  N1  UNL     1      27.138   3.913  49.622  1.00  0.00    -0.193 NA
HETATM   15  C18 UNL     1      23.709   4.039  49.228  1.00  0.00     0.038 C 
HETATM   16  C19 UNL     1      22.989   3.745  48.163  1.00  0.00     0.011 C 
ENDROOT
BRANCH  12  17
HETATM   17  C17 UNL     1      24.564   5.757  50.810  1.00  0.00     0.269 C 
HETATM   18  N2  UNL     1      24.159   6.156  52.101  1.00  0.00    -0.366 N 
HETATM   19  H19 UNL     1      23.909   6.452  53.032  1.00  0.00     0.159 HD
HETATM   20  H20 UNL     1      23.212   6.135  52.523  1.00  0.00     0.159 HD
HETATM   21  O2  UNL     1      24.922   6.482  49.855  1.00  0.00    -0.269 OA
ENDBRANCH  12  17
BRANCH  10  22
HETATM   22  C12 UNL     1      23.135   0.791  53.152  1.00  0.00    -0.002 C 
BRANCH  22  23
HETATM   23  C13 UNL     1      22.502  -0.231  53.680  1.00  0.00    -0.031 C 
HETATM   24  C14 UNL     1      22.105  -1.030  54.872  1.00  0.00     0.036 C 
ENDBRANCH  22  23
ENDBRANCH  10  22
BRANCH   1  25
HETATM   25  C2  UNL     1      21.769   3.402  46.338  1.00  0.00    -0.015 C 
HETATM   26  C1  UNL     1      21.511   3.865  45.159  1.00  0.00     0.032 C 
ENDBRANCH   1  25
TORSDOF 4
ENDMDL
MODEL 5
REMARK VINA RESULT:      -6.8      6.852      9.823
REMARK  4 active torsions:
REMARK  status: ('A' for Active; 'I' for Inactive)
REMARK    1  A    between atoms: C2_2  and  C3_3 
REMARK    2  A    between atoms: C11_12  and  C12_13 
REMARK    3  A    between atoms: C12_13  and  C13_14 
REMARK    4  A    between atoms: C15_17  and  C17_20 
REMARK       I    between atoms: C17_20  and  N2_21 
ROOT
HETATM    1  C3  UNL     1      33.660   5.970  43.576  1.00  0.00    -0.040 C 
HETATM    2  C4  UNL     1      34.044   7.119  44.047  1.00  0.00     0.018 C 
HETATM    3  C5  UNL     1      34.263   8.052  45.111  1.00  0.00    -0.052 C 
HETATM    4  C6  UNL     1      34.814   9.218  44.682  1.00  0.00    -0.023 C 
HETATM    5  C7  UNL     1      35.186   9.587  43.299  1.00  0.00     0.036 C 
HETATM    6  C8  UNL     1      34.050   8.040  46.601  1.00  0.00     0.112 C 
HETATM    7  S1  UNL     1      32.344   8.094  46.945  1.00  0.00    -0.158 SA
HETATM    8  C9  UNL     1      31.203   6.850  46.610  1.00  0.00     0.138 C 
HETATM    9  C10 UNL     1      31.232   5.600  47.406  1.00  0.00     0.059 C 
HETATM   10  C11 UNL     1      30.131   5.296  48.156  1.00  0.00     0.033 C 
HETATM   11  O1  UNL     1      32.006   4.510  47.720  1.00  0.00    -0.316 OA
HETATM   12  C15 UNL     1      33.013   3.908  46.995  1.00  0.00     0.253 C 
HETATM   13  C16 UNL     1      32.738   2.449  46.967  1.00  0.00     0.113 C 
HETATM   14  N1  UNL     1      32.532   1.315  46.934  1.00  0.00    -0.193 NA
HETATM   15  C18 UNL     1      33.175   4.447  45.629  1.00  0.00     0.038 C 
HETATM   16  C19 UNL     1      33.280   4.808  44.365  1.00  0.00     0.011 C 
ENDROOT
BRANCH  12  17
HETATM   17  C17 UNL     1      34.267   4.076  47.832  1.00  0.00     0.269 C 
HETATM   18  N2  UNL     1      34.395   5.002  48.887  1.00  0.00    -0.366 N 
HETATM   19  H19 UNL     1      34.487   5.633  49.669  1.00  0.00     0.159 HD
HETATM   20  H20 UNL     1      34.471   6.036  48.842  1.00  0.00     0.159 HD
HETATM   21  O2  UNL     1      35.118   3.261  47.411  1.00  0.00    -0.269 OA
ENDBRANCH  12  17
BRANCH  10  22
HETATM   22  C12 UNL     1      29.054   6.305  48.044  1.00  0.00    -0.002 C 
BRANCH  22  23
HETATM   23  C13 UNL     1      28.046   7.116  47.818  1.00  0.00    -0.031 C 
HETATM   24  C14 UNL     1      26.581   7.382  47.793  1.00  0.00     0.036 C 
ENDBRANCH  22  23
ENDBRANCH  10  22
BRANCH   1  25
HETATM   25  C2  UNL     1      33.610   5.411  42.252  1.00  0.00    -0.015 C 
HETATM   26  C1  UNL     1      33.294   4.281  41.709  1.00  0.00     0.032 C 
ENDBRANCH   1  25
TORSDOF 4
ENDMDL
MODEL 6
REMARK VINA RESULT:      -6.7      2.469      3.021
REMARK  4 active torsions:
REMARK  status: ('A' for Active; 'I' for Inactive)
REMARK    1  A    between atoms: C2_2  and  C3_3 
REMARK    2  A    between atoms: C11_12  and  C12_13 
REMARK    3  A    between atoms: C12_13  and  C13_14 
REMARK    4  A    between atoms: C15_17  and  C17_20 
REMARK       I    between atoms: C17_20  and  N2_21 
ROOT
HETATM    1  C3  UNL     1      26.899   5.807  48.615  1.00  0.00    -0.040 C 
HETATM    2  C4  UNL     1      26.404   6.962  48.283  1.00  0.00     0.018 C 
HETATM    3  C5  UNL     1      25.345   7.925  48.221  1.00  0.00    -0.052 C 
HETATM    4  C6  UNL     1      25.728   9.088  47.631  1.00  0.00    -0.023 C 
HETATM    5  C7  UNL     1      27.058   9.428  47.082  1.00  0.00     0.036 C 
HETATM    6  C8  UNL     1      23.911   7.965  48.677  1.00  0.00     0.112 C 
HETATM    7  S1  UNL     1      22.957   6.896  47.687  1.00  0.00    -0.158 SA
HETATM    8  C9  UNL     1      23.067   5.179  47.653  1.00  0.00     0.138 C 
HETATM    9  C10 UNL     1      22.579   4.394  48.811  1.00  0.00     0.059 C 
HETATM   10  C11 UNL     1      21.544   3.526  48.604  1.00  0.00     0.033 C 
HETATM   11  O1  UNL     1      22.778   4.166  50.151  1.00  0.00    -0.316 OA
HETATM   12  C15 UNL     1      23.920   4.315  50.909  1.00  0.00     0.253 C 
HETATM   13  C16 UNL     1      24.110   3.066  51.690  1.00  0.00     0.113 C 
HETATM   14  N1  UNL     1      24.270   2.099  52.297  1.00  0.00    -0.193 NA
HETATM   15  C18 UNL     1      25.128   4.639  50.120  1.00  0.00     0.038 C 
HETATM   16  C19 UNL     1      26.252   4.809  49.452  1.00  0.00     0.011 C 
ENDROOT
BRANCH  12  17
HETATM   17  C17 UNL     1      23.592   5.391  51.925  1.00  0.00     0.269 C 
HETATM   18  N2  UNL     1      24.359   6.559  52.116  1.00  0.00    -0.366 N 
HETATM   19  H19 UNL     1      24.878   7.416  52.237  1.00  0.00     0.159 HD
HETATM   20  H20 UNL     1      25.300   6.658  52.542  1.00  0.00     0.159 HD
HETATM   21  O2  UNL     1      22.551   5.044  52.526  1.00  0.00    -0.269 OA
ENDBRANCH  12  17
BRANCH  10  22
HETATM   22  C12 UNL     1      21.064   3.517  47.204  1.00  0.00    -0.002 C 
BRANCH  22  23
HETATM   23  C13 UNL     1      20.682   3.664  45.956  1.00  0.00    -0.031 C 
HETATM   24  C14 UNL     1      20.931   4.175  44.580  1.00  0.00     0.036 C 
ENDBRANCH  22  23
ENDBRANCH  10  22
BRANCH   1  25
HETATM   25  C2  UNL     1      28.189   5.197  48.436  1.00  0.00    -0.015 C 
HETATM   26  C1  UNL     1      29.396   5.583  48.177  1.00  0.00     0.032 C 
ENDBRANCH   1  25
TORSDOF 4
ENDMDL
MODEL 7
REMARK VINA RESULT:      -6.6      3.704      7.060
REMARK  4 active torsions:
REMARK  status: ('A' for Active; 'I' for Inactive)
REMARK    1  A    between atoms: C2_2  and  C3_3 
REMARK    2  A    between atoms: C11_12  and  C12_13 
REMARK    3  A    between atoms: C12_13  and  C13_14 
REMARK    4  A    between atoms: C15_17  and  C17_20 
REMARK       I    between atoms: C17_20  and  N2_21 
ROOT
HETATM    1  C3  UNL     1      22.376   4.246  47.642  1.00  0.00    -0.040 C 
HETATM    2  C4  UNL     1      22.597   3.504  48.686  1.00  0.00     0.018 C 
HETATM    3  C5  UNL     1      23.192   3.244  49.963  1.00  0.00    -0.052 C 
HETATM    4  C6  UNL     1      22.833   2.036  50.473  1.00  0.00    -0.023 C 
HETATM    5  C7  UNL     1      21.939   1.028  49.865  1.00  0.00     0.036 C 
HETATM    6  C8  UNL     1      24.103   4.003  50.890  1.00  0.00     0.112 C 
HETATM    7  S1  UNL     1      25.698   4.086  50.197  1.00  0.00    -0.158 SA
HETATM    8  C9  UNL     1      26.144   4.959  48.783  1.00  0.00     0.138 C 
HETATM    9  C10 UNL     1      26.183   6.440  48.822  1.00  0.00     0.059 C 
HETATM   10  C11 UNL     1      27.384   7.053  48.600  1.00  0.00     0.033 C 
HETATM   11  O1  UNL     1      25.409   7.559  49.008  1.00  0.00    -0.316 OA
HETATM   12  C15 UNL     1      24.057   7.737  48.802  1.00  0.00     0.253 C 
HETATM   13  C16 UNL     1      23.882   8.974  47.998  1.00  0.00     0.113 C 
HETATM   14  N1  UNL     1      23.734   9.929  47.369  1.00  0.00    -0.193 NA
HETATM   15  C18 UNL     1      23.389   6.585  48.161  1.00  0.00     0.038 C 
HETATM   16  C19 UNL     1      22.772   5.636  47.484  1.00  0.00     0.011 C 
ENDROOT
BRANCH  12  17
HETATM   17  C17 UNL     1      23.480   8.049  50.169  1.00  0.00     0.269 C 
HETATM   18  N2  UNL     1      24.190   7.907  51.379  1.00  0.00    -0.366 N 
HETATM   19  H19 UNL     1      24.700   7.847  52.247  1.00  0.00     0.159 HD
HETATM   20  H20 UNL     1      24.479   7.039  51.868  1.00  0.00     0.159 HD
HETATM   21  O2  UNL     1      22.302   8.439  50.007  1.00  0.00    -0.269 OA
ENDBRANCH  12  17
BRANCH  10  22
HETATM   22  C12 UNL     1      28.488   6.098  48.352  1.00  0.00    -0.002 C 
BRANCH  22  23
HETATM   23  C13 UNL     1      29.550   5.377  48.076  1.00  0.00    -0.031 C 
HETATM   24  C14 UNL     1      31.020   5.269  47.864  1.00  0.00     0.036 C 
ENDBRANCH  22  23
ENDBRANCH  10  22
BRANCH   1  25
HETATM   25  C2  UNL     1      21.612   4.056  46.439  1.00  0.00    -0.015 C 
HETATM   26  C1  UNL     1      21.804   4.163  45.164  1.00  0.00     0.032 C 
ENDBRANCH   1  25
TORSDOF 4
ENDMDL
MODEL 8
REMARK VINA RESULT:      -6.6      5.794      8.316
REMARK  4 active torsions:
REMARK  status: ('A' for Active; 'I' for Inactive)
REMARK    1  A    between atoms: C2_2  and  C3_3 
REMARK    2  A    between atoms: C11_12  and  C12_13 
REMARK    3  A    between atoms: C12_13  and  C13_14 
REMARK    4  A    between atoms: C15_17  and  C17_20 
REMARK       I    between atoms: C17_20  and  N2_21 
ROOT
HETATM    1  C3  UNL     1      32.192   8.068  44.885  1.00  0.00    -0.040 C 
HETATM    2  C4  UNL     1      32.214   9.061  45.723  1.00  0.00     0.018 C 
HETATM    3  C5  UNL     1      32.094   9.626  47.034  1.00  0.00    -0.052 C 
HETATM    4  C6  UNL     1      32.338  10.963  47.054  1.00  0.00    -0.023 C 
HETATM    5  C7  UNL     1      32.695  11.833  45.912  1.00  0.00     0.036 C 
HETATM    6  C8  UNL     1      31.785   9.086  48.404  1.00  0.00     0.112 C 
HETATM    7  S1  UNL     1      30.108   8.624  48.482  1.00  0.00    -0.158 SA
HETATM    8  C9  UNL     1      29.375   7.323  47.627  1.00  0.00     0.138 C 
HETATM    9  C10 UNL     1      29.683   5.927  48.019  1.00  0.00     0.059 C 
HETATM   10  C11 UNL     1      28.654   5.148  48.469  1.00  0.00     0.033 C 
HETATM   11  O1  UNL     1      30.699   5.008  48.117  1.00  0.00    -0.316 OA
HETATM   12  C15 UNL     1      31.881   4.925  47.412  1.00  0.00     0.253 C 
HETATM   13  C16 UNL     1      32.016   3.531  46.918  1.00  0.00     0.113 C 
HETATM   14  N1  UNL     1      32.128   2.453  46.524  1.00  0.00    -0.193 NA
HETATM   15  C18 UNL     1      31.990   5.897  46.304  1.00  0.00     0.038 C 
HETATM   16  C19 UNL     1      32.085   6.660  45.232  1.00  0.00     0.011 C 
ENDROOT
BRANCH  12  17
HETATM   17  C17 UNL     1      32.978   5.104  48.444  1.00  0.00     0.269 C 
HETATM   18  N2  UNL     1      34.192   4.386  48.441  1.00  0.00    -0.366 N 
HETATM   19  H19 UNL     1      35.080   3.907  48.428  1.00  0.00     0.159 HD
HETATM   20  H20 UNL     1      34.359   3.386  48.661  1.00  0.00     0.159 HD
HETATM   21  O2  UNL     1      32.600   5.978  49.256  1.00  0.00    -0.269 OA
ENDBRANCH  12  17
BRANCH  10  22
HETATM   22  C12 UNL     1      27.355   5.857  48.492  1.00  0.00    -0.002 C 
BRANCH  22  23
HETATM   23  C13 UNL     1      26.177   6.424  48.365  1.00  0.00    -0.031 C 
HETATM   24  C14 UNL     1      25.312   7.491  47.793  1.00  0.00     0.036 C 
ENDBRANCH  22  23
ENDBRANCH  10  22
BRANCH   1  25
HETATM   25  C2  UNL     1      32.392   7.969  43.465  1.00  0.00    -0.015 C 
HETATM   26  C1  UNL     1      32.760   7.064  42.617  1.00  0.00     0.032 C 
ENDBRANCH   1  25
TORSDOF 4
ENDMDL
MODEL 9
REMARK VINA RESULT:      -6.0      3.952      6.018
REMARK  4 active torsions:
REMARK  status: ('A' for Active; 'I' for Inactive)
REMARK    1  A    between atoms: C2_2  and  C3_3 
REMARK    2  A    between atoms: C11_12  and  C12_13 
REMARK    3  A    between atoms: C12_13  and  C13_14 
REMARK    4  A    between atoms: C15_17  and  C17_20 
REMARK       I    between atoms: C17_20  and  N2_21 
ROOT
HETATM    1  C3  UNL     1      22.008   5.977  50.387  1.00  0.00    -0.040 C 
HETATM    2  C4  UNL     1      23.143   5.456  50.025  1.00  0.00     0.018 C 
HETATM    3  C5  UNL     1      23.966   4.363  49.602  1.00  0.00    -0.052 C 
HETATM    4  C6  UNL     1      25.253   4.735  49.371  1.00  0.00    -0.023 C 
HETATM    5  C7  UNL     1      25.842   6.085  49.507  1.00  0.00     0.036 C 
HETATM    6  C8  UNL     1      23.741   2.900  49.328  1.00  0.00     0.112 C 
HETATM    7  S1  UNL     1      23.455   2.066  50.830  1.00  0.00    -0.158 SA
HETATM    8  C9  UNL     1      22.081   2.252  51.847  1.00  0.00     0.138 C 
HETATM    9  C10 UNL     1      20.770   1.720  51.407  1.00  0.00     0.059 C 
HETATM   10  C11 UNL     1      20.191   0.740  52.165  1.00  0.00     0.033 C 
HETATM   11  O1  UNL     1      19.802   1.834  50.439  1.00  0.00    -0.316 OA
HETATM   12  C15 UNL     1      19.474   2.912  49.645  1.00  0.00     0.253 C 
HETATM   13  C16 UNL     1      18.003   3.102  49.724  1.00  0.00     0.113 C 
HETATM   14  N1  UNL     1      16.863   3.261  49.782  1.00  0.00    -0.193 NA
HETATM   15  C18 UNL     1      20.191   4.157  49.995  1.00  0.00     0.038 C 
HETATM   16  C19 UNL     1      20.713   5.317  50.344  1.00  0.00     0.011 C 
ENDROOT
BRANCH  12  17
HETATM   17  C17 UNL     1      19.757   2.466  48.224  1.00  0.00     0.269 C 
HETATM   18  N2  UNL     1      18.940   2.781  47.119  1.00  0.00    -0.366 N 
HETATM   19  H19 UNL     1      18.385   3.032  46.314  1.00  0.00     0.159 HD
HETATM   20  H20 UNL     1      17.996   2.421  46.881  1.00  0.00     0.159 HD
HETATM   21  O2  UNL     1      20.814   1.796  48.237  1.00  0.00    -0.269 OA
ENDBRANCH  12  17
BRANCH  10  22
HETATM   22  C12 UNL     1      21.004   0.361  53.342  1.00  0.00    -0.002 C 
BRANCH  22  23
HETATM   23  C13 UNL     1      21.625  -0.102  54.403  1.00  0.00    -0.031 C 
HETATM   24  C14 UNL     1      22.441  -1.156  55.066  1.00  0.00     0.036 C 
ENDBRANCH  22  23
ENDBRANCH  10  22
BRANCH   1  25
HETATM   25  C2  UNL     1      21.610   7.301  50.781  1.00  0.00    -0.015 C 
HETATM   26  C1  UNL     1      20.918   8.274  50.282  1.00  0.00     0.032 C 
ENDBRANCH   1  25
TORSDOF 4
ENDMDL
