MODEL 1
REMARK VINA RESULT:      -9.3      0.000      0.000
REMARK  5 active torsions:
REMARK  status: ('A' for Active; 'I' for Inactive)
REMARK    1  A    between atoms: C2_2  and  O1_3 
REMARK    2  A    between atoms: C2_2  and  C15_19 
REMARK    3  A    between atoms: O1_3  and  C3_4 
REMARK    4  A    between atoms: C8_9  and  C9_10 
REMARK    5  A    between atoms: C9_10  and  C10_11 
REMARK       I    between atoms: C10_11  and  N1_12 
ROOT
HETATM    1  C3  UNL     1      26.124   2.590  50.866  1.00  0.00     0.169 C 
HETATM    2  C4  UNL     1      26.766   3.373  49.848  1.00  0.00     0.009 C 
HETATM    3  C5  UNL     1      27.412   4.015  48.902  1.00  0.00    -0.001 C 
HETATM    4  C6  UNL     1      27.018   5.374  48.555  1.00  0.00    -0.004 C 
HETATM    5  C7  UNL     1      26.152   6.302  48.907  1.00  0.00    -0.021 C 
HETATM    6  C8  UNL     1      25.256   7.503  49.138  1.00  0.00     0.021 C 
HETATM    7  C11 UNL     1      23.810   7.021  48.995  1.00  0.00     0.055 C 
HETATM    8  C12 UNL     1      23.630   5.932  50.021  1.00  0.00     0.090 C 
HETATM    9  N2  UNL     1      23.865   4.664  49.882  1.00  0.00    -0.277 NA
HETATM   10  C13 UNL     1      23.676   3.715  50.887  1.00  0.00     0.114 C 
HETATM   11  C14 UNL     1      24.712   2.944  51.163  1.00  0.00     0.028 C 
ENDROOT
BRANCH   1  12
HETATM   12  O1  UNL     1      26.843   2.409  52.051  1.00  0.00    -0.368 OA
BRANCH  12  13
HETATM   13  C2  UNL     1      26.383   1.358  52.801  1.00  0.00     0.155 C 
HETATM   14  C1  UNL     1      25.907   1.776  54.206  1.00  0.00     0.045 C 
BRANCH  13  15
HETATM   15  C15 UNL     1      27.512   0.425  53.017  1.00  0.00     0.017 A 
HETATM   16  C16 UNL     1      28.687   1.025  53.411  1.00  0.00     0.044 A 
HETATM   17 CL1  UNL     1      28.818   2.779  53.633  1.00  0.00    -0.084 Cl
HETATM   18  C17 UNL     1      29.820   0.283  53.653  1.00  0.00     0.028 A 
HETATM   19  C18 UNL     1      29.829  -1.101  53.509  1.00  0.00     0.046 A 
HETATM   20  C19 UNL     1      28.616  -1.629  53.111  1.00  0.00     0.138 A 
HETATM   21  F1  UNL     1      28.543  -2.989  52.946  1.00  0.00    -0.204 F 
HETATM   22  C20 UNL     1      27.461  -0.938  52.858  1.00  0.00     0.083 A 
HETATM   23 CL2  UNL     1      25.969  -1.659  52.351  1.00  0.00    -0.080 Cl
ENDBRANCH  13  15
ENDBRANCH  12  13
ENDBRANCH   1  12
BRANCH   6  24
HETATM   24  C9  UNL     1      25.546   8.140  50.446  1.00  0.00     0.105 C 
BRANCH  24  25
HETATM   25  C10 UNL     1      26.443   9.291  50.274  1.00  0.00     0.195 C 
HETATM   26  N1  UNL     1      27.551   9.489  51.082  1.00  0.00    -0.273 NA
HETATM   27  H13 UNL     1      28.254   9.694  51.869  1.00  0.00     0.127 HD
HETATM   28  H14 UNL     1      28.259   9.687  51.849  1.00  0.00     0.127 HD
HETATM   29  O2  UNL     1      26.457  10.253  49.481  1.00  0.00    -0.280 OA
ENDBRANCH  24  25
ENDBRANCH   6  24
TORSDOF 5
ENDMDL
MODEL 2
REMARK VINA RESULT:      -9.2      2.700      3.637
REMARK  5 active torsions:
REMARK  status: ('A' for Active; 'I' for Inactive)
REMARK    1  A    between atoms: C2_2  and  O1_3 
REMARK    2  A    between atoms: C2_2  and  C15_19 
REMARK    3  A    between atoms: O1_3  and  C3_4 
REMARK    4  A    between atoms: C8_9  and  C9_10 
REMARK    5  A    between atoms: C9_10  and  C10_11 
REMARK       I    between atoms: C10_11  and  N1_12 
ROOT
HETATM    1  C3  UNL     1      25.119   3.285  49.951  1.00  0.00     0.169 C 
HETATM    2  C4  UNL     1      26.296   3.894  49.397  1.00  0.00     0.009 C 
HETATM    3  C5  UNL     1      27.417   4.367  48.904  1.00  0.00    -0.001 C 
HETATM    4  C6  UNL     1      27.480   5.753  48.459  1.00  0.00    -0.004 C 
HETATM    5  C7  UNL     1      26.727   6.832  48.383  1.00  0.00    -0.021 C 
HETATM    6  C8  UNL     1      26.054   8.177  48.195  1.00  0.00     0.021 C 
HETATM    7  C11 UNL     1      24.795   7.939  47.356  1.00  0.00     0.055 C 
HETATM    8  C12 UNL     1      23.960   6.951  48.129  1.00  0.00     0.090 C 
HETATM    9  N2  UNL     1      24.009   5.656  48.075  1.00  0.00    -0.277 NA
HETATM   10  C13 UNL     1      23.200   4.807  48.830  1.00  0.00     0.114 C 
HETATM   11  C14 UNL     1      23.824   3.888  49.543  1.00  0.00     0.028 C 
ENDROOT
BRANCH   1  12
HETATM   12  O1  UNL     1      25.136   3.048  51.328  1.00  0.00    -0.368 OA
BRANCH  12  13
HETATM   13  C2  UNL     1      23.884   3.041  51.886  1.00  0.00     0.155 C 
HETATM   14  C1  UNL     1      23.745   4.004  53.080  1.00  0.00     0.045 C 
BRANCH  13  15
HETATM   15  C15 UNL     1      23.637   1.686  52.428  1.00  0.00     0.017 A 
HETATM   16  C16 UNL     1      22.432   1.130  52.062  1.00  0.00     0.044 A 
HETATM   17 CL1  UNL     1      21.278   1.988  51.027  1.00  0.00    -0.084 Cl
HETATM   18  C17 UNL     1      22.067  -0.127  52.487  1.00  0.00     0.028 A 
HETATM   19  C18 UNL     1      22.898  -0.889  53.304  1.00  0.00     0.046 A 
HETATM   20  C19 UNL     1      24.087  -0.265  53.629  1.00  0.00     0.138 A 
HETATM   21  F1  UNL     1      24.961  -0.952  54.433  1.00  0.00    -0.204 F 
HETATM   22  C20 UNL     1      24.498   0.981  53.234  1.00  0.00     0.083 A 
HETATM   23 CL2  UNL     1      26.002   1.713  53.684  1.00  0.00    -0.080 Cl
ENDBRANCH  13  15
ENDBRANCH  12  13
ENDBRANCH   1  12
BRANCH   6  24
HETATM   24  C9  UNL     1      25.785   8.824  49.503  1.00  0.00     0.105 C 
BRANCH  24  25
HETATM   25  C10 UNL     1      26.919   9.667  49.907  1.00  0.00     0.195 C 
HETATM   26  N1  UNL     1      27.568   9.498  51.119  1.00  0.00    -0.273 NA
HETATM   27  H13 UNL     1      27.879   9.455  52.147  1.00  0.00     0.127 HD
HETATM   28  H14 UNL     1      27.890   9.447  52.130  1.00  0.00     0.127 HD
HETATM   29  O2  UNL     1      27.517  10.614  49.360  1.00  0.00    -0.280 OA
ENDBRANCH  24  25
ENDBRANCH   6  24
TORSDOF 5
ENDMDL
MODEL 3
REMARK VINA RESULT:      -9.0      1.255      2.085
REMARK  5 active torsions:
REMARK  status: ('A' for Active; 'I' for Inactive)
REMARK    1  A    between atoms: C2_2  and  O1_3 
REMARK    2  A    between atoms: C2_2  and  C15_19 
REMARK    3  A    between atoms: O1_3  and  C3_4 
REMARK    4  A    between atoms: C8_9  and  C9_10 
REMARK    5  A    between atoms: C9_10  and  C10_11 
REMARK       I    between atoms: C10_11  and  N1_12 
ROOT
HETATM    1  C3  UNL     1      25.346   2.287  50.822  1.00  0.00     0.169 C 
HETATM    2  C4  UNL     1      26.302   2.932  49.966  1.00  0.00     0.009 C 
HETATM    3  C5  UNL     1      27.223   3.440  49.180  1.00  0.00    -0.001 C 
HETATM    4  C6  UNL     1      27.130   4.833  48.767  1.00  0.00    -0.004 C 
HETATM    5  C7  UNL     1      26.369   5.895  48.936  1.00  0.00    -0.021 C 
HETATM    6  C8  UNL     1      25.647   7.227  48.982  1.00  0.00     0.021 C 
HETATM    7  C11 UNL     1      24.204   6.974  48.537  1.00  0.00     0.055 C 
HETATM    8  C12 UNL     1      23.645   5.954  49.496  1.00  0.00     0.090 C 
HETATM    9  N2  UNL     1      23.699   4.662  49.401  1.00  0.00    -0.277 NA
HETATM   10  C13 UNL     1      23.158   3.782  50.338  1.00  0.00     0.114 C 
HETATM   11  C14 UNL     1      23.978   2.866  50.820  1.00  0.00     0.028 C 
ENDROOT
BRANCH   1  12
HETATM   12  O1  UNL     1      25.766   2.028  52.131  1.00  0.00    -0.368 OA
BRANCH  12  13
HETATM   13  C2  UNL     1      25.775   0.692  52.435  1.00  0.00     0.155 C 
HETATM   14  C1  UNL     1      24.759   0.310  53.528  1.00  0.00     0.045 C 
BRANCH  13  15
HETATM   15  C15 UNL     1      27.108   0.362  52.988  1.00  0.00     0.017 A 
HETATM   16  C16 UNL     1      27.514  -0.937  52.776  1.00  0.00     0.044 A 
HETATM   17 CL1  UNL     1      26.503  -2.107  51.911  1.00  0.00    -0.084 Cl
HETATM   18  C17 UNL     1      28.733  -1.386  53.229  1.00  0.00     0.028 A 
HETATM   19  C18 UNL     1      29.606  -0.551  53.921  1.00  0.00     0.046 A 
HETATM   20  C19 UNL     1      29.129   0.734  54.095  1.00  0.00     0.138 A 
HETATM   21  F1  UNL     1      29.932   1.619  54.769  1.00  0.00    -0.204 F 
HETATM   22  C20 UNL     1      27.927   1.232  53.665  1.00  0.00     0.083 A 
HETATM   23 CL2  UNL     1      27.381   2.856  53.924  1.00  0.00    -0.080 Cl
ENDBRANCH  13  15
ENDBRANCH  12  13
ENDBRANCH   1  12
BRANCH   6  24
HETATM   24  C9  UNL     1      25.757   7.846  50.326  1.00  0.00     0.105 C 
BRANCH  24  25
HETATM   25  C10 UNL     1      26.458   9.134  50.247  1.00  0.00     0.195 C 
HETATM   26  N1  UNL     1      27.542   9.434  51.055  1.00  0.00    -0.273 NA
HETATM   27  H13 UNL     1      28.226   9.678  51.849  1.00  0.00     0.127 HD
HETATM   28  H14 UNL     1      28.231   9.674  51.828  1.00  0.00     0.127 HD
HETATM   29  O2  UNL     1      26.300  10.152  49.544  1.00  0.00    -0.280 OA
ENDBRANCH  24  25
ENDBRANCH   6  24
TORSDOF 5
ENDMDL
MODEL 4
REMARK VINA RESULT:      -8.7      4.613      7.801
REMARK  5 active torsions:
REMARK  status: ('A' for Active; 'I' for Inactive)
REMARK    1  A    between atoms: C2_2  and  O1_3 
REMARK    2  A    between atoms: C2_2  and  C15_19 
REMARK    3  A    between atoms: O1_3  and  C3_4 
REMARK    4  A    between atoms: C8_9  and  C9_10 
REMARK    5  A    between atoms: C9_10  and  C10_11 
REMARK       I    between atoms: C10_11  and  N1_12 
ROOT
HETATM    1  C3  UNL     1      22.969   4.288  50.131  1.00  0.00     0.169 C 
HETATM    2  C4  UNL     1      24.325   4.011  49.747  1.00  0.00     0.009 C 
HETATM    3  C5  UNL     1      25.550   3.812  49.320  1.00  0.00    -0.001 C 
HETATM    4  C6  UNL     1      26.451   2.961  50.085  1.00  0.00    -0.004 C 
HETATM    5  C7  UNL     1      26.468   2.217  51.172  1.00  0.00    -0.021 C 
HETATM    6  C8  UNL     1      26.719   1.318  52.367  1.00  0.00     0.021 C 
HETATM    7  C11 UNL     1      26.383   2.130  53.621  1.00  0.00     0.055 C 
HETATM    8  C12 UNL     1      24.942   2.547  53.474  1.00  0.00     0.090 C 
HETATM    9  N2  UNL     1      24.479   3.610  52.894  1.00  0.00    -0.277 NA
HETATM   10  C13 UNL     1      23.123   3.925  52.796  1.00  0.00     0.114 C 
HETATM   11  C14 UNL     1      22.669   4.176  51.582  1.00  0.00     0.028 C 
ENDROOT
BRANCH   1  12
HETATM   12  O1  UNL     1      21.973   3.662  49.376  1.00  0.00    -0.368 OA
BRANCH  12  13
HETATM   13  C2  UNL     1      22.106   2.298  49.341  1.00  0.00     0.155 C 
HETATM   14  C1  UNL     1      22.323   1.745  47.920  1.00  0.00     0.045 C 
BRANCH  13  15
HETATM   15  C15 UNL     1      20.835   1.706  49.816  1.00  0.00     0.017 A 
HETATM   16  C16 UNL     1      20.957   0.888  50.917  1.00  0.00     0.044 A 
HETATM   17 CL1  UNL     1      22.523   0.577  51.687  1.00  0.00    -0.084 Cl
HETATM   18  C17 UNL     1      19.859   0.272  51.473  1.00  0.00     0.028 A 
HETATM   19  C18 UNL     1      18.582   0.447  50.948  1.00  0.00     0.046 A 
HETATM   20  C19 UNL     1      18.540   1.279  49.846  1.00  0.00     0.138 A 
HETATM   21  F1  UNL     1      17.316   1.501  49.269  1.00  0.00    -0.204 F 
HETATM   22  C20 UNL     1      19.599   1.916  49.254  1.00  0.00     0.083 A 
HETATM   23 CL2  UNL     1      19.483   2.942  47.864  1.00  0.00    -0.080 Cl
ENDBRANCH  13  15
ENDBRANCH  12  13
ENDBRANCH   1  12
BRANCH   6  24
HETATM   24  C9  UNL     1      25.951   0.054  52.251  1.00  0.00     0.105 C 
BRANCH  24  25
HETATM   25  C10 UNL     1      26.393  -0.915  53.263  1.00  0.00     0.195 C 
HETATM   26  N1  UNL     1      27.445  -1.787  53.038  1.00  0.00    -0.273 NA
HETATM   27  H13 UNL     1      28.114  -2.567  52.721  1.00  0.00     0.127 HD
HETATM   28  H14 UNL     1      28.119  -2.550  52.735  1.00  0.00     0.127 HD
HETATM   29  O2  UNL     1      26.008  -1.179  54.419  1.00  0.00    -0.280 OA
ENDBRANCH  24  25
ENDBRANCH   6  24
TORSDOF 5
ENDMDL
MODEL 5
REMARK VINA RESULT:      -8.6      3.180      3.854
REMARK  5 active torsions:
REMARK  status: ('A' for Active; 'I' for Inactive)
REMARK    1  A    between atoms: C2_2  and  O1_3 
REMARK    2  A    between atoms: C2_2  and  C15_19 
REMARK    3  A    between atoms: O1_3  and  C3_4 
REMARK    4  A    between atoms: C8_9  and  C9_10 
REMARK    5  A    between atoms: C9_10  and  C10_11 
REMARK       I    between atoms: C10_11  and  N1_12 
ROOT
HETATM    1  C3  UNL     1      24.929   3.173  50.012  1.00  0.00     0.169 C 
HETATM    2  C4  UNL     1      26.121   3.762  49.470  1.00  0.00     0.009 C 
HETATM    3  C5  UNL     1      27.254   4.215  48.986  1.00  0.00    -0.001 C 
HETATM    4  C6  UNL     1      27.351   5.604  48.558  1.00  0.00    -0.004 C 
HETATM    5  C7  UNL     1      26.623   6.701  48.493  1.00  0.00    -0.021 C 
HETATM    6  C8  UNL     1      25.981   8.063  48.320  1.00  0.00     0.021 C 
HETATM    7  C11 UNL     1      24.721   7.864  47.474  1.00  0.00     0.055 C 
HETATM    8  C12 UNL     1      23.860   6.886  48.232  1.00  0.00     0.090 C 
HETATM    9  N2  UNL     1      23.880   5.592  48.162  1.00  0.00    -0.277 NA
HETATM   10  C13 UNL     1      23.049   4.752  48.904  1.00  0.00     0.114 C 
HETATM   11  C14 UNL     1      23.649   3.810  49.608  1.00  0.00     0.028 C 
ENDROOT
BRANCH   1  12
HETATM   12  O1  UNL     1      24.936   2.919  51.387  1.00  0.00    -0.368 OA
BRANCH  12  13
HETATM   13  C2  UNL     1      23.713   3.118  51.975  1.00  0.00     0.155 C 
HETATM   14  C1  UNL     1      23.782   3.996  53.239  1.00  0.00     0.045 C 
BRANCH  13  15
HETATM   15  C15 UNL     1      23.206   1.801  52.423  1.00  0.00     0.017 A 
HETATM   16  C16 UNL     1      24.109   1.050  53.142  1.00  0.00     0.044 A 
HETATM   17 CL1  UNL     1      25.747   1.630  53.489  1.00  0.00    -0.084 Cl
HETATM   18  C17 UNL     1      23.776  -0.193  53.628  1.00  0.00     0.028 A 
HETATM   19  C18 UNL     1      22.516  -0.745  53.413  1.00  0.00     0.046 A 
HETATM   20  C19 UNL     1      21.668   0.065  52.684  1.00  0.00     0.138 A 
HETATM   21  F1  UNL     1      20.406  -0.409  52.429  1.00  0.00    -0.204 F 
HETATM   22  C20 UNL     1      21.948   1.308  52.179  1.00  0.00     0.083 A 
HETATM   23 CL2  UNL     1      20.840   2.274  51.262  1.00  0.00    -0.080 Cl
ENDBRANCH  13  15
ENDBRANCH  12  13
ENDBRANCH   1  12
BRANCH   6  24
HETATM   24  C9  UNL     1      25.723   8.700  49.635  1.00  0.00     0.105 C 
BRANCH  24  25
HETATM   25  C10 UNL     1      26.787   9.657  49.965  1.00  0.00     0.195 C 
HETATM   26  N1  UNL     1      27.604   9.498  51.073  1.00  0.00    -0.273 NA
HETATM   27  H13 UNL     1      28.048   9.430  52.050  1.00  0.00     0.127 HD
HETATM   28  H14 UNL     1      28.058   9.425  52.030  1.00  0.00     0.127 HD
HETATM   29  O2  UNL     1      27.190  10.708  49.427  1.00  0.00    -0.280 OA
ENDBRANCH  24  25
ENDBRANCH   6  24
TORSDOF 5
ENDMDL
MODEL 6
REMARK VINA RESULT:      -8.5      1.823      1.923
REMARK  5 active torsions:
REMARK  status: ('A' for Active; 'I' for Inactive)
REMARK    1  A    between atoms: C2_2  and  O1_3 
REMARK    2  A    between atoms: C2_2  and  C15_19 
REMARK    3  A    between atoms: O1_3  and  C3_4 
REMARK    4  A    between atoms: C8_9  and  C9_10 
REMARK    5  A    between atoms: C9_10  and  C10_11 
REMARK       I    between atoms: C10_11  and  N1_12 
ROOT
HETATM    1  C3  UNL     1      26.221   2.263  50.843  1.00  0.00     0.169 C 
HETATM    2  C4  UNL     1      26.716   3.288  49.968  1.00  0.00     0.009 C 
HETATM    3  C5  UNL     1      27.252   4.179  49.166  1.00  0.00    -0.001 C 
HETATM    4  C6  UNL     1      26.463   5.320  48.726  1.00  0.00    -0.004 C 
HETATM    5  C7  UNL     1      25.265   5.848  48.879  1.00  0.00    -0.021 C 
HETATM    6  C8  UNL     1      23.963   6.625  48.904  1.00  0.00     0.021 C 
HETATM    7  C11 UNL     1      22.854   5.661  48.474  1.00  0.00     0.055 C 
HETATM    8  C12 UNL     1      22.891   4.519  49.457  1.00  0.00     0.090 C 
HETATM    9  N2  UNL     1      23.598   3.434  49.387  1.00  0.00    -0.277 NA
HETATM   10  C13 UNL     1      23.578   2.420  50.345  1.00  0.00     0.114 C 
HETATM   11  C14 UNL     1      24.749   2.062  50.839  1.00  0.00     0.028 C 
ENDROOT
BRANCH   1  12
HETATM   12  O1  UNL     1      26.708   2.282  52.153  1.00  0.00    -0.368 OA
BRANCH  12  13
HETATM   13  C2  UNL     1      26.333   1.182  52.880  1.00  0.00     0.155 C 
HETATM   14  C1  UNL     1      25.825   1.530  54.292  1.00  0.00     0.045 C 
BRANCH  13  15
HETATM   15  C15 UNL     1      27.533   0.338  53.078  1.00  0.00     0.017 A 
HETATM   16  C16 UNL     1      28.671   1.028  53.433  1.00  0.00     0.044 A 
HETATM   17 CL1  UNL     1      28.678   2.790  53.627  1.00  0.00    -0.084 Cl
HETATM   18  C17 UNL     1      29.861   0.375  53.655  1.00  0.00     0.028 A 
HETATM   19  C18 UNL     1      29.968  -1.007  53.531  1.00  0.00     0.046 A 
HETATM   20  C19 UNL     1      28.787  -1.629  53.172  1.00  0.00     0.138 A 
HETATM   21  F1  UNL     1      28.810  -2.993  53.027  1.00  0.00    -0.204 F 
HETATM   22  C20 UNL     1      27.578  -1.028  52.939  1.00  0.00     0.083 A 
HETATM   23 CL2  UNL     1      26.131  -1.864  52.482  1.00  0.00    -0.080 Cl
ENDBRANCH  13  15
ENDBRANCH  12  13
ENDBRANCH   1  12
BRANCH   6  24
HETATM   24  C9  UNL     1      23.737   7.241  50.234  1.00  0.00     0.105 C 
BRANCH  24  25
HETATM   25  C10 UNL     1      22.450   7.948  50.265  1.00  0.00     0.195 C 
HETATM   26  N1  UNL     1      21.429   7.583  51.128  1.00  0.00    -0.273 NA
HETATM   27  H13 UNL     1      20.619   7.118  51.660  1.00  0.00     0.127 HD
HETATM   28  H14 UNL     1      20.629   7.136  51.666  1.00  0.00     0.127 HD
HETATM   29  O2  UNL     1      21.991   8.917  49.629  1.00  0.00    -0.280 OA
ENDBRANCH  24  25
ENDBRANCH   6  24
TORSDOF 5
ENDMDL
MODEL 7
REMARK VINA RESULT:      -8.4      3.872      5.270
REMARK  5 active torsions:
REMARK  status: ('A' for Active; 'I' for Inactive)
REMARK    1  A    between atoms: C2_2  and  O1_3 
REMARK    2  A    between atoms: C2_2  and  C15_19 
REMARK    3  A    between atoms: O1_3  and  C3_4 
REMARK    4  A    between atoms: C8_9  and  C9_10 
REMARK    5  A    between atoms: C9_10  and  C10_11 
REMARK       I    between atoms: C10_11  and  N1_12 
ROOT
HETATM    1  C3  UNL     1      20.570   4.037  50.147  1.00  0.00     0.169 C 
HETATM    2  C4  UNL     1      21.043   4.643  48.935  1.00  0.00     0.009 C 
HETATM    3  C5  UNL     1      21.393   5.176  47.787  1.00  0.00    -0.001 C 
HETATM    4  C6  UNL     1      22.717   5.764  47.639  1.00  0.00    -0.004 C 
HETATM    5  C7  UNL     1      23.826   5.958  48.323  1.00  0.00    -0.021 C 
HETATM    6  C8  UNL     1      25.183   6.289  48.912  1.00  0.00     0.021 C 
HETATM    7  C11 UNL     1      24.935   7.107  50.183  1.00  0.00     0.055 C 
HETATM    8  C12 UNL     1      24.087   6.241  51.078  1.00  0.00     0.090 C 
HETATM    9  N2  UNL     1      22.794   6.159  51.108  1.00  0.00    -0.277 NA
HETATM   10  C13 UNL     1      22.080   5.324  51.969  1.00  0.00     0.114 C 
HETATM   11  C14 UNL     1      21.204   4.514  51.403  1.00  0.00     0.028 C 
ENDROOT
BRANCH   1  12
HETATM   12  O1  UNL     1      20.478   2.642  50.145  1.00  0.00    -0.368 OA
BRANCH  12  13
HETATM   13  C2  UNL     1      21.678   2.027  49.901  1.00  0.00     0.155 C 
HETATM   14  C1  UNL     1      21.623   1.028  48.730  1.00  0.00     0.045 C 
BRANCH  13  15
HETATM   15  C15 UNL     1      22.031   1.229  51.097  1.00  0.00     0.017 A 
HETATM   16  C16 UNL     1      23.319   1.408  51.550  1.00  0.00     0.044 A 
HETATM   17 CL1  UNL     1      24.452   2.508  50.746  1.00  0.00    -0.084 Cl
HETATM   18  C17 UNL     1      23.786   0.735  52.656  1.00  0.00     0.028 A 
HETATM   19  C18 UNL     1      22.981  -0.153  53.362  1.00  0.00     0.046 A 
HETATM   20  C19 UNL     1      21.705  -0.280  52.848  1.00  0.00     0.138 A 
HETATM   21  F1  UNL     1      20.849  -1.140  53.489  1.00  0.00    -0.204 F 
HETATM   22  C20 UNL     1      21.190   0.364  51.754  1.00  0.00     0.083 A 
HETATM   23 CL2  UNL     1      19.579   0.154  51.152  1.00  0.00    -0.080 Cl
ENDBRANCH  13  15
ENDBRANCH  12  13
ENDBRANCH   1  12
BRANCH   6  24
HETATM   24  C9  UNL     1      25.979   5.058  49.140  1.00  0.00     0.105 C 
BRANCH  24  25
HETATM   25  C10 UNL     1      27.392   5.287  48.813  1.00  0.00     0.195 C 
HETATM   26  N1  UNL     1      27.978   6.539  48.909  1.00  0.00    -0.273 NA
HETATM   27  H13 UNL     1      28.305   7.557  48.800  1.00  0.00     0.127 HD
HETATM   28  H14 UNL     1      28.311   7.543  48.816  1.00  0.00     0.127 HD
HETATM   29  O2  UNL     1      28.311   4.540  48.421  1.00  0.00    -0.280 OA
ENDBRANCH  24  25
ENDBRANCH   6  24
TORSDOF 5
ENDMDL
MODEL 8
REMARK VINA RESULT:      -8.2      3.751      4.825
REMARK  5 active torsions:
REMARK  status: ('A' for Active; 'I' for Inactive)
REMARK    1  A    between atoms: C2_2  and  O1_3 
REMARK    2  A    between atoms: C2_2  and  C15_19 
REMARK    3  A    between atoms: O1_3  and  C3_4 
REMARK    4  A    between atoms: C8_9  and  C9_10 
REMARK    5  A    between atoms: C9_10  and  C10_11 
REMARK       I    between atoms: C10_11  and  N1_12 
ROOT
HETATM    1  C3  UNL     1      24.564   4.510  49.516  1.00  0.00     0.169 C 
HETATM    2  C4  UNL     1      25.959   4.383  49.198  1.00  0.00     0.009 C 
HETATM    3  C5  UNL     1      27.226   4.174  48.927  1.00  0.00    -0.001 C 
HETATM    4  C6  UNL     1      28.072   5.291  48.531  1.00  0.00    -0.004 C 
HETATM    5  C7  UNL     1      28.014   6.594  48.343  1.00  0.00    -0.021 C 
HETATM    6  C8  UNL     1      28.179   8.076  48.066  1.00  0.00     0.021 C 
HETATM    7  C11 UNL     1      27.140   8.455  47.007  1.00  0.00     0.055 C 
HETATM    8  C12 UNL     1      25.798   8.099  47.593  1.00  0.00     0.090 C 
HETATM    9  N2  UNL     1      25.177   6.964  47.521  1.00  0.00    -0.277 NA
HETATM   10  C13 UNL     1      23.931   6.711  48.098  1.00  0.00     0.114 C 
HETATM   11  C14 UNL     1      23.858   5.660  48.893  1.00  0.00     0.028 C 
ENDROOT
BRANCH   1  12
HETATM   12  O1  UNL     1      24.226   4.404  50.868  1.00  0.00    -0.368 OA
BRANCH  12  13
HETATM   13  C2  UNL     1      22.885   4.206  51.071  1.00  0.00     0.155 C 
HETATM   14  C1  UNL     1      22.310   5.064  52.214  1.00  0.00     0.045 C 
BRANCH  13  15
HETATM   15  C15 UNL     1      22.692   2.798  51.486  1.00  0.00     0.017 A 
HETATM   16  C16 UNL     1      21.744   2.109  50.763  1.00  0.00     0.044 A 
HETATM   17 CL1  UNL     1      20.833   2.869  49.446  1.00  0.00    -0.084 Cl
HETATM   18  C17 UNL     1      21.461   0.790  51.033  1.00  0.00     0.028 A 
HETATM   19  C18 UNL     1      22.117   0.097  52.046  1.00  0.00     0.046 A 
HETATM   20  C19 UNL     1      23.051   0.853  52.726  1.00  0.00     0.138 A 
HETATM   21  F1  UNL     1      23.741   0.240  53.741  1.00  0.00    -0.204 F 
HETATM   22  C20 UNL     1      23.372   2.165  52.498  1.00  0.00     0.083 A 
HETATM   23 CL2  UNL     1      24.551   3.064  53.395  1.00  0.00    -0.080 Cl
ENDBRANCH  13  15
ENDBRANCH  12  13
ENDBRANCH   1  12
BRANCH   6  24
HETATM   24  C9  UNL     1      28.072   8.866  49.317  1.00  0.00     0.105 C 
BRANCH  24  25
HETATM   25  C10 UNL     1      28.660  10.200  49.139  1.00  0.00     0.195 C 
HETATM   26  N1  UNL     1      27.989  11.356  49.502  1.00  0.00    -0.273 NA
HETATM   27  H13 UNL     1      27.337  12.204  49.603  1.00  0.00     0.127 HD
HETATM   28  H14 UNL     1      27.353  12.199  49.616  1.00  0.00     0.127 HD
HETATM   29  O2  UNL     1      29.751  10.600  48.686  1.00  0.00    -0.280 OA
ENDBRANCH  24  25
ENDBRANCH   6  24
TORSDOF 5
ENDMDL
MODEL 9
REMARK VINA RESULT:      -8.0      2.008      2.412
REMARK  5 active torsions:
REMARK  status: ('A' for Active; 'I' for Inactive)
REMARK    1  A    between atoms: C2_2  and  O1_3 
REMARK    2  A    between atoms: C2_2  and  C15_19 
REMARK    3  A    between atoms: O1_3  and  C3_4 
REMARK    4  A    between atoms: C8_9  and  C9_10 
REMARK    5  A    between atoms: C9_10  and  C10_11 
REMARK       I    between atoms: C10_11  and  N1_12 
ROOT
HETATM    1  C3  UNL     1      25.107   3.189  50.229  1.00  0.00     0.169 C 
HETATM    2  C4  UNL     1      26.199   3.836  49.558  1.00  0.00     0.009 C 
HETATM    3  C5  UNL     1      27.245   4.347  48.950  1.00  0.00    -0.001 C 
HETATM    4  C6  UNL     1      27.222   5.738  48.522  1.00  0.00    -0.004 C 
HETATM    5  C7  UNL     1      26.437   6.797  48.545  1.00  0.00    -0.021 C 
HETATM    6  C8  UNL     1      25.712   8.125  48.454  1.00  0.00     0.021 C 
HETATM    7  C11 UNL     1      24.375   7.862  47.756  1.00  0.00     0.055 C 
HETATM    8  C12 UNL     1      23.656   6.842  48.601  1.00  0.00     0.090 C 
HETATM    9  N2  UNL     1      23.734   5.550  48.523  1.00  0.00    -0.277 NA
HETATM   10  C13 UNL     1      23.035   4.669  49.350  1.00  0.00     0.114 C 
HETATM   11  C14 UNL     1      23.759   3.760  49.976  1.00  0.00     0.028 C 
ENDROOT
BRANCH   1  12
HETATM   12  O1  UNL     1      25.283   2.936  51.593  1.00  0.00    -0.368 OA
BRANCH  12  13
HETATM   13  C2  UNL     1      26.323   2.081  51.849  1.00  0.00     0.155 C 
HETATM   14  C1  UNL     1      26.640   1.139  50.672  1.00  0.00     0.045 C 
BRANCH  13  15
HETATM   15  C15 UNL     1      25.924   1.205  52.974  1.00  0.00     0.017 A 
HETATM   16  C16 UNL     1      26.885   1.044  53.947  1.00  0.00     0.044 A 
HETATM   17 CL1  UNL     1      28.470   1.828  53.840  1.00  0.00    -0.084 Cl
HETATM   18  C17 UNL     1      26.653   0.261  55.054  1.00  0.00     0.028 A 
HETATM   19  C18 UNL     1      25.443  -0.401  55.238  1.00  0.00     0.046 A 
HETATM   20  C19 UNL     1      24.531  -0.192  54.221  1.00  0.00     0.138 A 
HETATM   21  F1  UNL     1      23.312  -0.812  54.329  1.00  0.00    -0.204 F 
HETATM   22  C20 UNL     1      24.710   0.576  53.101  1.00  0.00     0.083 A 
HETATM   23 CL2  UNL     1      23.527   0.793  51.853  1.00  0.00    -0.080 Cl
ENDBRANCH  13  15
ENDBRANCH  12  13
ENDBRANCH   1  12
BRANCH   6  24
HETATM   24  C9  UNL     1      25.573   8.748  49.793  1.00  0.00     0.105 C 
BRANCH  24  25
HETATM   25  C10 UNL     1      26.695   9.658  50.060  1.00  0.00     0.195 C 
HETATM   26  N1  UNL     1      27.555   9.473  51.130  1.00  0.00    -0.273 NA
HETATM   27  H13 UNL     1      28.041   9.396  52.086  1.00  0.00     0.127 HD
HETATM   28  H14 UNL     1      28.050   9.391  52.066  1.00  0.00     0.127 HD
HETATM   29  O2  UNL     1      27.120  10.682  49.489  1.00  0.00    -0.280 OA
ENDBRANCH  24  25
ENDBRANCH   6  24
TORSDOF 5
ENDMDL
