MODEL 1
REMARK VINA RESULT:      -7.8      0.000      0.000
REMARK  9 active torsions:
REMARK  status: ('A' for Active; 'I' for Inactive)
REMARK    1  A    between atoms: O1_2  and  C2_3 
REMARK    2  A    between atoms: C6_7  and  C7_8 
REMARK       I    between atoms: C7_8  and  N1_10 
REMARK    3  A    between atoms: N1_10  and  C8_11 
REMARK    4  A    between atoms: C8_11  and  C9_12 
REMARK    5  A    between atoms: C9_12  and  C10_13 
REMARK    6  A    between atoms: C11_14  and  C12_15 
REMARK    7  A    between atoms: C12_15  and  N2_16 
REMARK    8  A    between atoms: N2_16  and  C13_17 
REMARK    9  A    between atoms: C16_21  and  C17_22 
ROOT
HETATM    1  C10 UNL     1      27.364  -0.365  52.602  1.00  0.00    -0.026 C 
HETATM    2  C11 UNL     1      27.152  -0.582  53.882  1.00  0.00    -0.011 C 
ENDROOT
BRANCH   2   3
HETATM    3  C12 UNL     1      26.388   0.041  54.967  1.00  0.00     0.150 C 
BRANCH   3   4
HETATM    4  N2  UNL     1      25.372  -0.931  55.396  1.00  0.00    -0.345 N 
HETATM    5  H13 UNL     1      25.662  -1.667  56.073  1.00  0.00     0.164 HD
BRANCH   4   6
HETATM    6  C13 UNL     1      24.049  -0.879  54.911  1.00  0.00     0.277 A 
HETATM    7  N3  UNL     1      22.915  -1.466  55.312  1.00  0.00    -0.215 NA
HETATM    8  C14 UNL     1      21.720  -1.241  54.640  1.00  0.00     0.125 A 
HETATM    9  C15 UNL     1      21.835  -0.354  53.528  1.00  0.00     0.065 A 
HETATM   10  C16 UNL     1      23.022   0.314  53.041  1.00  0.00     0.124 A 
HETATM   11  N5  UNL     1      23.611  -0.247  53.953  1.00  0.00    -0.369 NA
BRANCH  10  12
HETATM   12  C17 UNL     1      22.487   1.045  51.942  1.00  0.00     0.022 A 
HETATM   13  C18 UNL     1      21.885   0.825  50.748  1.00  0.00     0.018 A 
HETATM   14  C19 UNL     1      21.496   1.882  49.983  1.00  0.00     0.020 A 
HETATM   15  C20 UNL     1      21.704   3.209  50.392  1.00  0.00     0.116 A 
HETATM   16  N4  UNL     1      22.317   3.508  51.598  1.00  0.00    -0.272 NA
HETATM   17  C21 UNL     1      22.683   2.380  52.323  1.00  0.00     0.131 A 
ENDBRANCH  10  12
ENDBRANCH   4   6
ENDBRANCH   3   4
ENDBRANCH   2   3
BRANCH   1  18
HETATM   18  C9  UNL     1      26.688   0.801  51.999  1.00  0.00     0.021 C 
BRANCH  18  19
HETATM   19  C8  UNL     1      26.309   1.936  51.467  1.00  0.00     0.143 C 
BRANCH  19  20
HETATM   20  N1  UNL     1      26.804   3.237  51.087  1.00  0.00    -0.349 N 
HETATM   21  C7  UNL     1      25.899   3.582  50.005  1.00  0.00     0.254 C 
HETATM   22  O2  UNL     1      25.299   2.513  50.127  1.00  0.00    -0.268 OA
HETATM   23  H6  UNL     1      27.599   3.879  51.413  1.00  0.00     0.163 HD
BRANCH  21  24
HETATM   24  C6  UNL     1      26.115   4.911  49.346  1.00  0.00     0.066 C 
HETATM   25  C2  UNL     1      25.163   5.986  49.264  1.00  0.00     0.095 C 
HETATM   26  C3  UNL     1      25.735   6.670  48.282  1.00  0.00     0.011 C 
HETATM   27  C4  UNL     1      27.057   6.537  48.280  1.00  0.00     0.016 C 
HETATM   28  C5  UNL     1      27.288   5.160  48.780  1.00  0.00     0.021 C 
BRANCH  25  29
HETATM   29  O1  UNL     1      23.997   6.279  49.950  1.00  0.00    -0.354 OA
HETATM   30  C1  UNL     1      24.180   7.042  51.158  1.00  0.00     0.210 C 
ENDBRANCH  25  29
ENDBRANCH  21  24
ENDBRANCH  19  20
ENDBRANCH  18  19
ENDBRANCH   1  18
TORSDOF 9
ENDMDL
MODEL 2
REMARK VINA RESULT:      -7.8      1.782      4.389
REMARK  9 active torsions:
REMARK  status: ('A' for Active; 'I' for Inactive)
REMARK    1  A    between atoms: O1_2  and  C2_3 
REMARK    2  A    between atoms: C6_7  and  C7_8 
REMARK       I    between atoms: C7_8  and  N1_10 
REMARK    3  A    between atoms: N1_10  and  C8_11 
REMARK    4  A    between atoms: C8_11  and  C9_12 
REMARK    5  A    between atoms: C9_12  and  C10_13 
REMARK    6  A    between atoms: C11_14  and  C12_15 
REMARK    7  A    between atoms: C12_15  and  N2_16 
REMARK    8  A    between atoms: N2_16  and  C13_17 
REMARK    9  A    between atoms: C16_21  and  C17_22 
ROOT
HETATM    1  C10 UNL     1      23.199   3.636  52.467  1.00  0.00    -0.026 C 
HETATM    2  C11 UNL     1      22.429   2.588  52.272  1.00  0.00    -0.011 C 
ENDROOT
BRANCH   2   3
HETATM    3  C12 UNL     1      22.292   1.525  51.270  1.00  0.00     0.150 C 
BRANCH   3   4
HETATM    4  N2  UNL     1      21.896   0.303  51.986  1.00  0.00    -0.345 N 
HETATM    5  H13 UNL     1      21.019  -0.172  51.684  1.00  0.00     0.164 HD
BRANCH   4   6
HETATM    6  C13 UNL     1      22.668  -0.213  53.047  1.00  0.00     0.277 A 
HETATM    7  N3  UNL     1      22.336  -0.766  54.221  1.00  0.00    -0.215 NA
HETATM    8  C14 UNL     1      23.316  -1.200  55.104  1.00  0.00     0.125 A 
HETATM    9  C15 UNL     1      24.650  -1.001  54.640  1.00  0.00     0.065 A 
HETATM   10  C16 UNL     1      25.080  -0.415  53.389  1.00  0.00     0.124 A 
HETATM   11  N5  UNL     1      23.891  -0.278  53.141  1.00  0.00    -0.369 NA
BRANCH  10  12
HETATM   12  C17 UNL     1      26.495  -0.511  53.518  1.00  0.00     0.022 A 
HETATM   13  C18 UNL     1      27.537  -1.196  52.991  1.00  0.00     0.018 A 
HETATM   14  C19 UNL     1      28.803  -0.937  53.421  1.00  0.00     0.020 A 
HETATM   15  C20 UNL     1      29.067   0.025  54.408  1.00  0.00     0.116 A 
HETATM   16  N4  UNL     1      28.050   0.760  54.995  1.00  0.00    -0.272 NA
HETATM   17  C21 UNL     1      26.788   0.443  54.504  1.00  0.00     0.131 A 
ENDBRANCH  10  12
ENDBRANCH   4   6
ENDBRANCH   3   4
ENDBRANCH   2   3
BRANCH   1  18
HETATM   18  C9  UNL     1      24.245   3.896  51.456  1.00  0.00     0.021 C 
BRANCH  18  19
HETATM   19  C8  UNL     1      25.039   4.324  50.508  1.00  0.00     0.143 C 
BRANCH  19  20
HETATM   20  N1  UNL     1      25.824   5.467  50.109  1.00  0.00    -0.349 N 
HETATM   21  C7  UNL     1      26.747   4.863  49.163  1.00  0.00     0.254 C 
HETATM   22  O2  UNL     1      26.241   3.753  49.334  1.00  0.00    -0.268 OA
HETATM   23  H6  UNL     1      25.840   6.510  50.358  1.00  0.00     0.163 HD
BRANCH  21  24
HETATM   24  C6  UNL     1      27.746   5.778  48.521  1.00  0.00     0.066 C 
HETATM   25  C2  UNL     1      27.562   7.177  48.241  1.00  0.00     0.095 C 
HETATM   26  C3  UNL     1      28.546   7.324  47.362  1.00  0.00     0.011 C 
HETATM   27  C4  UNL     1      29.563   6.504  47.604  1.00  0.00     0.016 C 
HETATM   28  C5  UNL     1      28.928   5.290  48.173  1.00  0.00     0.021 C 
BRANCH  25  29
HETATM   29  O1  UNL     1      26.667   8.130  48.696  1.00  0.00    -0.354 OA
HETATM   30  C1  UNL     1      27.116   8.888  49.836  1.00  0.00     0.210 C 
ENDBRANCH  25  29
ENDBRANCH  21  24
ENDBRANCH  19  20
ENDBRANCH  18  19
ENDBRANCH   1  18
TORSDOF 9
ENDMDL
MODEL 3
REMARK VINA RESULT:      -7.7      2.619      6.075
REMARK  9 active torsions:
REMARK  status: ('A' for Active; 'I' for Inactive)
REMARK    1  A    between atoms: O1_2  and  C2_3 
REMARK    2  A    between atoms: C6_7  and  C7_8 
REMARK       I    between atoms: C7_8  and  N1_10 
REMARK    3  A    between atoms: N1_10  and  C8_11 
REMARK    4  A    between atoms: C8_11  and  C9_12 
REMARK    5  A    between atoms: C9_12  and  C10_13 
REMARK    6  A    between atoms: C11_14  and  C12_15 
REMARK    7  A    between atoms: C12_15  and  N2_16 
REMARK    8  A    between atoms: N2_16  and  C13_17 
REMARK    9  A    between atoms: C16_21  and  C17_22 
ROOT
HETATM    1  C10 UNL     1      23.299   3.786  49.346  1.00  0.00    -0.026 C 
HETATM    2  C11 UNL     1      22.510   3.142  48.515  1.00  0.00    -0.011 C 
ENDROOT
BRANCH   2   3
HETATM    3  C12 UNL     1      22.166   1.746  48.220  1.00  0.00     0.150 C 
BRANCH   3   4
HETATM    4  N2  UNL     1      20.727   1.591  48.474  1.00  0.00    -0.345 N 
HETATM    5  H13 UNL     1      20.069   1.856  47.711  1.00  0.00     0.164 HD
BRANCH   4   6
HETATM    6  C13 UNL     1      20.243   1.103  49.705  1.00  0.00     0.277 A 
HETATM    7  N3  UNL     1      19.005   0.944  50.191  1.00  0.00    -0.215 NA
HETATM    8  C14 UNL     1      18.802   0.432  51.466  1.00  0.00     0.125 A 
HETATM    9  C15 UNL     1      20.005   0.110  52.164  1.00  0.00     0.065 A 
HETATM   10  C16 UNL     1      21.368   0.255  51.702  1.00  0.00     0.124 A 
HETATM   11  N5  UNL     1      20.884   0.691  50.669  1.00  0.00    -0.369 NA
BRANCH  10  12
HETATM   12  C17 UNL     1      22.087  -0.238  52.829  1.00  0.00     0.022 A 
HETATM   13  C18 UNL     1      23.357  -0.306  53.296  1.00  0.00     0.018 A 
HETATM   14  C19 UNL     1      23.602  -0.882  54.506  1.00  0.00     0.020 A 
HETATM   15  C20 UNL     1      22.570  -1.418  55.292  1.00  0.00     0.116 A 
HETATM   16  N4  UNL     1      21.250  -1.388  54.876  1.00  0.00    -0.272 NA
HETATM   17  C21 UNL     1      21.078  -0.784  53.635  1.00  0.00     0.131 A 
ENDBRANCH  10  12
ENDBRANCH   4   6
ENDBRANCH   3   4
ENDBRANCH   2   3
BRANCH   1  18
HETATM   18  C9  UNL     1      24.098   2.969  50.281  1.00  0.00     0.021 C 
BRANCH  18  19
HETATM   19  C8  UNL     1      24.808   2.444  51.248  1.00  0.00     0.143 C 
BRANCH  19  20
HETATM   20  N1  UNL     1      26.043   1.745  51.503  1.00  0.00    -0.349 N 
HETATM   21  C7  UNL     1      26.218   1.984  52.926  1.00  0.00     0.254 C 
HETATM   22  O2  UNL     1      25.177   2.641  52.972  1.00  0.00    -0.268 OA
HETATM   23  H6  UNL     1      26.739   1.179  50.915  1.00  0.00     0.163 HD
BRANCH  21  24
HETATM   24  C6  UNL     1      27.436   1.387  53.563  1.00  0.00     0.066 C 
HETATM   25  C2  UNL     1      27.559   0.049  54.078  1.00  0.00     0.095 C 
HETATM   26  C3  UNL     1      28.635   0.235  54.831  1.00  0.00     0.011 C 
HETATM   27  C4  UNL     1      29.443   1.165  54.333  1.00  0.00     0.016 C 
HETATM   28  C5  UNL     1      28.528   2.130  53.673  1.00  0.00     0.021 C 
BRANCH  25  29
HETATM   29  O1  UNL     1      26.826  -1.111  53.898  1.00  0.00    -0.354 OA
HETATM   30  C1  UNL     1      26.924  -1.692  52.583  1.00  0.00     0.210 C 
ENDBRANCH  25  29
ENDBRANCH  21  24
ENDBRANCH  19  20
ENDBRANCH  18  19
ENDBRANCH   1  18
TORSDOF 9
ENDMDL
MODEL 4
REMARK VINA RESULT:      -7.7      4.473      6.482
REMARK  9 active torsions:
REMARK  status: ('A' for Active; 'I' for Inactive)
REMARK    1  A    between atoms: O1_2  and  C2_3 
REMARK    2  A    between atoms: C6_7  and  C7_8 
REMARK       I    between atoms: C7_8  and  N1_10 
REMARK    3  A    between atoms: N1_10  and  C8_11 
REMARK    4  A    between atoms: C8_11  and  C9_12 
REMARK    5  A    between atoms: C9_12  and  C10_13 
REMARK    6  A    between atoms: C11_14  and  C12_15 
REMARK    7  A    between atoms: C12_15  and  N2_16 
REMARK    8  A    between atoms: N2_16  and  C13_17 
REMARK    9  A    between atoms: C16_21  and  C17_22 
ROOT
HETATM    1  C10 UNL     1      26.933   5.645  48.681  1.00  0.00    -0.026 C 
HETATM    2  C11 UNL     1      26.382   4.607  49.270  1.00  0.00    -0.011 C 
ENDROOT
BRANCH   2   3
HETATM    3  C12 UNL     1      26.797   3.268  49.702  1.00  0.00     0.150 C 
BRANCH   3   4
HETATM    4  N2  UNL     1      26.711   3.239  51.169  1.00  0.00    -0.345 N 
HETATM    5  H13 UNL     1      26.794   4.145  51.677  1.00  0.00     0.164 HD
BRANCH   4   6
HETATM    6  C13 UNL     1      26.528   2.032  51.874  1.00  0.00     0.277 A 
HETATM    7  N3  UNL     1      27.387   1.114  52.335  1.00  0.00    -0.215 NA
HETATM    8  C14 UNL     1      26.932  -0.011  53.011  1.00  0.00     0.125 A 
HETATM    9  C15 UNL     1      25.513  -0.072  53.152  1.00  0.00     0.065 A 
HETATM   10  C16 UNL     1      24.530   0.879  52.682  1.00  0.00     0.124 A 
HETATM   11  N5  UNL     1      25.477   1.516  52.247  1.00  0.00    -0.369 NA
BRANCH  10  12
HETATM   12  C17 UNL     1      23.326   0.266  53.134  1.00  0.00     0.022 A 
HETATM   13  C18 UNL     1      22.904  -0.887  53.707  1.00  0.00     0.018 A 
HETATM   14  C19 UNL     1      21.585  -1.050  54.005  1.00  0.00     0.020 A 
HETATM   15  C20 UNL     1      20.636  -0.053  53.732  1.00  0.00     0.116 A 
HETATM   16  N4  UNL     1      20.995   1.149  53.144  1.00  0.00    -0.272 NA
HETATM   17  C21 UNL     1      22.355   1.243  52.871  1.00  0.00     0.131 A 
ENDBRANCH  10  12
ENDBRANCH   4   6
ENDBRANCH   3   4
ENDBRANCH   2   3
BRANCH   1  18
HETATM   18  C9  UNL     1      28.360   5.529  48.317  1.00  0.00     0.021 C 
BRANCH  18  19
HETATM   19  C8  UNL     1      29.666   5.475  48.229  1.00  0.00     0.143 C 
BRANCH  19  20
HETATM   20  N1  UNL     1      30.858   6.237  48.510  1.00  0.00    -0.349 N 
HETATM   21  C7  UNL     1      31.896   5.291  48.138  1.00  0.00     0.254 C 
HETATM   22  O2  UNL     1      31.054   4.447  47.826  1.00  0.00    -0.268 OA
HETATM   23  H6  UNL     1      31.069   7.218  48.890  1.00  0.00     0.163 HD
BRANCH  21  24
HETATM   24  C6  UNL     1      33.313   5.749  48.300  1.00  0.00     0.066 C 
HETATM   25  C2  UNL     1      34.486   4.916  48.279  1.00  0.00     0.095 C 
HETATM   26  C3  UNL     1      35.331   5.766  48.848  1.00  0.00     0.011 C 
HETATM   27  C4  UNL     1      35.030   7.031  48.577  1.00  0.00     0.016 C 
HETATM   28  C5  UNL     1      33.551   7.042  48.471  1.00  0.00     0.021 C 
BRANCH  25  29
HETATM   29  O1  UNL     1      34.731   3.629  47.833  1.00  0.00    -0.354 OA
HETATM   30  C1  UNL     1      34.914   3.505  46.409  1.00  0.00     0.210 C 
ENDBRANCH  25  29
ENDBRANCH  21  24
ENDBRANCH  19  20
ENDBRANCH  18  19
ENDBRANCH   1  18
TORSDOF 9
ENDMDL
MODEL 5
REMARK VINA RESULT:      -7.4      4.728      7.567
REMARK  9 active torsions:
REMARK  status: ('A' for Active; 'I' for Inactive)
REMARK    1  A    between atoms: O1_2  and  C2_3 
REMARK    2  A    between atoms: C6_7  and  C7_8 
REMARK       I    between atoms: C7_8  and  N1_10 
REMARK    3  A    between atoms: N1_10  and  C8_11 
REMARK    4  A    between atoms: C8_11  and  C9_12 
REMARK    5  A    between atoms: C9_12  and  C10_13 
REMARK    6  A    between atoms: C11_14  and  C12_15 
REMARK    7  A    between atoms: C12_15  and  N2_16 
REMARK    8  A    between atoms: N2_16  and  C13_17 
REMARK    9  A    between atoms: C16_21  and  C17_22 
ROOT
HETATM    1  C10 UNL     1      27.334   6.581  48.346  1.00  0.00    -0.026 C 
HETATM    2  C11 UNL     1      26.528   5.657  48.821  1.00  0.00    -0.011 C 
ENDROOT
BRANCH   2   3
HETATM    3  C12 UNL     1      26.635   4.269  49.284  1.00  0.00     0.150 C 
BRANCH   3   4
HETATM    4  N2  UNL     1      25.369   3.935  49.951  1.00  0.00    -0.345 N 
HETATM    5  H13 UNL     1      24.485   4.243  49.494  1.00  0.00     0.164 HD
BRANCH   4   6
HETATM    6  C13 UNL     1      25.341   3.225  51.169  1.00  0.00     0.277 A 
HETATM    7  N3  UNL     1      24.446   3.170  52.164  1.00  0.00    -0.215 NA
HETATM    8  C14 UNL     1      24.670   2.372  53.279  1.00  0.00     0.125 A 
HETATM    9  C15 UNL     1      25.901   1.653  53.244  1.00  0.00     0.065 A 
HETATM   10  C16 UNL     1      26.910   1.663  52.206  1.00  0.00     0.124 A 
HETATM   11  N5  UNL     1      26.181   2.450  51.622  1.00  0.00    -0.369 NA
BRANCH  10  12
HETATM   12  C17 UNL     1      27.862   0.753  52.748  1.00  0.00     0.022 A 
HETATM   13  C18 UNL     1      29.101   0.758  53.297  1.00  0.00     0.018 A 
HETATM   14  C19 UNL     1      29.656  -0.411  53.722  1.00  0.00     0.020 A 
HETATM   15  C20 UNL     1      28.980  -1.636  53.606  1.00  0.00     0.116 A 
HETATM   16  N4  UNL     1      27.713  -1.716  53.052  1.00  0.00    -0.272 NA
HETATM   17  C21 UNL     1      27.213  -0.485  52.643  1.00  0.00     0.131 A 
ENDBRANCH  10  12
ENDBRANCH   4   6
ENDBRANCH   3   4
ENDBRANCH   2   3
BRANCH   1  18
HETATM   18  C9  UNL     1      28.759   6.219  48.204  1.00  0.00     0.021 C 
BRANCH  18  19
HETATM   19  C8  UNL     1      30.051   6.023  48.285  1.00  0.00     0.143 C 
BRANCH  19  20
HETATM   20  N1  UNL     1      31.301   6.726  48.438  1.00  0.00    -0.349 N 
HETATM   21  C7  UNL     1      32.257   5.638  48.322  1.00  0.00     0.254 C 
HETATM   22  O2  UNL     1      31.349   4.819  48.170  1.00  0.00    -0.268 OA
HETATM   23  H6  UNL     1      31.592   7.746  48.602  1.00  0.00     0.163 HD
BRANCH  21  24
HETATM   24  C6  UNL     1      33.706   6.002  48.433  1.00  0.00     0.066 C 
HETATM   25  C2  UNL     1      34.814   5.085  48.464  1.00  0.00     0.095 C 
HETATM   26  C3  UNL     1      35.728   5.911  48.957  1.00  0.00     0.011 C 
HETATM   27  C4  UNL     1      35.516   7.171  48.593  1.00  0.00     0.016 C 
HETATM   28  C5  UNL     1      34.040   7.283  48.502  1.00  0.00     0.021 C 
BRANCH  25  29
HETATM   29  O1  UNL     1      34.958   3.753  48.115  1.00  0.00    -0.354 OA
HETATM   30  C1  UNL     1      34.734   3.464  46.721  1.00  0.00     0.210 C 
ENDBRANCH  25  29
ENDBRANCH  21  24
ENDBRANCH  19  20
ENDBRANCH  18  19
ENDBRANCH   1  18
TORSDOF 9
ENDMDL
MODEL 6
REMARK VINA RESULT:      -7.4      2.272      6.055
REMARK  9 active torsions:
REMARK  status: ('A' for Active; 'I' for Inactive)
REMARK    1  A    between atoms: O1_2  and  C2_3 
REMARK    2  A    between atoms: C6_7  and  C7_8 
REMARK       I    between atoms: C7_8  and  N1_10 
REMARK    3  A    between atoms: N1_10  and  C8_11 
REMARK    4  A    between atoms: C8_11  and  C9_12 
REMARK    5  A    between atoms: C9_12  and  C10_13 
REMARK    6  A    between atoms: C11_14  and  C12_15 
REMARK    7  A    between atoms: C12_15  and  N2_16 
REMARK    8  A    between atoms: N2_16  and  C13_17 
REMARK    9  A    between atoms: C16_21  and  C17_22 
ROOT
HETATM    1  C10 UNL     1      26.608   6.213  48.602  1.00  0.00    -0.026 C 
HETATM    2  C11 UNL     1      25.465   6.712  48.185  1.00  0.00    -0.011 C 
ENDROOT
BRANCH   2   3
HETATM    3  C12 UNL     1      24.062   6.288  48.129  1.00  0.00     0.150 C 
BRANCH   3   4
HETATM    4  N2  UNL     1      23.422   6.739  49.373  1.00  0.00    -0.345 N 
HETATM    5  H13 UNL     1      23.008   7.694  49.386  1.00  0.00     0.164 HD
BRANCH   4   6
HETATM    6  C13 UNL     1      23.369   5.914  50.516  1.00  0.00     0.277 A 
HETATM    7  N3  UNL     1      23.826   6.070  51.765  1.00  0.00    -0.215 NA
HETATM    8  C14 UNL     1      23.636   5.079  52.720  1.00  0.00     0.125 A 
HETATM    9  C15 UNL     1      22.931   3.935  52.241  1.00  0.00     0.065 A 
HETATM   10  C16 UNL     1      22.410   3.701  50.912  1.00  0.00     0.124 A 
HETATM   11  N5  UNL     1      22.862   4.802  50.633  1.00  0.00    -0.369 NA
BRANCH  10  12
HETATM   12  C17 UNL     1      21.821   2.415  51.077  1.00  0.00     0.022 A 
HETATM   13  C18 UNL     1      21.927   1.158  50.583  1.00  0.00     0.018 A 
HETATM   14  C19 UNL     1      21.129   0.170  51.074  1.00  0.00     0.020 A 
HETATM   15  C20 UNL     1      20.185   0.414  52.084  1.00  0.00     0.116 A 
HETATM   16  N4  UNL     1      20.019   1.675  52.632  1.00  0.00    -0.272 NA
HETATM   17  C21 UNL     1      20.868   2.629  52.083  1.00  0.00     0.131 A 
ENDBRANCH  10  12
ENDBRANCH   4   6
ENDBRANCH   3   4
ENDBRANCH   2   3
BRANCH   1  18
HETATM   18  C9  UNL     1      26.572   4.861  49.195  1.00  0.00     0.021 C 
BRANCH  18  19
HETATM   19  C8  UNL     1      26.470   3.777  49.923  1.00  0.00     0.143 C 
BRANCH  19  20
HETATM   20  N1  UNL     1      26.727   3.267  51.247  1.00  0.00    -0.349 N 
HETATM   21  C7  UNL     1      25.809   2.142  51.304  1.00  0.00     0.254 C 
HETATM   22  O2  UNL     1      25.408   2.376  50.162  1.00  0.00    -0.268 OA
HETATM   23  H6  UNL     1      27.371   3.538  52.062  1.00  0.00     0.163 HD
BRANCH  21  24
HETATM   24  C6  UNL     1      25.799   1.345  52.573  1.00  0.00     0.066 C 
HETATM   25  C2  UNL     1      26.688   1.513  53.691  1.00  0.00     0.095 C 
HETATM   26  C3  UNL     1      26.476   0.342  54.277  1.00  0.00     0.011 C 
HETATM   27  C4  UNL     1      25.242  -0.107  54.072  1.00  0.00     0.016 C 
HETATM   28  C5  UNL     1      24.891   0.391  52.720  1.00  0.00     0.021 C 
BRANCH  25  29
HETATM   29  O1  UNL     1      27.532   2.535  54.091  1.00  0.00    -0.354 OA
HETATM   30  C1  UNL     1      28.930   2.300  53.835  1.00  0.00     0.210 C 
ENDBRANCH  25  29
ENDBRANCH  21  24
ENDBRANCH  19  20
ENDBRANCH  18  19
ENDBRANCH   1  18
TORSDOF 9
ENDMDL
MODEL 7
REMARK VINA RESULT:      -7.4      1.862      6.068
REMARK  9 active torsions:
REMARK  status: ('A' for Active; 'I' for Inactive)
REMARK    1  A    between atoms: O1_2  and  C2_3 
REMARK    2  A    between atoms: C6_7  and  C7_8 
REMARK       I    between atoms: C7_8  and  N1_10 
REMARK    3  A    between atoms: N1_10  and  C8_11 
REMARK    4  A    between atoms: C8_11  and  C9_12 
REMARK    5  A    between atoms: C9_12  and  C10_13 
REMARK    6  A    between atoms: C11_14  and  C12_15 
REMARK    7  A    between atoms: C12_15  and  N2_16 
REMARK    8  A    between atoms: N2_16  and  C13_17 
REMARK    9  A    between atoms: C16_21  and  C17_22 
ROOT
HETATM    1  C10 UNL     1      24.741   5.579  48.923  1.00  0.00    -0.026 C 
HETATM    2  C11 UNL     1      23.715   6.113  49.549  1.00  0.00    -0.011 C 
ENDROOT
BRANCH   2   3
HETATM    3  C12 UNL     1      23.045   5.958  50.845  1.00  0.00     0.150 C 
BRANCH   3   4
HETATM    4  N2  UNL     1      21.827   5.170  50.612  1.00  0.00    -0.345 N 
HETATM    5  H13 UNL     1      20.915   5.672  50.626  1.00  0.00     0.164 HD
BRANCH   4   6
HETATM    6  C13 UNL     1      21.880   3.779  50.382  1.00  0.00     0.277 A 
HETATM    7  N3  UNL     1      21.827   3.046  49.263  1.00  0.00    -0.215 NA
HETATM    8  C14 UNL     1      21.902   1.660  49.317  1.00  0.00     0.125 A 
HETATM    9  C15 UNL     1      22.036   1.134  50.636  1.00  0.00     0.065 A 
HETATM   10  C16 UNL     1      22.102   1.864  51.884  1.00  0.00     0.124 A 
HETATM   11  N5  UNL     1      21.994   2.872  51.202  1.00  0.00    -0.369 NA
BRANCH  10  12
HETATM   12  C17 UNL     1      22.243   0.795  52.814  1.00  0.00     0.022 A 
HETATM   13  C18 UNL     1      23.216   0.122  53.476  1.00  0.00     0.018 A 
HETATM   14  C19 UNL     1      22.878  -0.878  54.337  1.00  0.00     0.020 A 
HETATM   15  C20 UNL     1      21.541  -1.242  54.561  1.00  0.00     0.116 A 
HETATM   16  N4  UNL     1      20.497  -0.601  53.916  1.00  0.00    -0.272 NA
HETATM   17  C21 UNL     1      20.918   0.407  53.056  1.00  0.00     0.131 A 
ENDBRANCH  10  12
ENDBRANCH   4   6
ENDBRANCH   3   4
ENDBRANCH   2   3
BRANCH   1  18
HETATM   18  C9  UNL     1      25.490   4.527  49.641  1.00  0.00     0.021 C 
BRANCH  18  19
HETATM   19  C8  UNL     1      25.935   3.524  50.354  1.00  0.00     0.143 C 
BRANCH  19  20
HETATM   20  N1  UNL     1      26.999   3.150  51.253  1.00  0.00    -0.349 N 
HETATM   21  C7  UNL     1      26.440   1.963  51.880  1.00  0.00     0.254 C 
HETATM   22  O2  UNL     1      25.406   2.067  51.217  1.00  0.00    -0.268 OA
HETATM   23  H6  UNL     1      27.968   3.540  51.500  1.00  0.00     0.163 HD
BRANCH  21  24
HETATM   24  C6  UNL     1      27.293   1.279  52.904  1.00  0.00     0.066 C 
HETATM   25  C2  UNL     1      27.117  -0.060  53.402  1.00  0.00     0.095 C 
HETATM   26  C3  UNL     1      27.857   0.049  54.498  1.00  0.00     0.011 C 
HETATM   27  C4  UNL     1      28.859   0.908  54.346  1.00  0.00     0.016 C 
HETATM   28  C5  UNL     1      28.324   1.934  53.418  1.00  0.00     0.021 C 
BRANCH  25  29
HETATM   29  O1  UNL     1      26.413  -1.160  52.945  1.00  0.00    -0.354 OA
HETATM   30  C1  UNL     1      27.228  -2.286  52.565  1.00  0.00     0.210 C 
ENDBRANCH  25  29
ENDBRANCH  21  24
ENDBRANCH  19  20
ENDBRANCH  18  19
ENDBRANCH   1  18
TORSDOF 9
ENDMDL
MODEL 8
REMARK VINA RESULT:      -7.4      1.503      4.067
REMARK  9 active torsions:
REMARK  status: ('A' for Active; 'I' for Inactive)
REMARK    1  A    between atoms: O1_2  and  C2_3 
REMARK    2  A    between atoms: C6_7  and  C7_8 
REMARK       I    between atoms: C7_8  and  N1_10 
REMARK    3  A    between atoms: N1_10  and  C8_11 
REMARK    4  A    between atoms: C8_11  and  C9_12 
REMARK    5  A    between atoms: C9_12  and  C10_13 
REMARK    6  A    between atoms: C11_14  and  C12_15 
REMARK    7  A    between atoms: C12_15  and  N2_16 
REMARK    8  A    between atoms: N2_16  and  C13_17 
REMARK    9  A    between atoms: C16_21  and  C17_22 
ROOT
HETATM    1  C10 UNL     1      21.607   1.196  49.732  1.00  0.00    -0.026 C 
HETATM    2  C11 UNL     1      20.687   1.537  50.607  1.00  0.00    -0.011 C 
ENDROOT
BRANCH   2   3
HETATM    3  C12 UNL     1      20.495   2.588  51.612  1.00  0.00     0.150 C 
BRANCH   3   4
HETATM    4  N2  UNL     1      20.314   1.920  52.909  1.00  0.00    -0.345 N 
HETATM    5  H13 UNL     1      19.574   2.287  53.543  1.00  0.00     0.164 HD
BRANCH   4   6
HETATM    6  C13 UNL     1      21.113   0.823  53.292  1.00  0.00     0.277 A 
HETATM    7  N3  UNL     1      20.818  -0.362  53.841  1.00  0.00    -0.215 NA
HETATM    8  C14 UNL     1      21.819  -1.283  54.125  1.00  0.00     0.125 A 
HETATM    9  C15 UNL     1      23.132  -0.842  53.782  1.00  0.00     0.065 A 
HETATM   10  C16 UNL     1      23.522   0.418  53.188  1.00  0.00     0.124 A 
HETATM   11  N5  UNL     1      22.332   0.698  53.205  1.00  0.00    -0.369 NA
BRANCH  10  12
HETATM   12  C17 UNL     1      24.932   0.244  53.088  1.00  0.00     0.022 A 
HETATM   13  C18 UNL     1      25.923   0.339  52.170  1.00  0.00     0.018 A 
HETATM   14  C19 UNL     1      27.210   0.088  52.537  1.00  0.00     0.020 A 
HETATM   15  C20 UNL     1      27.548  -0.274  53.850  1.00  0.00     0.116 A 
HETATM   16  N4  UNL     1      26.586  -0.394  54.840  1.00  0.00    -0.272 NA
HETATM   17  C21 UNL     1      25.299  -0.121  54.391  1.00  0.00     0.131 A 
ENDBRANCH  10  12
ENDBRANCH   4   6
ENDBRANCH   3   4
ENDBRANCH   2   3
BRANCH   1  18
HETATM   18  C9  UNL     1      22.815   2.043  49.665  1.00  0.00     0.021 C 
BRANCH  18  19
HETATM   19  C8  UNL     1      23.764   2.941  49.755  1.00  0.00     0.143 C 
BRANCH  19  20
HETATM   20  N1  UNL     1      24.235   4.163  49.152  1.00  0.00    -0.349 N 
HETATM   21  C7  UNL     1      25.662   4.081  49.416  1.00  0.00     0.254 C 
HETATM   22  O2  UNL     1      25.521   3.002  49.994  1.00  0.00    -0.268 OA
HETATM   23  H6  UNL     1      23.782   4.987  48.634  1.00  0.00     0.163 HD
BRANCH  21  24
HETATM   24  C6  UNL     1      26.504   5.215  48.917  1.00  0.00     0.066 C 
HETATM   25  C2  UNL     1      26.067   6.568  48.695  1.00  0.00     0.095 C 
HETATM   26  C3  UNL     1      27.068   6.964  47.918  1.00  0.00     0.011 C 
HETATM   27  C4  UNL     1      28.206   6.343  48.208  1.00  0.00     0.016 C 
HETATM   28  C5  UNL     1      27.784   4.992  48.651  1.00  0.00     0.021 C 
BRANCH  25  29
HETATM   29  O1  UNL     1      24.967   7.294  49.116  1.00  0.00    -0.354 OA
HETATM   30  C1  UNL     1      24.929   7.571  50.530  1.00  0.00     0.210 C 
ENDBRANCH  25  29
ENDBRANCH  21  24
ENDBRANCH  19  20
ENDBRANCH  18  19
ENDBRANCH   1  18
TORSDOF 9
ENDMDL
MODEL 9
REMARK VINA RESULT:      -7.3      1.532      2.285
REMARK  9 active torsions:
REMARK  status: ('A' for Active; 'I' for Inactive)
REMARK    1  A    between atoms: O1_2  and  C2_3 
REMARK    2  A    between atoms: C6_7  and  C7_8 
REMARK       I    between atoms: C7_8  and  N1_10 
REMARK    3  A    between atoms: N1_10  and  C8_11 
REMARK    4  A    between atoms: C8_11  and  C9_12 
REMARK    5  A    between atoms: C9_12  and  C10_13 
REMARK    6  A    between atoms: C11_14  and  C12_15 
REMARK    7  A    between atoms: C12_15  and  N2_16 
REMARK    8  A    between atoms: N2_16  and  C13_17 
REMARK    9  A    between atoms: C16_21  and  C17_22 
ROOT
HETATM    1  C10 UNL     1      26.645   0.546  52.396  1.00  0.00    -0.026 C 
HETATM    2  C11 UNL     1      26.721  -0.096  53.540  1.00  0.00    -0.011 C 
ENDROOT
BRANCH   2   3
HETATM    3  C12 UNL     1      26.110  -0.002  54.870  1.00  0.00     0.150 C 
BRANCH   3   4
HETATM    4  N2  UNL     1      25.208  -1.153  55.016  1.00  0.00    -0.345 N 
HETATM    5  H13 UNL     1      25.625  -2.060  55.313  1.00  0.00     0.164 HD
BRANCH   4   6
HETATM    6  C13 UNL     1      23.825  -1.044  54.762  1.00  0.00     0.277 A 
HETATM    7  N3  UNL     1      22.754  -1.615  55.329  1.00  0.00    -0.215 NA
HETATM    8  C14 UNL     1      21.473  -1.329  54.875  1.00  0.00     0.125 A 
HETATM    9  C15 UNL     1      21.431  -0.403  53.790  1.00  0.00     0.065 A 
HETATM   10  C16 UNL     1      22.542   0.250  53.133  1.00  0.00     0.124 A 
HETATM   11  N5  UNL     1      23.255  -0.363  53.914  1.00  0.00    -0.369 NA
BRANCH  10  12
HETATM   12  C17 UNL     1      21.857   1.038  52.165  1.00  0.00     0.022 A 
HETATM   13  C18 UNL     1      21.870   1.282  50.833  1.00  0.00     0.018 A 
HETATM   14  C19 UNL     1      20.966   2.148  50.296  1.00  0.00     0.020 A 
HETATM   15  C20 UNL     1      20.013   2.808  51.087  1.00  0.00     0.116 A 
HETATM   16  N4  UNL     1      19.944   2.610  52.456  1.00  0.00    -0.272 NA
HETATM   17  C21 UNL     1      20.895   1.713  52.930  1.00  0.00     0.131 A 
ENDBRANCH  10  12
ENDBRANCH   4   6
ENDBRANCH   3   4
ENDBRANCH   2   3
BRANCH   1  18
HETATM   18  C9  UNL     1      25.713   1.691  52.330  1.00  0.00     0.021 C 
BRANCH  18  19
HETATM   19  C8  UNL     1      25.073   2.821  52.167  1.00  0.00     0.143 C 
BRANCH  19  20
HETATM   20  N1  UNL     1      25.004   3.976  51.306  1.00  0.00    -0.349 N 
HETATM   21  C7  UNL     1      23.851   4.671  51.852  1.00  0.00     0.254 C 
HETATM   22  O2  UNL     1      23.690   3.795  52.703  1.00  0.00    -0.268 OA
HETATM   23  H6  UNL     1      25.564   4.341  50.466  1.00  0.00     0.163 HD
BRANCH  21  24
HETATM   24  C6  UNL     1      23.466   5.959  51.189  1.00  0.00     0.066 C 
HETATM   25  C2  UNL     1      24.368   6.963  50.691  1.00  0.00     0.095 C 
HETATM   26  C3  UNL     1      23.504   7.967  50.609  1.00  0.00     0.011 C 
HETATM   27  C4  UNL     1      22.271   7.550  50.347  1.00  0.00     0.016 C 
HETATM   28  C5  UNL     1      22.180   6.230  51.019  1.00  0.00     0.021 C 
BRANCH  25  29
HETATM   29  O1  UNL     1      25.717   6.962  50.380  1.00  0.00    -0.354 OA
HETATM   30  C1  UNL     1      26.061   7.671  49.174  1.00  0.00     0.210 C 
ENDBRANCH  25  29
ENDBRANCH  21  24
ENDBRANCH  19  20
ENDBRANCH  18  19
ENDBRANCH   1  18
TORSDOF 9
ENDMDL
