MODEL 1
REMARK VINA RESULT:      -9.3      0.000      0.000
REMARK  4 active torsions:
REMARK  status: ('A' for Active; 'I' for Inactive)
REMARK    1  A    between atoms: N1_1  and  C1_2 
REMARK    2  A    between atoms: N3_4  and  C2_5 
REMARK    3  A    between atoms: C10_15  and  C11_16 
REMARK    4  A    between atoms: C11_16  and  C12_17 
ROOT
HETATM    1  C1  UNL     1      22.306  -0.920  53.951  1.00  0.00     0.738 C 
HETATM    2  N2  UNL     1      23.569  -0.770  54.272  1.00  0.00     0.022 NA
HETATM    3  N3  UNL     1      24.410   0.010  53.428  1.00  0.00    -0.235 N 
HETATM    4  C8  UNL     1      23.693   1.008  52.772  1.00  0.00     0.206 C 
HETATM    5  C9  UNL     1      24.360   1.837  51.755  1.00  0.00     0.033 C 
HETATM    6  C10 UNL     1      23.527   2.249  50.817  1.00  0.00     0.013 C 
HETATM    7  N4  UNL     1      22.294   1.562  51.014  1.00  0.00    -0.345 N 
HETATM    8  C18 UNL     1      22.400   0.661  52.140  1.00  0.00     0.152 C 
HETATM    9  N5  UNL     1      21.765  -0.188  52.867  1.00  0.00    -0.046 NA
HETATM   10  H13 UNL     1      21.316   1.508  50.585  1.00  0.00     0.167 HD
ENDROOT
BRANCH   6  11
HETATM   11  C11 UNL     1      23.487   3.065  49.580  1.00  0.00     0.097 C 
BRANCH  11  12
HETATM   12  C12 UNL     1      24.240   4.337  49.707  1.00  0.00    -0.031 A 
HETATM   13  C13 UNL     1      25.526   4.513  49.233  1.00  0.00     0.011 A 
HETATM   14  C14 UNL     1      26.248   5.665  49.332  1.00  0.00     0.024 A 
HETATM   15  C15 UNL     1      25.663   6.762  49.959  1.00  0.00     0.035 A 
HETATM   16 CL2  UNL     1      26.596   8.231  50.082  1.00  0.00    -0.084 Cl
HETATM   17  C16 UNL     1      24.380   6.626  50.446  1.00  0.00     0.048 A 
HETATM   18  C17 UNL     1      23.672   5.440  50.328  1.00  0.00     0.042 A 
HETATM   19 CL3  UNL     1      22.050   5.340  50.968  1.00  0.00    -0.084 Cl
ENDBRANCH  11  12
ENDBRANCH   6  11
BRANCH   3  20
HETATM   20  C2  UNL     1      25.783  -0.363  53.414  1.00  0.00     0.093 A 
HETATM   21  C3  UNL     1      26.410  -1.369  52.707  1.00  0.00     0.036 A 
HETATM   22  C4  UNL     1      27.760  -1.552  52.848  1.00  0.00     0.026 A 
HETATM   23  C5  UNL     1      28.540  -0.754  53.685  1.00  0.00     0.037 A 
HETATM   24 CL1  UNL     1      30.263  -1.026  53.832  1.00  0.00    -0.084 Cl
HETATM   25  C6  UNL     1      27.903   0.233  54.374  1.00  0.00     0.068 A 
HETATM   26  C7  UNL     1      26.538   0.455  54.264  1.00  0.00     0.146 A 
HETATM   27  F1  UNL     1      26.047   1.475  55.012  1.00  0.00    -0.204 F 
ENDBRANCH   3  20
BRANCH   1  28
HETATM   28  N1  UNL     1      21.218  -1.643  54.575  1.00  0.00    -0.230 N 
HETATM   29  H1  UNL     1      20.601  -1.107  55.225  1.00  0.00     0.174 HD
HETATM   30  H2  UNL     1      21.015  -2.658  54.416  1.00  0.00     0.174 HD
ENDBRANCH   1  28
TORSDOF 4
ENDMDL
MODEL 2
REMARK VINA RESULT:      -8.5      1.772      2.116
REMARK  4 active torsions:
REMARK  status: ('A' for Active; 'I' for Inactive)
REMARK    1  A    between atoms: N1_1  and  C1_2 
REMARK    2  A    between atoms: N3_4  and  C2_5 
REMARK    3  A    between atoms: C10_15  and  C11_16 
REMARK    4  A    between atoms: C11_16  and  C12_17 
ROOT
HETATM    1  C1  UNL     1      22.241  -0.785  53.920  1.00  0.00     0.738 C 
HETATM    2  N2  UNL     1      23.506  -0.657  54.240  1.00  0.00     0.022 NA
HETATM    3  N3  UNL     1      24.367   0.081  53.379  1.00  0.00    -0.235 N 
HETATM    4  C8  UNL     1      23.675   1.079  52.696  1.00  0.00     0.206 C 
HETATM    5  C9  UNL     1      24.365   1.865  51.660  1.00  0.00     0.033 C 
HETATM    6  C10 UNL     1      23.543   2.273  50.710  1.00  0.00     0.013 C 
HETATM    7  N4  UNL     1      22.293   1.621  50.921  1.00  0.00    -0.345 N 
HETATM    8  C18 UNL     1      22.376   0.747  52.070  1.00  0.00     0.152 C 
HETATM    9  N5  UNL     1      21.719  -0.068  52.816  1.00  0.00    -0.046 NA
HETATM   10  H13 UNL     1      21.315   1.580  50.491  1.00  0.00     0.167 HD
ENDROOT
BRANCH   6  11
HETATM   11  C11 UNL     1      23.526   3.058  49.452  1.00  0.00     0.097 C 
BRANCH  11  12
HETATM   12  C12 UNL     1      22.799   4.345  49.589  1.00  0.00    -0.031 A 
HETATM   13  C13 UNL     1      22.942   5.190  50.672  1.00  0.00     0.011 A 
HETATM   14  C14 UNL     1      22.292   6.377  50.833  1.00  0.00     0.024 A 
HETATM   15  C15 UNL     1      21.408   6.789  49.838  1.00  0.00     0.035 A 
HETATM   16 CL2  UNL     1      20.579   8.309  50.053  1.00  0.00    -0.084 Cl
HETATM   17  C16 UNL     1      21.238   5.972  48.740  1.00  0.00     0.048 A 
HETATM   18  C17 UNL     1      21.916   4.769  48.607  1.00  0.00     0.042 A 
HETATM   19 CL3  UNL     1      21.651   3.786  47.188  1.00  0.00    -0.084 Cl
ENDBRANCH  11  12
ENDBRANCH   6  11
BRANCH   3  20
HETATM   20  C2  UNL     1      25.731  -0.325  53.378  1.00  0.00     0.093 A 
HETATM   21  C3  UNL     1      26.338  -1.354  52.686  1.00  0.00     0.036 A 
HETATM   22  C4  UNL     1      27.682  -1.568  52.837  1.00  0.00     0.026 A 
HETATM   23  C5  UNL     1      28.475  -0.780  53.670  1.00  0.00     0.037 A 
HETATM   24 CL1  UNL     1      30.191  -1.092  53.832  1.00  0.00    -0.084 Cl
HETATM   25  C6  UNL     1      27.859   0.229  54.344  1.00  0.00     0.068 A 
HETATM   26  C7  UNL     1      26.501   0.483  54.223  1.00  0.00     0.146 A 
HETATM   27  F1  UNL     1      26.030   1.524  54.957  1.00  0.00    -0.204 F 
ENDBRANCH   3  20
BRANCH   1  28
HETATM   28  N1  UNL     1      21.134  -1.465  54.560  1.00  0.00    -0.230 N 
HETATM   29  H1  UNL     1      20.236  -0.939  54.644  1.00  0.00     0.174 HD
HETATM   30  H2  UNL     1      21.180  -2.441  54.939  1.00  0.00     0.174 HD
ENDBRANCH   1  28
TORSDOF 4
ENDMDL
MODEL 3
REMARK VINA RESULT:      -8.3      3.021      7.305
REMARK  4 active torsions:
REMARK  status: ('A' for Active; 'I' for Inactive)
REMARK    1  A    between atoms: N1_1  and  C1_2 
REMARK    2  A    between atoms: N3_4  and  C2_5 
REMARK    3  A    between atoms: C10_15  and  C11_16 
REMARK    4  A    between atoms: C11_16  and  C12_17 
ROOT
HETATM    1  C1  UNL     1      22.281   5.019  48.638  1.00  0.00     0.738 C 
HETATM    2  N2  UNL     1      23.494   5.393  48.309  1.00  0.00     0.022 NA
HETATM    3  N3  UNL     1      24.563   5.150  49.218  1.00  0.00    -0.235 N 
HETATM    4  C8  UNL     1      24.326   4.020  49.997  1.00  0.00     0.206 C 
HETATM    5  C9  UNL     1      25.254   3.678  51.087  1.00  0.00     0.033 C 
HETATM    6  C10 UNL     1      24.651   3.054  52.082  1.00  0.00     0.013 C 
HETATM    7  N4  UNL     1      23.249   3.116  51.835  1.00  0.00    -0.345 N 
HETATM    8  C18 UNL     1      22.991   3.844  50.613  1.00  0.00     0.152 C 
HETATM    9  N5  UNL     1      22.075   4.250  49.808  1.00  0.00    -0.046 NA
HETATM   10  H13 UNL     1      22.331   2.791  52.276  1.00  0.00     0.167 HD
ENDROOT
BRANCH   6  11
HETATM   11  C11 UNL     1      24.930   2.443  53.404  1.00  0.00     0.097 C 
BRANCH  11  12
HETATM   12  C12 UNL     1      26.147   1.593  53.399  1.00  0.00    -0.031 A 
HETATM   13  C13 UNL     1      27.431   2.100  53.466  1.00  0.00     0.011 A 
HETATM   14  C14 UNL     1      28.570   1.352  53.462  1.00  0.00     0.024 A 
HETATM   15  C15 UNL     1      28.454  -0.034  53.385  1.00  0.00     0.035 A 
HETATM   16 CL2  UNL     1      29.918  -0.982  53.380  1.00  0.00    -0.084 Cl
HETATM   17  C16 UNL     1      27.188  -0.578  53.317  1.00  0.00     0.048 A 
HETATM   18  C17 UNL     1      26.048   0.212  53.323  1.00  0.00     0.042 A 
HETATM   19 CL3  UNL     1      24.477  -0.546  53.235  1.00  0.00    -0.084 Cl
ENDBRANCH  11  12
ENDBRANCH   6  11
BRANCH   3  20
HETATM   20  C2  UNL     1      25.641   6.077  49.161  1.00  0.00     0.093 A 
HETATM   21  C3  UNL     1      26.815   6.013  48.438  1.00  0.00     0.036 A 
HETATM   22  C4  UNL     1      27.725   7.032  48.536  1.00  0.00     0.026 A 
HETATM   23  C5  UNL     1      27.513   8.148  49.345  1.00  0.00     0.037 A 
HETATM   24 CL1  UNL     1      28.706   9.427  49.438  1.00  0.00    -0.084 Cl
HETATM   25  C6  UNL     1      26.350   8.193  50.050  1.00  0.00     0.068 A 
HETATM   26  C7  UNL     1      25.400   7.185  49.983  1.00  0.00     0.146 A 
HETATM   27  F1  UNL     1      24.291   7.371  50.743  1.00  0.00    -0.204 F 
ENDBRANCH   3  20
BRANCH   1  28
HETATM   28  N1  UNL     1      21.006   5.128  47.959  1.00  0.00    -0.230 N 
HETATM   29  H1  UNL     1      20.870   5.951  47.330  1.00  0.00     0.174 HD
HETATM   30  H2  UNL     1      20.223   4.440  48.059  1.00  0.00     0.174 HD
ENDBRANCH   1  28
TORSDOF 4
ENDMDL
MODEL 4
REMARK VINA RESULT:      -8.2      2.830      4.931
REMARK  4 active torsions:
REMARK  status: ('A' for Active; 'I' for Inactive)
REMARK    1  A    between atoms: N1_1  and  C1_2 
REMARK    2  A    between atoms: N3_4  and  C2_5 
REMARK    3  A    between atoms: C10_15  and  C11_16 
REMARK    4  A    between atoms: C11_16  and  C12_17 
ROOT
HETATM    1  C1  UNL     1      24.821  -0.123  53.760  1.00  0.00     0.738 C 
HETATM    2  N2  UNL     1      23.749  -0.475  53.091  1.00  0.00     0.022 NA
HETATM    3  N3  UNL     1      23.056   0.507  52.329  1.00  0.00    -0.235 N 
HETATM    4  C8  UNL     1      23.916   1.503  51.872  1.00  0.00     0.206 C 
HETATM    5  C9  UNL     1      23.367   2.678  51.176  1.00  0.00     0.033 C 
HETATM    6  C10 UNL     1      24.101   3.759  51.362  1.00  0.00     0.013 C 
HETATM    7  N4  UNL     1      25.071   3.448  52.358  1.00  0.00    -0.345 N 
HETATM    8  C18 UNL     1      24.897   2.087  52.814  1.00  0.00     0.152 C 
HETATM    9  N5  UNL     1      25.356   1.177  53.597  1.00  0.00    -0.046 NA
HETATM   10  H13 UNL     1      25.887   3.911  52.870  1.00  0.00     0.167 HD
ENDROOT
BRANCH   6  11
HETATM   11  C11 UNL     1      24.166   5.193  50.988  1.00  0.00     0.097 C 
BRANCH  11  12
HETATM   12  C12 UNL     1      25.339   5.511  50.136  1.00  0.00    -0.031 A 
HETATM   13  C13 UNL     1      26.162   4.550  49.582  1.00  0.00     0.011 A 
HETATM   14  C14 UNL     1      27.247   4.804  48.797  1.00  0.00     0.024 A 
HETATM   15  C15 UNL     1      27.570   6.130  48.520  1.00  0.00     0.035 A 
HETATM   16 CL2  UNL     1      28.961   6.445  47.516  1.00  0.00    -0.084 Cl
HETATM   17  C16 UNL     1      26.772   7.119  49.056  1.00  0.00     0.048 A 
HETATM   18  C17 UNL     1      25.674   6.827  49.851  1.00  0.00     0.042 A 
HETATM   19 CL3  UNL     1      24.708   8.131  50.495  1.00  0.00    -0.084 Cl
ENDBRANCH  11  12
ENDBRANCH   6  11
BRANCH   3  20
HETATM   20  C2  UNL     1      21.656   0.294  52.180  1.00  0.00     0.093 A 
HETATM   21  C3  UNL     1      20.889   0.279  51.032  1.00  0.00     0.036 A 
HETATM   22  C4  UNL     1      19.542   0.052  51.124  1.00  0.00     0.026 A 
HETATM   23  C5  UNL     1      18.902  -0.168  52.343  1.00  0.00     0.037 A 
HETATM   24 CL1  UNL     1      17.176  -0.454  52.411  1.00  0.00    -0.084 Cl
HETATM   25  C6  UNL     1      19.675  -0.148  53.464  1.00  0.00     0.068 A 
HETATM   26  C7  UNL     1      21.042   0.078  53.420  1.00  0.00     0.146 A 
HETATM   27  F1  UNL     1      21.678   0.068  54.619  1.00  0.00    -0.204 F 
ENDBRANCH   3  20
BRANCH   1  28
HETATM   28  N1  UNL     1      25.723  -0.861  54.619  1.00  0.00    -0.230 N 
HETATM   29  H1  UNL     1      26.170  -1.716  54.219  1.00  0.00     0.174 HD
HETATM   30  H2  UNL     1      25.952  -0.592  55.606  1.00  0.00     0.174 HD
ENDBRANCH   1  28
TORSDOF 4
ENDMDL
MODEL 5
REMARK VINA RESULT:      -8.2      3.647      8.013
REMARK  4 active torsions:
REMARK  status: ('A' for Active; 'I' for Inactive)
REMARK    1  A    between atoms: N1_1  and  C1_2 
REMARK    2  A    between atoms: N3_4  and  C2_5 
REMARK    3  A    between atoms: C10_15  and  C11_16 
REMARK    4  A    between atoms: C11_16  and  C12_17 
ROOT
HETATM    1  C1  UNL     1      26.557   4.373  49.687  1.00  0.00     0.738 C 
HETATM    2  N2  UNL     1      25.473   5.043  49.994  1.00  0.00     0.022 NA
HETATM    3  N3  UNL     1      24.460   4.406  50.766  1.00  0.00    -0.235 N 
HETATM    4  C8  UNL     1      24.996   3.442  51.617  1.00  0.00     0.206 C 
HETATM    5  C9  UNL     1      24.096   2.581  52.402  1.00  0.00     0.033 C 
HETATM    6  C10 UNL     1      24.616   1.390  52.633  1.00  0.00     0.013 C 
HETATM    7  N4  UNL     1      25.801   1.285  51.850  1.00  0.00    -0.345 N 
HETATM    8  C18 UNL     1      25.999   2.493  51.081  1.00  0.00     0.152 C 
HETATM    9  N5  UNL     1      26.775   3.092  50.250  1.00  0.00    -0.046 NA
HETATM   10  H13 UNL     1      26.588   0.588  51.656  1.00  0.00     0.167 HD
ENDROOT
BRANCH   6  11
HETATM   11  C11 UNL     1      24.315   0.107  53.314  1.00  0.00     0.097 C 
BRANCH  11  12
HETATM   12  C12 UNL     1      22.863  -0.204  53.337  1.00  0.00    -0.031 A 
HETATM   13  C13 UNL     1      21.983   0.194  52.350  1.00  0.00     0.011 A 
HETATM   14  C14 UNL     1      20.646  -0.072  52.338  1.00  0.00     0.024 A 
HETATM   15  C15 UNL     1      20.105  -0.798  53.396  1.00  0.00     0.035 A 
HETATM   16 CL2  UNL     1      18.393  -1.132  53.372  1.00  0.00    -0.084 Cl
HETATM   17  C16 UNL     1      20.952  -1.213  54.401  1.00  0.00     0.048 A 
HETATM   18  C17 UNL     1      22.309  -0.926  54.383  1.00  0.00     0.042 A 
HETATM   19 CL3  UNL     1      23.323  -1.484  55.691  1.00  0.00    -0.084 Cl
ENDBRANCH  11  12
ENDBRANCH   6  11
BRANCH   3  20
HETATM   20  C2  UNL     1      23.132   4.859  50.532  1.00  0.00     0.093 A 
HETATM   21  C3  UNL     1      22.438   5.889  51.136  1.00  0.00     0.036 A 
HETATM   22  C4  UNL     1      21.152   6.153  50.750  1.00  0.00     0.026 A 
HETATM   23  C5  UNL     1      20.502   5.418  49.759  1.00  0.00     0.037 A 
HETATM   24 CL1  UNL     1      18.855   5.794  49.298  1.00  0.00    -0.084 Cl
HETATM   25  C6  UNL     1      21.202   4.407  49.175  1.00  0.00     0.068 A 
HETATM   26  C7  UNL     1      22.506   4.102  49.534  1.00  0.00     0.146 A 
HETATM   27  F1  UNL     1      23.073   3.067  48.863  1.00  0.00    -0.204 F 
ENDBRANCH   3  20
BRANCH   1  28
HETATM   28  N1  UNL     1      27.739   4.720  48.925  1.00  0.00    -0.230 N 
HETATM   29  H1  UNL     1      27.640   5.474  48.209  1.00  0.00     0.174 HD
HETATM   30  H2  UNL     1      28.675   4.266  49.048  1.00  0.00     0.174 HD
ENDBRANCH   1  28
TORSDOF 4
ENDMDL
MODEL 6
REMARK VINA RESULT:      -7.8      6.604      9.207
REMARK  4 active torsions:
REMARK  status: ('A' for Active; 'I' for Inactive)
REMARK    1  A    between atoms: N1_1  and  C1_2 
REMARK    2  A    between atoms: N3_4  and  C2_5 
REMARK    3  A    between atoms: C10_15  and  C11_16 
REMARK    4  A    between atoms: C11_16  and  C12_17 
ROOT
HETATM    1  C1  UNL     1      30.297   9.922  49.291  1.00  0.00     0.738 C 
HETATM    2  N2  UNL     1      30.917   9.073  48.509  1.00  0.00     0.022 NA
HETATM    3  N3  UNL     1      30.247   7.881  48.112  1.00  0.00    -0.235 N 
HETATM    4  C8  UNL     1      28.867   8.064  48.054  1.00  0.00     0.206 C 
HETATM    5  C9  UNL     1      27.989   6.913  47.790  1.00  0.00     0.033 C 
HETATM    6  C10 UNL     1      26.806   7.043  48.360  1.00  0.00     0.013 C 
HETATM    7  N4  UNL     1      26.870   8.180  49.217  1.00  0.00    -0.345 N 
HETATM    8  C18 UNL     1      28.192   8.764  49.170  1.00  0.00     0.152 C 
HETATM    9  N5  UNL     1      28.931   9.722  49.604  1.00  0.00    -0.046 NA
HETATM   10  H13 UNL     1      26.243   8.733  49.883  1.00  0.00     0.167 HD
ENDROOT
BRANCH   6  11
HETATM   11  C11 UNL     1      25.507   6.342  48.507  1.00  0.00     0.097 C 
BRANCH  11  12
HETATM   12  C12 UNL     1      25.602   5.131  49.360  1.00  0.00    -0.031 A 
HETATM   13  C13 UNL     1      26.555   4.147  49.184  1.00  0.00     0.011 A 
HETATM   14  C14 UNL     1      26.672   3.023  49.945  1.00  0.00     0.024 A 
HETATM   15  C15 UNL     1      25.768   2.831  50.988  1.00  0.00     0.035 A 
HETATM   16 CL2  UNL     1      25.924   1.388  51.956  1.00  0.00    -0.084 Cl
HETATM   17  C16 UNL     1      24.801   3.792  51.196  1.00  0.00     0.048 A 
HETATM   18  C17 UNL     1      24.709   4.925  50.402  1.00  0.00     0.042 A 
HETATM   19 CL3  UNL     1      23.459   6.101  50.724  1.00  0.00    -0.084 Cl
ENDBRANCH  11  12
ENDBRANCH   6  11
BRANCH   3  20
HETATM   20  C2  UNL     1      31.086   6.760  47.855  1.00  0.00     0.093 A 
HETATM   21  C3  UNL     1      31.452   5.729  48.697  1.00  0.00     0.036 A 
HETATM   22  C4  UNL     1      32.280   4.742  48.234  1.00  0.00     0.026 A 
HETATM   23  C5  UNL     1      32.776   4.732  46.931  1.00  0.00     0.037 A 
HETATM   24 CL1  UNL     1      33.833   3.448  46.383  1.00  0.00    -0.084 Cl
HETATM   25  C6  UNL     1      32.404   5.757  46.116  1.00  0.00     0.068 A 
HETATM   26  C7  UNL     1      31.568   6.779  46.541  1.00  0.00     0.146 A 
HETATM   27  F1  UNL     1      31.286   7.731  45.615  1.00  0.00    -0.204 F 
ENDBRANCH   3  20
BRANCH   1  28
HETATM   28  N1  UNL     1      30.695  11.189  49.870  1.00  0.00    -0.230 N 
HETATM   29  H1  UNL     1      30.536  12.047  49.296  1.00  0.00     0.174 HD
HETATM   30  H2  UNL     1      31.128  11.295  50.818  1.00  0.00     0.174 HD
ENDBRANCH   1  28
TORSDOF 4
ENDMDL
MODEL 7
REMARK VINA RESULT:      -7.7      3.413      6.993
REMARK  4 active torsions:
REMARK  status: ('A' for Active; 'I' for Inactive)
REMARK    1  A    between atoms: N1_1  and  C1_2 
REMARK    2  A    between atoms: N3_4  and  C2_5 
REMARK    3  A    between atoms: C10_15  and  C11_16 
REMARK    4  A    between atoms: C11_16  and  C12_17 
ROOT
HETATM    1  C1  UNL     1      26.129   0.312  52.615  1.00  0.00     0.738 C 
HETATM    2  N2  UNL     1      25.767   1.524  52.269  1.00  0.00     0.022 NA
HETATM    3  N3  UNL     1      24.381   1.839  52.198  1.00  0.00    -0.235 N 
HETATM    4  C8  UNL     1      23.635   1.075  53.092  1.00  0.00     0.206 C 
HETATM    5  C9  UNL     1      22.165   1.160  53.075  1.00  0.00     0.033 C 
HETATM    6  C10 UNL     1      21.593   0.031  53.447  1.00  0.00     0.013 C 
HETATM    7  N4  UNL     1      22.618  -0.955  53.538  1.00  0.00    -0.345 N 
HETATM    8  C18 UNL     1      23.894  -0.380  53.178  1.00  0.00     0.152 C 
HETATM    9  N5  UNL     1      25.153  -0.614  53.056  1.00  0.00    -0.046 NA
HETATM   10  H13 UNL     1      22.733  -1.988  53.789  1.00  0.00     0.167 HD
ENDROOT
BRANCH   6  11
HETATM   11  C11 UNL     1      20.256  -0.573  53.667  1.00  0.00     0.097 C 
BRANCH  11  12
HETATM   12  C12 UNL     1      19.312  -0.298  52.555  1.00  0.00    -0.031 A 
HETATM   13  C13 UNL     1      19.566   0.612  51.547  1.00  0.00     0.011 A 
HETATM   14  C14 UNL     1      18.725   0.891  50.512  1.00  0.00     0.024 A 
HETATM   15  C15 UNL     1      17.507   0.218  50.447  1.00  0.00     0.035 A 
HETATM   16 CL2  UNL     1      16.436   0.583  49.120  1.00  0.00    -0.084 Cl
HETATM   17  C16 UNL     1      17.217  -0.699  51.435  1.00  0.00     0.048 A 
HETATM   18  C17 UNL     1      18.096  -0.960  52.476  1.00  0.00     0.042 A 
HETATM   19 CL3  UNL     1      17.662  -2.135  53.693  1.00  0.00    -0.084 Cl
ENDBRANCH  11  12
ENDBRANCH   6  11
BRANCH   3  20
HETATM   20  C2  UNL     1      24.027   2.845  51.255  1.00  0.00     0.093 A 
HETATM   21  C3  UNL     1      23.851   2.744  49.890  1.00  0.00     0.036 A 
HETATM   22  C4  UNL     1      23.507   3.857  49.170  1.00  0.00     0.026 A 
HETATM   23  C5  UNL     1      23.322   5.105  49.764  1.00  0.00     0.037 A 
HETATM   24 CL1  UNL     1      22.881   6.500  48.801  1.00  0.00    -0.084 Cl
HETATM   25  C6  UNL     1      23.499   5.184  51.111  1.00  0.00     0.068 A 
HETATM   26  C7  UNL     1      23.849   4.085  51.881  1.00  0.00     0.146 A 
HETATM   27  F1  UNL     1      23.991   4.321  53.211  1.00  0.00    -0.204 F 
ENDBRANCH   3  20
BRANCH   1  28
HETATM   28  N1  UNL     1      27.425  -0.316  52.767  1.00  0.00    -0.230 N 
HETATM   29  H1  UNL     1      27.891  -0.227  53.697  1.00  0.00     0.174 HD
HETATM   30  H2  UNL     1      27.916  -0.846  52.010  1.00  0.00     0.174 HD
ENDBRANCH   1  28
TORSDOF 4
ENDMDL
MODEL 8
REMARK VINA RESULT:      -7.5      2.946      5.746
REMARK  4 active torsions:
REMARK  status: ('A' for Active; 'I' for Inactive)
REMARK    1  A    between atoms: N1_1  and  C1_2 
REMARK    2  A    between atoms: N3_4  and  C2_5 
REMARK    3  A    between atoms: C10_15  and  C11_16 
REMARK    4  A    between atoms: C11_16  and  C12_17 
ROOT
HETATM    1  C1  UNL     1      26.064   0.505  54.102  1.00  0.00     0.738 C 
HETATM    2  N2  UNL     1      26.119   1.659  53.483  1.00  0.00     0.022 NA
HETATM    3  N3  UNL     1      25.091   1.998  52.558  1.00  0.00    -0.235 N 
HETATM    4  C8  UNL     1      23.879   1.401  52.898  1.00  0.00     0.206 C 
HETATM    5  C9  UNL     1      22.726   1.524  51.991  1.00  0.00     0.033 C 
HETATM    6  C10 UNL     1      21.920   0.481  52.060  1.00  0.00     0.013 C 
HETATM    7  N4  UNL     1      22.572  -0.508  52.853  1.00  0.00    -0.345 N 
HETATM    8  C18 UNL     1      23.869  -0.030  53.276  1.00  0.00     0.152 C 
HETATM    9  N5  UNL     1      24.919  -0.315  53.961  1.00  0.00    -0.046 NA
HETATM   10  H13 UNL     1      22.397  -1.493  53.230  1.00  0.00     0.167 HD
ENDROOT
BRANCH   6  11
HETATM   11  C11 UNL     1      20.654  -0.044  51.493  1.00  0.00     0.097 C 
BRANCH  11  12
HETATM   12  C12 UNL     1      19.780   1.026  50.952  1.00  0.00    -0.031 A 
HETATM   13  C13 UNL     1      18.722   1.573  51.652  1.00  0.00     0.011 A 
HETATM   14  C14 UNL     1      17.898   2.554  51.188  1.00  0.00     0.024 A 
HETATM   15  C15 UNL     1      18.122   3.059  49.909  1.00  0.00     0.035 A 
HETATM   16 CL2  UNL     1      17.061   4.313  49.324  1.00  0.00    -0.084 Cl
HETATM   17  C16 UNL     1      19.169   2.537  49.178  1.00  0.00     0.048 A 
HETATM   18  C17 UNL     1      19.989   1.538  49.680  1.00  0.00     0.042 A 
HETATM   19 CL3  UNL     1      21.297   0.926  48.698  1.00  0.00    -0.084 Cl
ENDBRANCH  11  12
ENDBRANCH   6  11
BRANCH   3  20
HETATM   20  C2  UNL     1      25.480   2.858  51.493  1.00  0.00     0.093 A 
HETATM   21  C3  UNL     1      26.388   2.638  50.476  1.00  0.00     0.036 A 
HETATM   22  C4  UNL     1      26.610   3.618  49.547  1.00  0.00     0.026 A 
HETATM   23  C5  UNL     1      25.951   4.846  49.582  1.00  0.00     0.037 A 
HETATM   24 CL1  UNL     1      26.269   6.070  48.371  1.00  0.00    -0.084 Cl
HETATM   25  C6  UNL     1      25.061   5.045  50.592  1.00  0.00     0.068 A 
HETATM   26  C7  UNL     1      24.803   4.082  51.557  1.00  0.00     0.146 A 
HETATM   27  F1  UNL     1      23.890   4.425  52.501  1.00  0.00    -0.204 F 
ENDBRANCH   3  20
BRANCH   1  28
HETATM   28  N1  UNL     1      26.937  -0.129  55.069  1.00  0.00    -0.230 N 
HETATM   29  H1  UNL     1      26.732  -1.122  55.318  1.00  0.00     0.174 HD
HETATM   30  H2  UNL     1      27.751   0.344  55.528  1.00  0.00     0.174 HD
ENDBRANCH   1  28
TORSDOF 4
ENDMDL
MODEL 9
REMARK VINA RESULT:      -7.4      7.542     10.917
REMARK  4 active torsions:
REMARK  status: ('A' for Active; 'I' for Inactive)
REMARK    1  A    between atoms: N1_1  and  C1_2 
REMARK    2  A    between atoms: N3_4  and  C2_5 
REMARK    3  A    between atoms: C10_15  and  C11_16 
REMARK    4  A    between atoms: C11_16  and  C12_17 
ROOT
HETATM    1  C1  UNL     1      28.207  10.889  46.692  1.00  0.00     0.738 C 
HETATM    2  N2  UNL     1      27.540  10.287  47.647  1.00  0.00     0.022 NA
HETATM    3  N3  UNL     1      28.191   9.284  48.419  1.00  0.00    -0.235 N 
HETATM    4  C8  UNL     1      29.561   9.515  48.510  1.00  0.00     0.206 C 
HETATM    5  C9  UNL     1      30.428   8.517  49.157  1.00  0.00     0.033 C 
HETATM    6  C10 UNL     1      31.648   8.509  48.652  1.00  0.00     0.013 C 
HETATM    7  N4  UNL     1      31.634   9.343  47.497  1.00  0.00    -0.345 N 
HETATM    8  C18 UNL     1      30.308   9.878  47.285  1.00  0.00     0.152 C 
HETATM    9  N5  UNL     1      29.594  10.645  46.541  1.00  0.00    -0.046 NA
HETATM   10  H13 UNL     1      32.303   9.695  46.740  1.00  0.00     0.167 HD
ENDROOT
BRANCH   6  11
HETATM   11  C11 UNL     1      32.959   7.833  48.802  1.00  0.00     0.097 C 
BRANCH  11  12
HETATM   12  C12 UNL     1      32.934   6.421  48.346  1.00  0.00    -0.031 A 
HETATM   13  C13 UNL     1      31.787   5.779  47.918  1.00  0.00     0.011 A 
HETATM   14  C14 UNL     1      31.725   4.485  47.494  1.00  0.00     0.024 A 
HETATM   15  C15 UNL     1      32.897   3.733  47.484  1.00  0.00     0.035 A 
HETATM   16 CL2  UNL     1      32.807   2.078  46.941  1.00  0.00    -0.084 Cl
HETATM   17  C16 UNL     1      34.063   4.339  47.903  1.00  0.00     0.048 A 
HETATM   18  C17 UNL     1      34.092   5.659  48.329  1.00  0.00     0.042 A 
HETATM   19 CL3  UNL     1      35.605   6.361  48.846  1.00  0.00    -0.084 Cl
ENDBRANCH  11  12
ENDBRANCH   6  11
BRANCH   3  20
HETATM   20  C2  UNL     1      27.346   8.263  48.938  1.00  0.00     0.093 A 
HETATM   21  C3  UNL     1      26.439   8.320  49.977  1.00  0.00     0.036 A 
HETATM   22  C4  UNL     1      25.723   7.202  50.311  1.00  0.00     0.026 A 
HETATM   23  C5  UNL     1      25.871   5.991  49.636  1.00  0.00     0.037 A 
HETATM   24 CL1  UNL     1      24.933   4.586  50.099  1.00  0.00    -0.084 Cl
HETATM   25  C6  UNL     1      26.770   5.953  48.615  1.00  0.00     0.068 A 
HETATM   26  C7  UNL     1      27.518   7.060  48.242  1.00  0.00     0.146 A 
HETATM   27  F1  UNL     1      28.373   6.869  47.204  1.00  0.00    -0.204 F 
ENDBRANCH   3  20
BRANCH   1  28
HETATM   28  N1  UNL     1      27.840  11.919  45.742  1.00  0.00    -0.230 N 
HETATM   29  H1  UNL     1      28.570  12.218  45.057  1.00  0.00     0.174 HD
HETATM   30  H2  UNL     1      26.899  12.377  45.702  1.00  0.00     0.174 HD
ENDBRANCH   1  28
TORSDOF 4
ENDMDL
