MODEL 1
REMARK VINA RESULT:      -9.2      0.000      0.000
REMARK  6 active torsions:
REMARK  status: ('A' for Active; 'I' for Inactive)
REMARK    1  A    between atoms: C3_3  and  N1_4 
REMARK    2  A    between atoms: N1_4  and  C4_5 
REMARK    3  A    between atoms: C4_5  and  C5_6 
REMARK    4  A    between atoms: C12_16  and  N4_17 
REMARK    5  A    between atoms: N4_17  and  C13_18 
REMARK    6  A    between atoms: C18_23  and  O1_24 
ROOT
HETATM    1  C1  UNL     1      22.750   0.551  52.345  1.00  0.00     0.056 C 
HETATM    2  C2  UNL     1      23.378  -0.162  53.520  1.00  0.00     0.030 A 
HETATM    3  C3  UNL     1      22.481  -0.620  54.430  1.00  0.00     0.134 A 
HETATM    4  N2  UNL     1      22.989  -1.274  55.511  1.00  0.00    -0.224 NA
HETATM    5  C11 UNL     1      24.355  -1.392  55.553  1.00  0.00     0.237 A 
HETATM    6  N3  UNL     1      25.189  -0.916  54.619  1.00  0.00    -0.224 NA
HETATM    7  C12 UNL     1      24.754  -0.248  53.503  1.00  0.00     0.139 A 
ENDROOT
BRANCH   7   8
HETATM    8  N4  UNL     1      25.599   0.280  52.501  1.00  0.00    -0.344 N 
HETATM    9  H12 UNL     1      25.223   0.777  51.671  1.00  0.00     0.167 HD
BRANCH   8  10
HETATM   10  C13 UNL     1      26.981   0.014  52.835  1.00  0.00     0.017 C 
HETATM   11  C14 UNL     1      27.761   0.977  53.293  1.00  0.00     0.025 C 
HETATM   12  C15 UNL     1      29.182   0.802  53.660  1.00  0.00     0.002 C 
HETATM   13  C16 UNL     1      29.895  -0.311  53.723  1.00  0.00     0.002 C 
HETATM   14  C17 UNL     1      29.517  -1.682  53.458  1.00  0.00     0.032 C 
HETATM   15  C18 UNL     1      28.360  -2.053  52.970  1.00  0.00     0.049 C 
HETATM   16  C19 UNL     1      27.119  -1.404  52.534  1.00  0.00     0.121 C 
BRANCH  15  17
HETATM   17  O1  UNL     1      28.357  -3.437  52.852  1.00  0.00    -0.365 OA
HETATM   18  H17 UNL     1      29.224  -3.930  52.979  1.00  0.00     0.217 HD
ENDBRANCH  15  17
ENDBRANCH   8  10
ENDBRANCH   7   8
BRANCH   3  19
HETATM   19  N1  UNL     1      21.086  -0.455  54.329  1.00  0.00    -0.370 N 
HETATM   20  H4  UNL     1      20.640   0.487  54.356  1.00  0.00     0.161 HD
BRANCH  19  21
HETATM   21  C4  UNL     1      20.206  -1.601  54.186  1.00  0.00     0.160 C 
BRANCH  21  22
HETATM   22  C5  UNL     1      19.026  -1.227  53.338  1.00  0.00    -0.040 A 
HETATM   23  C6  UNL     1      19.141  -0.185  52.447  1.00  0.00     0.012 A 
HETATM   24  C7  UNL     1      18.068   0.162  51.651  1.00  0.00     0.043 A 
HETATM   25  C8  UNL     1      16.842  -0.505  51.702  1.00  0.00     0.116 A 
HETATM   26  F1  UNL     1      15.777  -0.185  50.929  1.00  0.00    -0.206 F 
HETATM   27  C9  UNL     1      16.795  -1.542  52.621  1.00  0.00     0.043 A 
HETATM   28  C10 UNL     1      17.828  -1.922  53.428  1.00  0.00     0.012 A 
ENDBRANCH  21  22
ENDBRANCH  19  21
ENDBRANCH   3  19
TORSDOF 6
ENDMDL
MODEL 2
REMARK VINA RESULT:      -9.1      1.278      1.741
REMARK  6 active torsions:
REMARK  status: ('A' for Active; 'I' for Inactive)
REMARK    1  A    between atoms: C3_3  and  N1_4 
REMARK    2  A    between atoms: N1_4  and  C4_5 
REMARK    3  A    between atoms: C4_5  and  C5_6 
REMARK    4  A    between atoms: C12_16  and  N4_17 
REMARK    5  A    between atoms: N4_17  and  C13_18 
REMARK    6  A    between atoms: C18_23  and  O1_24 
ROOT
HETATM    1  C1  UNL     1      22.670   0.401  52.447  1.00  0.00     0.056 C 
HETATM    2  C2  UNL     1      23.273  -0.283  53.653  1.00  0.00     0.030 A 
HETATM    3  C3  UNL     1      22.355  -0.729  54.549  1.00  0.00     0.134 A 
HETATM    4  N2  UNL     1      22.839  -1.357  55.656  1.00  0.00    -0.224 NA
HETATM    5  C11 UNL     1      24.205  -1.464  55.735  1.00  0.00     0.237 A 
HETATM    6  N3  UNL     1      25.060  -1.001  54.813  1.00  0.00    -0.224 NA
HETATM    7  C12 UNL     1      24.649  -0.359  53.672  1.00  0.00     0.139 A 
ENDROOT
BRANCH   7   8
HETATM    8  N4  UNL     1      25.517   0.154  52.682  1.00  0.00    -0.344 N 
HETATM    9  H12 UNL     1      25.160   0.660  51.848  1.00  0.00     0.167 HD
BRANCH   8  10
HETATM   10  C13 UNL     1      26.889  -0.138  53.033  1.00  0.00     0.017 C 
HETATM   11  C14 UNL     1      27.405  -1.332  52.800  1.00  0.00     0.025 C 
HETATM   12  C15 UNL     1      28.793  -1.723  53.121  1.00  0.00     0.002 C 
HETATM   13  C16 UNL     1      29.788  -0.973  53.567  1.00  0.00     0.002 C 
HETATM   14  C17 UNL     1      29.831   0.439  53.875  1.00  0.00     0.032 C 
HETATM   15  C18 UNL     1      28.790   1.233  53.869  1.00  0.00     0.049 C 
HETATM   16  C19 UNL     1      27.352   1.120  53.604  1.00  0.00     0.121 C 
BRANCH  15  17
HETATM   17  O1  UNL     1      29.211   2.512  54.211  1.00  0.00    -0.365 OA
HETATM   18  H17 UNL     1      28.811   3.294  53.722  1.00  0.00     0.217 HD
ENDBRANCH  15  17
ENDBRANCH   8  10
ENDBRANCH   7   8
BRANCH   3  19
HETATM   19  N1  UNL     1      20.962  -0.576  54.408  1.00  0.00    -0.370 N 
HETATM   20  H4  UNL     1      20.497   0.351  54.515  1.00  0.00     0.161 HD
BRANCH  19  21
HETATM   21  C4  UNL     1      20.112  -1.715  54.111  1.00  0.00     0.160 C 
BRANCH  21  22
HETATM   22  C5  UNL     1      18.934  -1.264  53.298  1.00  0.00    -0.040 A 
HETATM   23  C6  UNL     1      19.080  -0.205  52.431  1.00  0.00     0.012 A 
HETATM   24  C7  UNL     1      18.009   0.212  51.667  1.00  0.00     0.043 A 
HETATM   25  C8  UNL     1      16.755  -0.398  51.727  1.00  0.00     0.116 A 
HETATM   26  F1  UNL     1      15.691  -0.010  50.985  1.00  0.00    -0.206 F 
HETATM   27  C9  UNL     1      16.677  -1.457  52.620  1.00  0.00     0.043 A 
HETATM   28  C10 UNL     1      17.706  -1.905  53.395  1.00  0.00     0.012 A 
ENDBRANCH  21  22
ENDBRANCH  19  21
ENDBRANCH   3  19
TORSDOF 6
ENDMDL
MODEL 3
REMARK VINA RESULT:      -9.1      3.498      4.762
REMARK  6 active torsions:
REMARK  status: ('A' for Active; 'I' for Inactive)
REMARK    1  A    between atoms: C3_3  and  N1_4 
REMARK    2  A    between atoms: N1_4  and  C4_5 
REMARK    3  A    between atoms: C4_5  and  C5_6 
REMARK    4  A    between atoms: C12_16  and  N4_17 
REMARK    5  A    between atoms: N4_17  and  C13_18 
REMARK    6  A    between atoms: C18_23  and  O1_24 
ROOT
HETATM    1  C1  UNL     1      24.182   3.194  53.135  1.00  0.00     0.056 C 
HETATM    2  C2  UNL     1      24.110   3.177  51.625  1.00  0.00     0.030 A 
HETATM    3  C3  UNL     1      22.845   3.127  51.135  1.00  0.00     0.134 A 
HETATM    4  N2  UNL     1      22.717   3.113  49.779  1.00  0.00    -0.224 NA
HETATM    5  C11 UNL     1      23.889   3.149  49.066  1.00  0.00     0.237 A 
HETATM    6  N3  UNL     1      25.111   3.198  49.613  1.00  0.00    -0.224 NA
HETATM    7  C12 UNL     1      25.321   3.216  50.968  1.00  0.00     0.139 A 
ENDROOT
BRANCH   7   8
HETATM    8  N4  UNL     1      26.592   3.255  51.584  1.00  0.00    -0.344 N 
HETATM    9  H12 UNL     1      27.170   4.117  51.597  1.00  0.00     0.167 HD
BRANCH   8  10
HETATM   10  C13 UNL     1      26.903   1.960  52.150  1.00  0.00     0.017 C 
HETATM   11  C14 UNL     1      26.455   0.853  51.586  1.00  0.00     0.025 C 
HETATM   12  C15 UNL     1      26.719  -0.511  52.089  1.00  0.00     0.002 C 
HETATM   13  C16 UNL     1      27.513  -0.895  53.076  1.00  0.00     0.002 C 
HETATM   14  C17 UNL     1      28.356  -0.118  53.957  1.00  0.00     0.032 C 
HETATM   15  C18 UNL     1      28.384   1.191  53.995  1.00  0.00     0.049 C 
HETATM   16  C19 UNL     1      27.715   2.301  53.310  1.00  0.00     0.121 C 
BRANCH  15  17
HETATM   17  O1  UNL     1      29.308   1.582  54.956  1.00  0.00    -0.365 OA
HETATM   18  H17 UNL     1      28.982   1.754  55.891  1.00  0.00     0.217 HD
ENDBRANCH  15  17
ENDBRANCH   8  10
ENDBRANCH   7   8
BRANCH   3  19
HETATM   19  N1  UNL     1      21.682   3.083  51.928  1.00  0.00    -0.370 N 
HETATM   20  H4  UNL     1      21.421   3.865  52.566  1.00  0.00     0.161 HD
BRANCH  19  21
HETATM   21  C4  UNL     1      20.796   1.933  51.890  1.00  0.00     0.160 C 
BRANCH  21  22
HETATM   22  C5  UNL     1      21.316   0.867  52.809  1.00  0.00    -0.040 A 
HETATM   23  C6  UNL     1      20.773   0.738  54.066  1.00  0.00     0.012 A 
HETATM   24  C7  UNL     1      21.231  -0.247  54.917  1.00  0.00     0.043 A 
HETATM   25  C8  UNL     1      22.242  -1.143  54.561  1.00  0.00     0.116 A 
HETATM   26  F1  UNL     1      22.706  -2.119  55.377  1.00  0.00    -0.206 F 
HETATM   27  C9  UNL     1      22.745  -0.957  53.283  1.00  0.00     0.043 A 
HETATM   28  C10 UNL     1      22.324   0.001  52.406  1.00  0.00     0.012 A 
ENDBRANCH  21  22
ENDBRANCH  19  21
ENDBRANCH   3  19
TORSDOF 6
ENDMDL
MODEL 4
REMARK VINA RESULT:      -8.9      1.428      2.393
REMARK  6 active torsions:
REMARK  status: ('A' for Active; 'I' for Inactive)
REMARK    1  A    between atoms: C3_3  and  N1_4 
REMARK    2  A    between atoms: N1_4  and  C4_5 
REMARK    3  A    between atoms: C4_5  and  C5_6 
REMARK    4  A    between atoms: C12_16  and  N4_17 
REMARK    5  A    between atoms: N4_17  and  C13_18 
REMARK    6  A    between atoms: C18_23  and  O1_24 
ROOT
HETATM    1  C1  UNL     1      23.067  -0.666  53.681  1.00  0.00     0.056 C 
HETATM    2  C2  UNL     1      23.730   0.412  52.854  1.00  0.00     0.030 A 
HETATM    3  C3  UNL     1      22.988   0.832  51.799  1.00  0.00     0.134 A 
HETATM    4  N2  UNL     1      23.533   1.805  51.018  1.00  0.00    -0.224 NA
HETATM    5  C11 UNL     1      24.778   2.246  51.393  1.00  0.00     0.237 A 
HETATM    6  N3  UNL     1      25.461   1.788  52.450  1.00  0.00    -0.224 NA
HETATM    7  C12 UNL     1      24.978   0.811  53.283  1.00  0.00     0.139 A 
ENDROOT
BRANCH   7   8
HETATM    8  N4  UNL     1      25.671   0.292  54.400  1.00  0.00    -0.344 N 
HETATM    9  H12 UNL     1      25.203   0.138  55.313  1.00  0.00     0.167 HD
BRANCH   8  10
HETATM   10  C13 UNL     1      27.050   0.037  54.046  1.00  0.00     0.017 C 
HETATM   11  C14 UNL     1      27.990   0.927  54.313  1.00  0.00     0.025 C 
HETATM   12  C15 UNL     1      29.422   0.755  53.991  1.00  0.00     0.002 C 
HETATM   13  C16 UNL     1      30.047  -0.308  53.513  1.00  0.00     0.002 C 
HETATM   14  C17 UNL     1      29.537  -1.614  53.160  1.00  0.00     0.032 C 
HETATM   15  C18 UNL     1      28.269  -1.939  53.150  1.00  0.00     0.049 C 
HETATM   16  C19 UNL     1      26.988  -1.282  53.432  1.00  0.00     0.121 C 
BRANCH  15  17
HETATM   17  O1  UNL     1      28.158  -3.269  52.764  1.00  0.00    -0.365 OA
HETATM   18  H17 UNL     1      27.720  -3.476  51.883  1.00  0.00     0.217 HD
ENDBRANCH  15  17
ENDBRANCH   8  10
ENDBRANCH   7   8
BRANCH   3  19
HETATM   19  N1  UNL     1      21.716   0.327  51.466  1.00  0.00    -0.370 N 
HETATM   20  H4  UNL     1      21.584  -0.651  51.129  1.00  0.00     0.161 HD
BRANCH  19  21
HETATM   21  C4  UNL     1      20.530   1.157  51.576  1.00  0.00     0.160 C 
BRANCH  21  22
HETATM   22  C5  UNL     1      19.346   0.300  51.917  1.00  0.00    -0.040 A 
HETATM   23  C6  UNL     1      18.252   0.299  51.082  1.00  0.00     0.012 A 
HETATM   24  C7  UNL     1      17.163  -0.494  51.376  1.00  0.00     0.043 A 
HETATM   25  C8  UNL     1      17.108  -1.317  52.502  1.00  0.00     0.116 A 
HETATM   26  F1  UNL     1      16.052  -2.107  52.809  1.00  0.00    -0.206 F 
HETATM   27  C9  UNL     1      18.241  -1.268  53.300  1.00  0.00     0.043 A 
HETATM   28  C10 UNL     1      19.342  -0.501  53.051  1.00  0.00     0.012 A 
ENDBRANCH  21  22
ENDBRANCH  19  21
ENDBRANCH   3  19
TORSDOF 6
ENDMDL
MODEL 5
REMARK VINA RESULT:      -8.5      4.498      6.653
REMARK  6 active torsions:
REMARK  status: ('A' for Active; 'I' for Inactive)
REMARK    1  A    between atoms: C3_3  and  N1_4 
REMARK    2  A    between atoms: N1_4  and  C4_5 
REMARK    3  A    between atoms: C4_5  and  C5_6 
REMARK    4  A    between atoms: C12_16  and  N4_17 
REMARK    5  A    between atoms: N4_17  and  C13_18 
REMARK    6  A    between atoms: C18_23  and  O1_24 
ROOT
HETATM    1  C1  UNL     1      24.617   2.668  53.359  1.00  0.00     0.056 C 
HETATM    2  C2  UNL     1      23.627   1.696  52.759  1.00  0.00     0.030 A 
HETATM    3  C3  UNL     1      22.935   2.195  51.704  1.00  0.00     0.134 A 
HETATM    4  N2  UNL     1      22.029   1.363  51.120  1.00  0.00    -0.224 NA
HETATM    5  C11 UNL     1      21.921   0.112  51.672  1.00  0.00     0.237 A 
HETATM    6  N3  UNL     1      22.637  -0.322  52.719  1.00  0.00    -0.224 NA
HETATM    7  C12 UNL     1      23.568   0.456  53.359  1.00  0.00     0.139 A 
ENDROOT
BRANCH   7   8
HETATM    8  N4  UNL     1      24.333   0.042  54.472  1.00  0.00    -0.344 N 
HETATM    9  H12 UNL     1      23.961   0.085  55.441  1.00  0.00     0.167 HD
BRANCH   8  10
HETATM   10  C13 UNL     1      25.631  -0.419  54.031  1.00  0.00     0.017 C 
HETATM   11  C14 UNL     1      25.737  -1.304  53.057  1.00  0.00     0.025 C 
HETATM   12  C15 UNL     1      27.016  -1.833  52.539  1.00  0.00     0.002 C 
HETATM   13  C16 UNL     1      28.252  -1.463  52.836  1.00  0.00     0.002 C 
HETATM   14  C17 UNL     1      28.731  -0.445  53.744  1.00  0.00     0.032 C 
HETATM   15  C18 UNL     1      27.971   0.244  54.558  1.00  0.00     0.049 C 
HETATM   16  C19 UNL     1      26.545   0.319  54.893  1.00  0.00     0.121 C 
BRANCH  15  17
HETATM   17  O1  UNL     1      28.775   1.124  55.271  1.00  0.00    -0.365 OA
HETATM   18  H17 UNL     1      29.472   0.743  55.886  1.00  0.00     0.217 HD
ENDBRANCH  15  17
ENDBRANCH   8  10
ENDBRANCH   7   8
BRANCH   3  19
HETATM   19  N1  UNL     1      23.089   3.498  51.192  1.00  0.00    -0.370 N 
HETATM   20  H4  UNL     1      23.128   4.333  51.816  1.00  0.00     0.161 HD
BRANCH  19  21
HETATM   21  C4  UNL     1      23.196   3.732  49.763  1.00  0.00     0.160 C 
BRANCH  21  22
HETATM   22  C5  UNL     1      24.595   4.159  49.427  1.00  0.00    -0.040 A 
HETATM   23  C6  UNL     1      24.814   5.428  48.942  1.00  0.00     0.012 A 
HETATM   24  C7  UNL     1      26.097   5.839  48.642  1.00  0.00     0.043 A 
HETATM   25  C8  UNL     1      27.212   5.016  48.809  1.00  0.00     0.116 A 
HETATM   26  F1  UNL     1      28.480   5.398  48.525  1.00  0.00    -0.206 F 
HETATM   27  C9  UNL     1      26.922   3.752  49.300  1.00  0.00     0.043 A 
HETATM   28  C10 UNL     1      25.672   3.301  49.612  1.00  0.00     0.012 A 
ENDBRANCH  21  22
ENDBRANCH  19  21
ENDBRANCH   3  19
TORSDOF 6
ENDMDL
MODEL 6
REMARK VINA RESULT:      -8.4      1.755      2.526
REMARK  6 active torsions:
REMARK  status: ('A' for Active; 'I' for Inactive)
REMARK    1  A    between atoms: C3_3  and  N1_4 
REMARK    2  A    between atoms: N1_4  and  C4_5 
REMARK    3  A    between atoms: C4_5  and  C5_6 
REMARK    4  A    between atoms: C12_16  and  N4_17 
REMARK    5  A    between atoms: N4_17  and  C13_18 
REMARK    6  A    between atoms: C18_23  and  O1_24 
ROOT
HETATM    1  C1  UNL     1      23.084   1.705  50.950  1.00  0.00     0.056 C 
HETATM    2  C2  UNL     1      23.121   0.782  52.147  1.00  0.00     0.030 A 
HETATM    3  C3  UNL     1      21.967   0.098  52.351  1.00  0.00     0.134 A 
HETATM    4  N2  UNL     1      21.942  -0.752  53.414  1.00  0.00    -0.224 NA
HETATM    5  C11 UNL     1      23.094  -0.815  54.158  1.00  0.00     0.237 A 
HETATM    6  N3  UNL     1      24.204  -0.111  53.903  1.00  0.00    -0.224 NA
HETATM    7  C12 UNL     1      24.306   0.764  52.851  1.00  0.00     0.139 A 
ENDROOT
BRANCH   7   8
HETATM    8  N4  UNL     1      25.453   1.534  52.555  1.00  0.00    -0.344 N 
HETATM    9  H12 UNL     1      25.385   2.486  52.144  1.00  0.00     0.167 HD
BRANCH   8  10
HETATM   10  C13 UNL     1      26.646   0.796  52.909  1.00  0.00     0.017 C 
HETATM   11  C14 UNL     1      26.791  -0.465  52.543  1.00  0.00     0.025 C 
HETATM   12  C15 UNL     1      27.970  -1.298  52.856  1.00  0.00     0.002 C 
HETATM   13  C16 UNL     1      29.112  -0.946  53.425  1.00  0.00     0.002 C 
HETATM   14  C17 UNL     1      29.558   0.341  53.911  1.00  0.00     0.032 C 
HETATM   15  C18 UNL     1      28.809   1.413  53.972  1.00  0.00     0.049 C 
HETATM   16  C19 UNL     1      27.426   1.778  53.649  1.00  0.00     0.121 C 
BRANCH  15  17
HETATM   17  O1  UNL     1      29.572   2.453  54.487  1.00  0.00    -0.365 OA
HETATM   18  H17 UNL     1      30.297   2.233  55.147  1.00  0.00     0.217 HD
ENDBRANCH  15  17
ENDBRANCH   8  10
ENDBRANCH   7   8
BRANCH   3  19
HETATM   19  N1  UNL     1      20.815   0.219  51.550  1.00  0.00    -0.370 N 
HETATM   20  H4  UNL     1      20.766  -0.190  50.592  1.00  0.00     0.161 HD
BRANCH  19  21
HETATM   21  C4  UNL     1      19.642   0.927  52.031  1.00  0.00     0.160 C 
BRANCH  21  22
HETATM   22  C5  UNL     1      18.484  -0.023  52.124  1.00  0.00    -0.040 A 
HETATM   23  C6  UNL     1      18.461  -0.961  53.130  1.00  0.00     0.012 A 
HETATM   24  C7  UNL     1      17.396  -1.831  53.237  1.00  0.00     0.043 A 
HETATM   25  C8  UNL     1      16.313  -1.812  52.356  1.00  0.00     0.116 A 
HETATM   26  F1  UNL     1      15.255  -2.653  52.442  1.00  0.00    -0.206 F 
HETATM   27  C9  UNL     1      16.399  -0.844  51.366  1.00  0.00     0.043 A 
HETATM   28  C10 UNL     1      17.430   0.039  51.221  1.00  0.00     0.012 A 
ENDBRANCH  21  22
ENDBRANCH  19  21
ENDBRANCH   3  19
TORSDOF 6
ENDMDL
MODEL 7
REMARK VINA RESULT:      -8.4      5.437      8.305
REMARK  6 active torsions:
REMARK  status: ('A' for Active; 'I' for Inactive)
REMARK    1  A    between atoms: C3_3  and  N1_4 
REMARK    2  A    between atoms: N1_4  and  C4_5 
REMARK    3  A    between atoms: C4_5  and  C5_6 
REMARK    4  A    between atoms: C12_16  and  N4_17 
REMARK    5  A    between atoms: N4_17  and  C13_18 
REMARK    6  A    between atoms: C18_23  and  O1_24 
ROOT
HETATM    1  C1  UNL     1      25.307   2.630  51.790  1.00  0.00     0.056 C 
HETATM    2  C2  UNL     1      23.990   2.112  51.261  1.00  0.00     0.030 A 
HETATM    3  C3  UNL     1      23.394   1.197  52.067  1.00  0.00     0.134 A 
HETATM    4  N2  UNL     1      22.201   0.696  51.643  1.00  0.00    -0.224 NA
HETATM    5  C11 UNL     1      21.741   1.177  50.443  1.00  0.00     0.237 A 
HETATM    6  N3  UNL     1      22.380   2.085  49.692  1.00  0.00    -0.224 NA
HETATM    7  C12 UNL     1      23.583   2.636  50.052  1.00  0.00     0.139 A 
ENDROOT
BRANCH   7   8
HETATM    8  N4  UNL     1      24.295   3.585  49.284  1.00  0.00    -0.344 N 
HETATM    9  H12 UNL     1      25.006   3.301  48.583  1.00  0.00     0.167 HD
BRANCH   8  10
HETATM   10  C13 UNL     1      23.869   4.921  49.638  1.00  0.00     0.017 C 
HETATM   11  C14 UNL     1      22.585   5.224  49.703  1.00  0.00     0.025 C 
HETATM   12  C15 UNL     1      22.055   6.557  50.055  1.00  0.00     0.002 C 
HETATM   13  C16 UNL     1      22.708   7.629  50.475  1.00  0.00     0.002 C 
HETATM   14  C17 UNL     1      24.119   7.831  50.716  1.00  0.00     0.032 C 
HETATM   15  C18 UNL     1      25.054   6.960  50.431  1.00  0.00     0.049 C 
HETATM   16  C19 UNL     1      25.131   5.618  49.844  1.00  0.00     0.121 C 
BRANCH  15  17
HETATM   17  O1  UNL     1      26.281   7.496  50.801  1.00  0.00    -0.365 OA
HETATM   18  H17 UNL     1      27.098   7.221  50.284  1.00  0.00     0.217 HD
ENDBRANCH  15  17
ENDBRANCH   8  10
ENDBRANCH   7   8
BRANCH   3  19
HETATM   19  N1  UNL     1      23.929   0.738  53.286  1.00  0.00    -0.370 N 
HETATM   20  H4  UNL     1      23.986   1.353  54.127  1.00  0.00     0.161 HD
BRANCH  19  21
HETATM   21  C4  UNL     1      24.428  -0.618  53.420  1.00  0.00     0.160 C 
BRANCH  21  22
HETATM   22  C5  UNL     1      25.922  -0.592  53.568  1.00  0.00    -0.040 A 
HETATM   23  C6  UNL     1      26.487   0.189  54.550  1.00  0.00     0.012 A 
HETATM   24  C7  UNL     1      27.858   0.213  54.707  1.00  0.00     0.043 A 
HETATM   25  C8  UNL     1      28.724  -0.532  53.904  1.00  0.00     0.116 A 
HETATM   26  F1  UNL     1      30.071  -0.528  54.041  1.00  0.00    -0.206 F 
HETATM   27  C9  UNL     1      28.089  -1.295  52.935  1.00  0.00     0.043 A 
HETATM   28  C10 UNL     1      26.739  -1.351  52.742  1.00  0.00     0.012 A 
ENDBRANCH  21  22
ENDBRANCH  19  21
ENDBRANCH   3  19
TORSDOF 6
ENDMDL
MODEL 8
REMARK VINA RESULT:      -8.3      3.016      4.571
REMARK  6 active torsions:
REMARK  status: ('A' for Active; 'I' for Inactive)
REMARK    1  A    between atoms: C3_3  and  N1_4 
REMARK    2  A    between atoms: N1_4  and  C4_5 
REMARK    3  A    between atoms: C4_5  and  C5_6 
REMARK    4  A    between atoms: C12_16  and  N4_17 
REMARK    5  A    between atoms: N4_17  and  C13_18 
REMARK    6  A    between atoms: C18_23  and  O1_24 
ROOT
HETATM    1  C1  UNL     1      23.784   3.300  52.733  1.00  0.00     0.056 C 
HETATM    2  C2  UNL     1      24.789   3.268  51.605  1.00  0.00     0.030 A 
HETATM    3  C3  UNL     1      24.289   3.671  50.409  1.00  0.00     0.134 A 
HETATM    4  N2  UNL     1      25.150   3.666  49.355  1.00  0.00    -0.224 NA
HETATM    5  C11 UNL     1      26.429   3.250  49.627  1.00  0.00     0.237 A 
HETATM    6  N3  UNL     1      26.862   2.863  50.835  1.00  0.00    -0.224 NA
HETATM    7  C12 UNL     1      26.056   2.842  51.944  1.00  0.00     0.139 A 
ENDROOT
BRANCH   7   8
HETATM    8  N4  UNL     1      26.469   2.430  53.231  1.00  0.00    -0.344 N 
HETATM    9  H12 UNL     1      26.427   3.065  54.051  1.00  0.00     0.167 HD
BRANCH   8  10
HETATM   10  C13 UNL     1      26.925   1.058  53.184  1.00  0.00     0.017 C 
HETATM   11  C14 UNL     1      26.105   0.087  52.820  1.00  0.00     0.025 C 
HETATM   12  C15 UNL     1      26.478  -1.340  52.741  1.00  0.00     0.002 C 
HETATM   13  C16 UNL     1      27.668  -1.900  52.889  1.00  0.00     0.002 C 
HETATM   14  C17 UNL     1      28.956  -1.303  53.168  1.00  0.00     0.032 C 
HETATM   15  C18 UNL     1      29.143  -0.038  53.452  1.00  0.00     0.049 C 
HETATM   16  C19 UNL     1      28.317   1.165  53.600  1.00  0.00     0.121 C 
BRANCH  15  17
HETATM   17  O1  UNL     1      30.500   0.169  53.659  1.00  0.00    -0.365 OA
HETATM   18  H17 UNL     1      30.885  -0.048  54.562  1.00  0.00     0.217 HD
ENDBRANCH  15  17
ENDBRANCH   8  10
ENDBRANCH   7   8
BRANCH   3  19
HETATM   19  N1  UNL     1      22.958   4.078  50.197  1.00  0.00    -0.370 N 
HETATM   20  H4  UNL     1      22.583   4.965  50.599  1.00  0.00     0.161 HD
BRANCH  19  21
HETATM   21  C4  UNL     1      22.046   3.270  49.408  1.00  0.00     0.160 C 
BRANCH  21  22
HETATM   22  C5  UNL     1      21.334   2.297  50.302  1.00  0.00    -0.040 A 
HETATM   23  C6  UNL     1      21.806   1.009  50.407  1.00  0.00     0.012 A 
HETATM   24  C7  UNL     1      21.170   0.107  51.235  1.00  0.00     0.043 A 
HETATM   25  C8  UNL     1      20.045   0.440  51.993  1.00  0.00     0.116 A 
HETATM   26  F1  UNL     1      19.407  -0.426  52.815  1.00  0.00    -0.206 F 
HETATM   27  C9  UNL     1      19.622   1.752  51.840  1.00  0.00     0.043 A 
HETATM   28  C10 UNL     1      20.218   2.679  51.035  1.00  0.00     0.012 A 
ENDBRANCH  21  22
ENDBRANCH  19  21
ENDBRANCH   3  19
TORSDOF 6
ENDMDL
MODEL 9
REMARK VINA RESULT:      -8.3      2.603      3.970
REMARK  6 active torsions:
REMARK  status: ('A' for Active; 'I' for Inactive)
REMARK    1  A    between atoms: C3_3  and  N1_4 
REMARK    2  A    between atoms: N1_4  and  C4_5 
REMARK    3  A    between atoms: C4_5  and  C5_6 
REMARK    4  A    between atoms: C12_16  and  N4_17 
REMARK    5  A    between atoms: N4_17  and  C13_18 
REMARK    6  A    between atoms: C18_23  and  O1_24 
ROOT
HETATM    1  C1  UNL     1      23.509   1.897  53.078  1.00  0.00     0.056 C 
HETATM    2  C2  UNL     1      24.599   2.250  52.093  1.00  0.00     0.030 A 
HETATM    3  C3  UNL     1      24.375   3.402  51.411  1.00  0.00     0.134 A 
HETATM    4  N2  UNL     1      25.326   3.773  50.511  1.00  0.00    -0.224 NA
HETATM    5  C11 UNL     1      26.405   2.933  50.397  1.00  0.00     0.237 A 
HETATM    6  N3  UNL     1      26.568   1.805  51.103  1.00  0.00    -0.224 NA
HETATM    7  C12 UNL     1      25.655   1.366  52.027  1.00  0.00     0.139 A 
ENDROOT
BRANCH   7   8
HETATM    8  N4  UNL     1      25.783   0.178  52.782  1.00  0.00    -0.344 N 
HETATM    9  H12 UNL     1      24.958  -0.382  53.068  1.00  0.00     0.167 HD
BRANCH   8  10
HETATM   10  C13 UNL     1      27.180  -0.083  53.054  1.00  0.00     0.017 C 
HETATM   11  C14 UNL     1      27.969   0.876  53.504  1.00  0.00     0.025 C 
HETATM   12  C15 UNL     1      29.405   0.706  53.811  1.00  0.00     0.002 C 
HETATM   13  C16 UNL     1      30.129  -0.402  53.818  1.00  0.00     0.002 C 
HETATM   14  C17 UNL     1      29.753  -1.769  53.533  1.00  0.00     0.032 C 
HETATM   15  C18 UNL     1      28.581  -2.139  53.082  1.00  0.00     0.049 C 
HETATM   16  C19 UNL     1      27.318  -1.492  52.712  1.00  0.00     0.121 C 
BRANCH  15  17
HETATM   17  O1  UNL     1      28.585  -3.519  52.929  1.00  0.00    -0.365 OA
HETATM   18  H17 UNL     1      29.377  -4.036  53.270  1.00  0.00     0.217 HD
ENDBRANCH  15  17
ENDBRANCH   8  10
ENDBRANCH   7   8
BRANCH   3  19
HETATM   19  N1  UNL     1      23.236   4.215  51.571  1.00  0.00    -0.370 N 
HETATM   20  H4  UNL     1      23.096   4.806  52.420  1.00  0.00     0.161 HD
BRANCH  19  21
HETATM   21  C4  UNL     1      22.201   4.260  50.554  1.00  0.00     0.160 C 
BRANCH  21  22
HETATM   22  C5  UNL     1      21.282   3.086  50.719  1.00  0.00    -0.040 A 
HETATM   23  C6  UNL     1      20.378   3.079  51.757  1.00  0.00     0.012 A 
HETATM   24  C7  UNL     1      19.517   2.013  51.914  1.00  0.00     0.043 A 
HETATM   25  C8  UNL     1      19.512   0.912  51.054  1.00  0.00     0.116 A 
HETATM   26  F1  UNL     1      18.675  -0.144  51.185  1.00  0.00    -0.206 F 
HETATM   27  C9  UNL     1      20.447   0.982  50.032  1.00  0.00     0.043 A 
HETATM   28  C10 UNL     1      21.318   2.015  49.836  1.00  0.00     0.012 A 
ENDBRANCH  21  22
ENDBRANCH  19  21
ENDBRANCH   3  19
TORSDOF 6
ENDMDL
