MODEL 1
REMARK VINA RESULT:      -7.9      0.000      0.000
REMARK  0 active torsions:
REMARK  status: ('A' for Active; 'I' for Inactive)
ROOT
HETATM    1  C1  UNL     1      20.777   0.547  54.447  1.00  0.00     0.066 C 
HETATM    2  C2  UNL     1      21.940   0.443  53.543  1.00  0.00     0.014 C 
HETATM    3  N1  UNL     1      23.030   1.042  53.804  1.00  0.00    -0.241 NA
HETATM    4  C3  UNL     1      24.248   1.095  53.112  1.00  0.00     0.140 C 
HETATM    5  N2  UNL     1      25.410   1.352  53.650  1.00  0.00    -0.273 NA
HETATM    6  C4  UNL     1      25.992   2.566  53.056  1.00  0.00     0.162 C 
HETATM    7  C5  UNL     1      25.492   2.398  51.629  1.00  0.00    -0.000 C 
HETATM    8  C6  UNL     1      26.671   2.402  50.716  1.00  0.00     0.019 C 
HETATM    9  C7  UNL     1      24.424   3.387  51.374  1.00  0.00     0.048 C 
HETATM   10  C8  UNL     1      24.511   4.195  50.120  1.00  0.00     0.223 C 
HETATM   11  C9  UNL     1      25.160   5.514  50.471  1.00  0.00     0.036 C 
HETATM   12  C10 UNL     1      25.305   6.395  49.291  1.00  0.00     0.004 C 
HETATM   13  C11 UNL     1      23.942   6.622  48.685  1.00  0.00     0.030 C 
HETATM   14  C12 UNL     1      23.264   5.286  48.391  1.00  0.00     0.273 C 
HETATM   15  N3  UNL     1      23.193   4.514  49.599  1.00  0.00     0.093 N 
HETATM   16  C13 UNL     1      22.296   3.413  49.590  1.00  0.00     0.274 C 
HETATM   17  C14 UNL     1      21.226   3.436  48.532  1.00  0.00     0.050 C 
HETATM   18  C15 UNL     1      20.348   2.193  48.571  1.00  0.00     0.134 C 
HETATM   19  N4  UNL     1      19.687   2.002  49.851  1.00  0.00    -0.318 N 
HETATM   20  C16 UNL     1      18.869   2.983  50.522  1.00  0.00     0.247 C 
HETATM   21  O1  UNL     1      19.092   4.183  50.231  1.00  0.00    -0.271 OA
HETATM   22  C17 UNL     1      17.971   2.168  51.397  1.00  0.00     0.271 C 
HETATM   23  O2  UNL     1      17.505   1.051  50.737  1.00  0.00    -0.376 OA
HETATM   24  C18 UNL     1      18.524   0.238  50.271  1.00  0.00     0.225 C 
HETATM   25  C19 UNL     1      19.824   0.742  50.653  1.00  0.00     0.035 C 
HETATM   26  C20 UNL     1      20.798   0.349  51.424  1.00  0.00     0.006 C 
HETATM   27  C21 UNL     1      21.687  -0.407  52.354  1.00  0.00     0.083 C 
HETATM   28  C22 UNL     1      24.943   0.967  51.775  1.00  0.00     0.163 C 
HETATM   29 CL1  UNL     1      26.249  -0.205  51.840  1.00  0.00    -0.116 Cl
ENDROOT
TORSDOF 0
ENDMDL
MODEL 2
REMARK VINA RESULT:      -7.7      7.483     11.904
REMARK  0 active torsions:
REMARK  status: ('A' for Active; 'I' for Inactive)
ROOT
HETATM    1  C1  UNL     1      31.893  11.489  47.796  1.00  0.00     0.066 C 
HETATM    2  C2  UNL     1      30.830  10.897  46.958  1.00  0.00     0.014 C 
HETATM    3  N1  UNL     1      29.603  11.115  47.205  1.00  0.00    -0.241 NA
HETATM    4  C3  UNL     1      28.436  10.672  46.567  1.00  0.00     0.140 C 
HETATM    5  N2  UNL     1      27.279  11.279  46.605  1.00  0.00    -0.273 NA
HETATM    6  C4  UNL     1      26.263  10.406  47.213  1.00  0.00     0.162 C 
HETATM    7  C5  UNL     1      26.747   9.066  46.679  1.00  0.00    -0.000 C 
HETATM    8  C6  UNL     1      25.628   8.429  45.926  1.00  0.00     0.019 C 
HETATM    9  C7  UNL     1      27.353   8.296  47.787  1.00  0.00     0.048 C 
HETATM   10  C8  UNL     1      26.929   6.874  47.957  1.00  0.00     0.223 C 
HETATM   11  C9  UNL     1      25.838   6.845  49.004  1.00  0.00     0.036 C 
HETATM   12  C10 UNL     1      25.335   5.474  49.245  1.00  0.00     0.004 C 
HETATM   13  C11 UNL     1      26.492   4.600  49.664  1.00  0.00     0.030 C 
HETATM   14  C12 UNL     1      27.617   4.683  48.634  1.00  0.00     0.273 C 
HETATM   15  N3  UNL     1      28.012   6.054  48.471  1.00  0.00     0.093 N 
HETATM   16  C13 UNL     1      29.258   6.277  47.830  1.00  0.00     0.274 C 
HETATM   17  C14 UNL     1      30.208   5.110  47.796  1.00  0.00     0.050 C 
HETATM   18  C15 UNL     1      31.492   5.432  47.045  1.00  0.00     0.134 C 
HETATM   19  N4  UNL     1      32.214   6.561  47.606  1.00  0.00    -0.318 N 
HETATM   20  C16 UNL     1      32.618   6.689  48.986  1.00  0.00     0.247 C 
HETATM   21  O1  UNL     1      31.949   6.038  49.823  1.00  0.00    -0.271 OA
HETATM   22  C17 UNL     1      33.784   7.626  48.935  1.00  0.00     0.271 C 
HETATM   23  O2  UNL     1      34.619   7.332  47.879  1.00  0.00    -0.376 OA
HETATM   24  C18 UNL     1      33.971   7.367  46.656  1.00  0.00     0.225 C 
HETATM   25  C19 UNL     1      32.588   7.766  46.797  1.00  0.00     0.035 C 
HETATM   26  C20 UNL     1      31.860   8.783  46.434  1.00  0.00     0.006 C 
HETATM   27  C21 UNL     1      31.351  10.060  45.851  1.00  0.00     0.083 C 
HETATM   28  C22 UNL     1      27.802   9.609  45.698  1.00  0.00     0.163 C 
HETATM   29 CL1  UNL     1      27.040  10.309  44.279  1.00  0.00    -0.116 Cl
ENDROOT
TORSDOF 0
ENDMDL
MODEL 3
REMARK VINA RESULT:      -7.6      7.848     12.061
REMARK  0 active torsions:
REMARK  status: ('A' for Active; 'I' for Inactive)
ROOT
HETATM    1  C1  UNL     1      32.106  11.281  44.370  1.00  0.00     0.066 C 
HETATM    2  C2  UNL     1      32.323  10.539  45.629  1.00  0.00     0.014 C 
HETATM    3  N1  UNL     1      32.513   9.283  45.625  1.00  0.00    -0.241 NA
HETATM    4  C3  UNL     1      32.735   8.375  46.671  1.00  0.00     0.140 C 
HETATM    5  N2  UNL     1      33.344   7.225  46.554  1.00  0.00    -0.273 NA
HETATM    6  C4  UNL     1      32.438   6.127  46.926  1.00  0.00     0.162 C 
HETATM    7  C5  UNL     1      31.670   6.818  48.043  1.00  0.00    -0.000 C 
HETATM    8  C6  UNL     1      31.808   6.000  49.283  1.00  0.00     0.019 C 
HETATM    9  C7  UNL     1      30.302   7.120  47.570  1.00  0.00     0.048 C 
HETATM   10  C8  UNL     1      29.162   6.745  48.459  1.00  0.00     0.223 C 
HETATM   11  C9  UNL     1      28.644   5.402  47.995  1.00  0.00     0.036 C 
HETATM   12  C10 UNL     1      27.510   4.928  48.820  1.00  0.00     0.004 C 
HETATM   13  C11 UNL     1      26.412   5.961  48.774  1.00  0.00     0.030 C 
HETATM   14  C12 UNL     1      26.955   7.329  49.183  1.00  0.00     0.273 C 
HETATM   15  N3  UNL     1      28.055   7.677  48.329  1.00  0.00     0.093 N 
HETATM   16  C13 UNL     1      28.448   9.041  48.335  1.00  0.00     0.274 C 
HETATM   17  C14 UNL     1      27.435  10.023  48.858  1.00  0.00     0.050 C 
HETATM   18  C15 UNL     1      27.967  11.450  48.871  1.00  0.00     0.134 C 
HETATM   19  N4  UNL     1      28.384  11.915  47.559  1.00  0.00    -0.318 N 
HETATM   20  C16 UNL     1      27.567  11.898  46.370  1.00  0.00     0.247 C 
HETATM   21  O1  UNL     1      26.640  11.052  46.346  1.00  0.00    -0.271 OA
HETATM   22  C17 UNL     1      28.153  12.975  45.513  1.00  0.00     0.271 C 
HETATM   23  O2  UNL     1      28.464  14.093  46.255  1.00  0.00    -0.376 OA
HETATM   24  C18 UNL     1      29.345  13.824  47.289  1.00  0.00     0.225 C 
HETATM   25  C19 UNL     1      29.762  12.440  47.287  1.00  0.00     0.035 C 
HETATM   26  C20 UNL     1      30.874  11.791  47.091  1.00  0.00     0.006 C 
HETATM   27  C21 UNL     1      32.292  11.403  46.834  1.00  0.00     0.083 C 
HETATM   28  C22 UNL     1      32.548   8.079  48.141  1.00  0.00     0.163 C 
HETATM   29 CL1  UNL     1      34.077   7.720  48.925  1.00  0.00    -0.116 Cl
ENDROOT
TORSDOF 0
ENDMDL
MODEL 4
REMARK VINA RESULT:      -7.6      2.197      5.722
REMARK  0 active torsions:
REMARK  status: ('A' for Active; 'I' for Inactive)
ROOT
HETATM    1  C1  UNL     1      26.517   2.779  49.046  1.00  0.00     0.066 C 
HETATM    2  C2  UNL     1      26.423   2.498  50.493  1.00  0.00     0.014 C 
HETATM    3  N1  UNL     1      26.549   1.316  50.941  1.00  0.00    -0.241 NA
HETATM    4  C3  UNL     1      26.499   0.808  52.247  1.00  0.00     0.140 C 
HETATM    5  N2  UNL     1      27.064  -0.300  52.648  1.00  0.00    -0.273 NA
HETATM    6  C4  UNL     1      26.048  -1.238  53.151  1.00  0.00     0.162 C 
HETATM    7  C5  UNL     1      25.092  -0.239  53.785  1.00  0.00    -0.000 C 
HETATM    8  C6  UNL     1      24.922  -0.600  55.222  1.00  0.00     0.019 C 
HETATM    9  C7  UNL     1      23.873  -0.145  52.953  1.00  0.00     0.048 C 
HETATM   10  C8  UNL     1      22.552  -0.237  53.645  1.00  0.00     0.223 C 
HETATM   11  C9  UNL     1      22.083  -1.672  53.543  1.00  0.00     0.036 C 
HETATM   12  C10 UNL     1      20.777  -1.878  54.209  1.00  0.00     0.004 C 
HETATM   13  C11 UNL     1      19.765  -0.946  53.590  1.00  0.00     0.030 C 
HETATM   14  C12 UNL     1      20.272   0.493  53.638  1.00  0.00     0.273 C 
HETATM   15  N3  UNL     1      21.545   0.570  52.979  1.00  0.00     0.093 N 
HETATM   16  C13 UNL     1      21.992   1.870  52.625  1.00  0.00     0.274 C 
HETATM   17  C14 UNL     1      20.937   2.943  52.565  1.00  0.00     0.050 C 
HETATM   18  C15 UNL     1      21.521   4.308  52.228  1.00  0.00     0.134 C 
HETATM   19  N4  UNL     1      22.231   4.327  50.960  1.00  0.00    -0.318 N 
HETATM   20  C16 UNL     1      21.689   3.898  49.694  1.00  0.00     0.247 C 
HETATM   21  O1  UNL     1      20.749   3.068  49.745  1.00  0.00    -0.271 OA
HETATM   22  C17 UNL     1      22.495   4.649  48.682  1.00  0.00     0.271 C 
HETATM   23  O2  UNL     1      22.693   5.957  49.067  1.00  0.00    -0.376 OA
HETATM   24  C18 UNL     1      23.317   6.066  50.298  1.00  0.00     0.225 C 
HETATM   25  C19 UNL     1      23.659   4.769  50.839  1.00  0.00     0.035 C 
HETATM   26  C20 UNL     1      24.755   4.123  51.113  1.00  0.00     0.006 C 
HETATM   27  C21 UNL     1      26.176   3.709  51.313  1.00  0.00     0.083 C 
HETATM   28  C22 UNL     1      25.987   1.007  53.655  1.00  0.00     0.163 C 
HETATM   29 CL1  UNL     1      27.294   0.966  54.827  1.00  0.00    -0.116 Cl
ENDROOT
TORSDOF 0
ENDMDL
MODEL 5
REMARK VINA RESULT:      -7.6      2.177      5.789
REMARK  0 active torsions:
REMARK  status: ('A' for Active; 'I' for Inactive)
ROOT
HETATM    1  C1  UNL     1      26.032   1.963  51.336  1.00  0.00     0.066 C 
HETATM    2  C2  UNL     1      24.861   1.742  52.209  1.00  0.00     0.014 C 
HETATM    3  N1  UNL     1      24.227   0.641  52.192  1.00  0.00    -0.241 NA
HETATM    4  C3  UNL     1      23.107   0.203  52.912  1.00  0.00     0.140 C 
HETATM    5  N2  UNL     1      22.806  -1.045  53.154  1.00  0.00    -0.273 NA
HETATM    6  C4  UNL     1      21.501  -1.380  52.564  1.00  0.00     0.162 C 
HETATM    7  C5  UNL     1      20.792  -0.052  52.780  1.00  0.00    -0.000 C 
HETATM    8  C6  UNL     1      19.553  -0.305  53.571  1.00  0.00     0.019 C 
HETATM    9  C7  UNL     1      20.645   0.633  51.477  1.00  0.00     0.048 C 
HETATM   10  C8  UNL     1      19.300   1.183  51.130  1.00  0.00     0.223 C 
HETATM   11  C9  UNL     1      18.596   0.157  50.270  1.00  0.00     0.036 C 
HETATM   12  C10 UNL     1      17.240   0.600  49.874  1.00  0.00     0.004 C 
HETATM   13  C11 UNL     1      17.354   1.915  49.142  1.00  0.00     0.030 C 
HETATM   14  C12 UNL     1      18.122   2.927  49.989  1.00  0.00     0.273 C 
HETATM   15  N3  UNL     1      19.409   2.387  50.324  1.00  0.00     0.093 N 
HETATM   16  C13 UNL     1      20.374   3.312  50.800  1.00  0.00     0.274 C 
HETATM   17  C14 UNL     1      20.117   4.762  50.488  1.00  0.00     0.050 C 
HETATM   18  C15 UNL     1      21.179   5.677  51.082  1.00  0.00     0.134 C 
HETATM   19  N4  UNL     1      22.521   5.367  50.621  1.00  0.00    -0.318 N 
HETATM   20  C16 UNL     1      22.928   5.272  49.240  1.00  0.00     0.247 C 
HETATM   21  O1  UNL     1      22.024   5.000  48.413  1.00  0.00    -0.271 OA
HETATM   22  C17 UNL     1      24.397   5.551  49.275  1.00  0.00     0.271 C 
HETATM   23  O2  UNL     1      24.690   6.595  50.127  1.00  0.00    -0.376 OA
HETATM   24  C18 UNL     1      24.252   6.371  51.421  1.00  0.00     0.225 C 
HETATM   25  C19 UNL     1      23.650   5.064  51.561  1.00  0.00     0.035 C 
HETATM   26  C20 UNL     1      23.926   3.963  52.200  1.00  0.00     0.006 C 
HETATM   27  C21 UNL     1      24.536   2.910  53.064  1.00  0.00     0.083 C 
HETATM   28  C22 UNL     1      21.862   0.606  53.669  1.00  0.00     0.163 C 
HETATM   29 CL1  UNL     1      21.843  -0.079  55.286  1.00  0.00    -0.116 Cl
ENDROOT
TORSDOF 0
ENDMDL
MODEL 6
REMARK VINA RESULT:      -7.6      2.477      5.198
REMARK  0 active torsions:
REMARK  status: ('A' for Active; 'I' for Inactive)
ROOT
HETATM    1  C1  UNL     1      18.928   4.577  47.298  1.00  0.00     0.066 C 
HETATM    2  C2  UNL     1      19.863   5.296  48.187  1.00  0.00     0.014 C 
HETATM    3  N1  UNL     1      21.037   5.594  47.802  1.00  0.00    -0.241 NA
HETATM    4  C3  UNL     1      22.086   6.258  48.452  1.00  0.00     0.140 C 
HETATM    5  N2  UNL     1      23.059   6.896  47.857  1.00  0.00    -0.273 NA
HETATM    6  C4  UNL     1      24.355   6.292  48.205  1.00  0.00     0.162 C 
HETATM    7  C5  UNL     1      24.059   5.903  49.646  1.00  0.00    -0.000 C 
HETATM    8  C6  UNL     1      25.077   6.549  50.524  1.00  0.00     0.019 C 
HETATM    9  C7  UNL     1      23.916   4.434  49.729  1.00  0.00     0.048 C 
HETATM   10  C8  UNL     1      24.665   3.724  50.808  1.00  0.00     0.223 C 
HETATM   11  C9  UNL     1      25.954   3.209  50.206  1.00  0.00     0.036 C 
HETATM   12  C10 UNL     1      26.785   2.491  51.199  1.00  0.00     0.004 C 
HETATM   13  C11 UNL     1      25.978   1.352  51.773  1.00  0.00     0.030 C 
HETATM   14  C12 UNL     1      24.650   1.868  52.322  1.00  0.00     0.273 C 
HETATM   15  N3  UNL     1      23.941   2.557  51.281  1.00  0.00     0.093 N 
HETATM   16  C13 UNL     1      22.560   2.791  51.510  1.00  0.00     0.274 C 
HETATM   17  C14 UNL     1      21.905   1.937  52.561  1.00  0.00     0.050 C 
HETATM   18  C15 UNL     1      20.440   2.297  52.769  1.00  0.00     0.134 C 
HETATM   19  N4  UNL     1      19.647   2.177  51.558  1.00  0.00    -0.318 N 
HETATM   20  C16 UNL     1      19.564   0.998  50.729  1.00  0.00     0.247 C 
HETATM   21  O1  UNL     1      20.539   0.210  50.786  1.00  0.00    -0.271 OA
HETATM   22  C17 UNL     1      18.246   1.136  50.035  1.00  0.00     0.271 C 
HETATM   23  O2  UNL     1      17.267   1.578  50.899  1.00  0.00    -0.376 OA
HETATM   24  C18 UNL     1      17.582   2.789  51.493  1.00  0.00     0.225 C 
HETATM   25  C19 UNL     1      18.838   3.311  51.004  1.00  0.00     0.035 C 
HETATM   26  C20 UNL     1      19.222   4.341  50.305  1.00  0.00     0.006 C 
HETATM   27  C21 UNL     1      19.288   5.608  49.518  1.00  0.00     0.083 C 
HETATM   28  C22 UNL     1      22.709   6.631  49.779  1.00  0.00     0.163 C 
HETATM   29 CL1  UNL     1      22.941   8.367  49.914  1.00  0.00    -0.116 Cl
ENDROOT
TORSDOF 0
ENDMDL
MODEL 7
REMARK VINA RESULT:      -7.5      8.851     12.660
REMARK  0 active torsions:
REMARK  status: ('A' for Active; 'I' for Inactive)
ROOT
HETATM    1  C1  UNL     1      27.927   9.479  44.596  1.00  0.00     0.066 C 
HETATM    2  C2  UNL     1      29.385   9.695  44.699  1.00  0.00     0.014 C 
HETATM    3  N1  UNL     1      30.166   9.357  43.756  1.00  0.00    -0.241 NA
HETATM    4  C3  UNL     1      31.558   9.458  43.624  1.00  0.00     0.140 C 
HETATM    5  N2  UNL     1      32.207   9.501  42.490  1.00  0.00    -0.273 NA
HETATM    6  C4  UNL     1      33.130   8.361  42.385  1.00  0.00     0.162 C 
HETATM    7  C5  UNL     1      33.542   8.249  43.845  1.00  0.00    -0.000 C 
HETATM    8  C6  UNL     1      35.027   8.361  43.923  1.00  0.00     0.019 C 
HETATM    9  C7  UNL     1      32.913   7.046  44.432  1.00  0.00     0.048 C 
HETATM   10  C8  UNL     1      33.785   6.122  45.218  1.00  0.00     0.223 C 
HETATM   11  C9  UNL     1      34.221   5.008  44.292  1.00  0.00     0.036 C 
HETATM   12  C10 UNL     1      35.103   4.033  44.971  1.00  0.00     0.004 C 
HETATM   13  C11 UNL     1      34.374   3.470  46.166  1.00  0.00     0.030 C 
HETATM   14  C12 UNL     1      33.879   4.602  47.065  1.00  0.00     0.273 C 
HETATM   15  N3  UNL     1      33.051   5.489  46.300  1.00  0.00     0.093 N 
HETATM   16  C13 UNL     1      32.235   6.383  47.041  1.00  0.00     0.274 C 
HETATM   17  C14 UNL     1      31.988   6.020  48.481  1.00  0.00     0.050 C 
HETATM   18  C15 UNL     1      31.146   7.064  49.203  1.00  0.00     0.134 C 
HETATM   19  N4  UNL     1      29.850   7.280  48.583  1.00  0.00    -0.318 N 
HETATM   20  C16 UNL     1      28.884   6.248  48.289  1.00  0.00     0.247 C 
HETATM   21  O1  UNL     1      29.339   5.088  48.141  1.00  0.00    -0.271 OA
HETATM   22  C17 UNL     1      27.577   6.975  48.258  1.00  0.00     0.271 C 
HETATM   23  O2  UNL     1      27.486   7.888  49.287  1.00  0.00    -0.376 OA
HETATM   24  C18 UNL     1      28.510   8.820  49.269  1.00  0.00     0.225 C 
HETATM   25  C19 UNL     1      29.384   8.631  48.132  1.00  0.00     0.035 C 
HETATM   26  C20 UNL     1      29.687   9.299  47.057  1.00  0.00     0.006 C 
HETATM   27  C21 UNL     1      29.797  10.324  45.977  1.00  0.00     0.083 C 
HETATM   28  C22 UNL     1      32.887   9.552  44.339  1.00  0.00     0.163 C 
HETATM   29 CL1  UNL     1      33.802  10.955  43.813  1.00  0.00    -0.116 Cl
ENDROOT
TORSDOF 0
ENDMDL
MODEL 8
REMARK VINA RESULT:      -7.4      4.227      8.223
REMARK  0 active torsions:
REMARK  status: ('A' for Active; 'I' for Inactive)
ROOT
HETATM    1  C1  UNL     1      21.868   9.371  47.147  1.00  0.00     0.066 C 
HETATM    2  C2  UNL     1      22.089   7.973  46.724  1.00  0.00     0.014 C 
HETATM    3  N1  UNL     1      21.363   7.031  47.171  1.00  0.00    -0.241 NA
HETATM    4  C3  UNL     1      21.378   5.651  46.924  1.00  0.00     0.140 C 
HETATM    5  N2  UNL     1      20.358   4.847  47.066  1.00  0.00    -0.273 NA
HETATM    6  C4  UNL     1      20.656   3.813  48.069  1.00  0.00     0.162 C 
HETATM    7  C5  UNL     1      22.136   3.615  47.776  1.00  0.00    -0.000 C 
HETATM    8  C6  UNL     1      22.362   2.176  47.456  1.00  0.00     0.019 C 
HETATM    9  C7  UNL     1      22.927   4.204  48.878  1.00  0.00     0.048 C 
HETATM   10  C8  UNL     1      24.021   3.375  49.467  1.00  0.00     0.223 C 
HETATM   11  C9  UNL     1      23.466   2.700  50.701  1.00  0.00     0.036 C 
HETATM   12  C10 UNL     1      24.471   1.839  51.364  1.00  0.00     0.004 C 
HETATM   13  C11 UNL     1      25.672   2.681  51.718  1.00  0.00     0.030 C 
HETATM   14  C12 UNL     1      26.190   3.411  50.480  1.00  0.00     0.273 C 
HETATM   15  N3  UNL     1      25.131   4.198  49.916  1.00  0.00     0.093 N 
HETATM   16  C13 UNL     1      25.518   5.198  48.986  1.00  0.00     0.274 C 
HETATM   17  C14 UNL     1      26.962   5.621  49.026  1.00  0.00     0.050 C 
HETATM   18  C15 UNL     1      27.290   6.657  47.960  1.00  0.00     0.134 C 
HETATM   19  N4  UNL     1      26.483   7.861  48.068  1.00  0.00    -0.318 N 
HETATM   20  C16 UNL     1      26.345   8.668  49.257  1.00  0.00     0.247 C 
HETATM   21  O1  UNL     1      26.551   8.086  50.350  1.00  0.00    -0.271 OA
HETATM   22  C17 UNL     1      25.974  10.020  48.735  1.00  0.00     0.271 C 
HETATM   23  O2  UNL     1      26.720  10.351  47.624  1.00  0.00    -0.376 OA
HETATM   24  C18 UNL     1      26.591   9.431  46.597  1.00  0.00     0.225 C 
HETATM   25  C19 UNL     1      25.653   8.384  46.935  1.00  0.00     0.035 C 
HETATM   26  C20 UNL     1      24.488   7.989  46.507  1.00  0.00     0.006 C 
HETATM   27  C21 UNL     1      23.206   7.819  45.762  1.00  0.00     0.083 C 
HETATM   28  C22 UNL     1      22.202   4.459  46.491  1.00  0.00     0.163 C 
HETATM   29 CL1  UNL     1      21.453   3.615  45.145  1.00  0.00    -0.116 Cl
ENDROOT
TORSDOF 0
ENDMDL
MODEL 9
REMARK VINA RESULT:      -7.4     10.861     13.900
REMARK  0 active torsions:
REMARK  status: ('A' for Active; 'I' for Inactive)
ROOT
HETATM    1  C1  UNL     1      32.440  11.883  45.586  1.00  0.00     0.066 C 
HETATM    2  C2  UNL     1      31.668  10.705  46.033  1.00  0.00     0.014 C 
HETATM    3  N1  UNL     1      31.842  10.207  47.190  1.00  0.00    -0.241 NA
HETATM    4  C3  UNL     1      31.242   9.112  47.828  1.00  0.00     0.140 C 
HETATM    5  N2  UNL     1      31.153   8.949  49.121  1.00  0.00    -0.273 NA
HETATM    6  C4  UNL     1      31.854   7.723  49.531  1.00  0.00     0.162 C 
HETATM    7  C5  UNL     1      31.542   6.852  48.323  1.00  0.00    -0.000 C 
HETATM    8  C6  UNL     1      30.858   5.615  48.801  1.00  0.00     0.019 C 
HETATM    9  C7  UNL     1      32.771   6.689  47.517  1.00  0.00     0.048 C 
HETATM   10  C8  UNL     1      33.138   5.307  47.085  1.00  0.00     0.223 C 
HETATM   11  C9  UNL     1      34.144   4.771  48.080  1.00  0.00     0.036 C 
HETATM   12  C10 UNL     1      34.573   3.393  47.749  1.00  0.00     0.004 C 
HETATM   13  C11 UNL     1      35.153   3.387  46.356  1.00  0.00     0.030 C 
HETATM   14  C12 UNL     1      34.157   3.989  45.366  1.00  0.00     0.273 C 
HETATM   15  N3  UNL     1      33.803   5.312  45.794  1.00  0.00     0.093 N 
HETATM   16  C13 UNL     1      33.174   6.138  44.826  1.00  0.00     0.274 C 
HETATM   17  C14 UNL     1      33.345   5.727  43.388  1.00  0.00     0.050 C 
HETATM   18  C15 UNL     1      32.593   6.644  42.432  1.00  0.00     0.134 C 
HETATM   19  N4  UNL     1      33.001   8.034  42.537  1.00  0.00    -0.318 N 
HETATM   20  C16 UNL     1      34.358   8.516  42.429  1.00  0.00     0.247 C 
HETATM   21  O1  UNL     1      35.263   7.691  42.705  1.00  0.00    -0.271 OA
HETATM   22  C17 UNL     1      34.203   9.938  41.993  1.00  0.00     0.271 C 
HETATM   23  O2  UNL     1      33.229  10.064  41.027  1.00  0.00    -0.376 OA
HETATM   24  C18 UNL     1      31.995   9.594  41.443  1.00  0.00     0.225 C 
HETATM   25  C19 UNL     1      32.032   9.143  42.816  1.00  0.00     0.035 C 
HETATM   26  C20 UNL     1      31.499   9.516  43.944  1.00  0.00     0.006 C 
HETATM   27  C21 UNL     1      30.716  10.204  45.013  1.00  0.00     0.083 C 
HETATM   28  C22 UNL     1      30.523   7.793  47.654  1.00  0.00     0.163 C 
HETATM   29 CL1  UNL     1      28.993   7.777  48.515  1.00  0.00    -0.116 Cl
ENDROOT
TORSDOF 0
ENDMDL
