MODEL 1
REMARK VINA RESULT:      -8.3      0.000      0.000
REMARK  6 active torsions:
REMARK  status: ('A' for Active; 'I' for Inactive)
REMARK    1  A    between atoms: C2_2  and  O1_3 
REMARK    2  A    between atoms: O1_3  and  C3_4 
REMARK    3  A    between atoms: C7_8  and  C8_9 
REMARK    4  A    between atoms: C7_8  and  N3_14 
REMARK    5  A    between atoms: C8_9  and  C9_10 
REMARK    6  A    between atoms: C9_10  and  N1_11 
ROOT
HETATM    1  C8  UNL     1      21.732   4.222  50.698  1.00  0.00     0.135 C 
HETATM    2  C10 UNL     1      21.359   5.016  49.567  1.00  0.00     0.112 C 
HETATM    3  N2  UNL     1      21.072   5.660  48.654  1.00  0.00    -0.191 NA
ENDROOT
BRANCH   1   4
HETATM    4  C7  UNL     1      23.006   3.560  50.889  1.00  0.00     0.069 C 
HETATM    5  C6  UNL     1      23.492   2.388  51.130  1.00  0.00    -0.030 C 
HETATM    6  C5  UNL     1      22.964   1.049  51.348  1.00  0.00     0.068 C 
HETATM    7  C16 UNL     1      25.012   2.252  51.259  1.00  0.00     0.153 C 
HETATM    8  C4  UNL     1      21.569   0.685  51.333  1.00  0.00     0.011 C 
HETATM    9  C3  UNL     1      20.975  -0.094  52.283  1.00  0.00     0.060 C 
HETATM   10  C22 UNL     1      21.028  -0.883  53.518  1.00  0.00     0.187 C 
HETATM   11  N5  UNL     1      22.258  -1.009  54.232  1.00  0.00    -0.351 N 
HETATM   12  C21 UNL     1      23.490  -1.167  55.006  1.00  0.00     0.241 C 
HETATM   13  H23 UNL     1      22.869  -0.599  53.550  1.00  0.00     0.163 HD
HETATM   14  C20 UNL     1      24.909  -0.719  54.836  1.00  0.00     0.071 C 
HETATM   15  O2  UNL     1      22.644  -1.772  55.712  1.00  0.00    -0.269 OA
HETATM   16  C19 UNL     1      25.871  -0.131  54.116  1.00  0.00    -0.002 C 
HETATM   17  C18 UNL     1      25.490   0.377  52.776  1.00  0.00     0.144 C 
HETATM   18  N4  UNL     1      25.429   1.728  52.520  1.00  0.00    -0.410 N 
HETATM   19  C17 UNL     1      25.221   2.539  53.658  1.00  0.00     0.143 C 
BRANCH   9  20
HETATM   20  O1  UNL     1      19.626  -0.164  51.836  1.00  0.00    -0.354 OA
BRANCH  20  21
HETATM   21  C2  UNL     1      18.568  -0.611  52.618  1.00  0.00     0.171 C 
HETATM   22  C1  UNL     1      17.256  -0.681  51.881  1.00  0.00     0.034 C 
ENDBRANCH  20  21
ENDBRANCH   9  20
BRANCH   4  23
HETATM   23  N3  UNL     1      23.840   4.698  50.729  1.00  0.00    -0.349 N 
HETATM   24  C11 UNL     1      24.859   4.641  49.740  1.00  0.00     0.118 A 
HETATM   25  C12 UNL     1      25.620   5.712  49.597  1.00  0.00     0.087 A 
HETATM   26 CL1  UNL     1      26.892   5.693  48.391  1.00  0.00    -0.080 Cl
HETATM   27  C13 UNL     1      25.474   6.926  50.389  1.00  0.00     0.137 A 
HETATM   28  F1  UNL     1      26.258   8.011  50.232  1.00  0.00    -0.205 F 
HETATM   29  C14 UNL     1      24.505   6.909  51.300  1.00  0.00     0.037 A 
HETATM   30  C15 UNL     1      23.554   5.812  51.609  1.00  0.00     0.159 A 
ENDBRANCH   4  23
ENDBRANCH   1   4
BRANCH   1  31
HETATM   31  C9  UNL     1      20.861   4.057  51.681  1.00  0.00     0.000 C 
BRANCH  31  32
HETATM   32  N1  UNL     1      20.043   3.545  52.536  1.00  0.00    -0.257 NA
HETATM   33  H9  UNL     1      19.044   3.360  52.235  1.00  0.00     0.197 HD
ENDBRANCH  31  32
ENDBRANCH   1  31
TORSDOF 6
ENDMDL
MODEL 2
REMARK VINA RESULT:      -8.1      2.671      5.215
REMARK  6 active torsions:
REMARK  status: ('A' for Active; 'I' for Inactive)
REMARK    1  A    between atoms: C2_2  and  O1_3 
REMARK    2  A    between atoms: O1_3  and  C3_4 
REMARK    3  A    between atoms: C7_8  and  C8_9 
REMARK    4  A    between atoms: C7_8  and  N3_14 
REMARK    5  A    between atoms: C8_9  and  C9_10 
REMARK    6  A    between atoms: C9_10  and  N1_11 
ROOT
HETATM    1  C8  UNL     1      25.142   5.517  50.199  1.00  0.00     0.135 C 
HETATM    2  C10 UNL     1      26.031   4.499  49.727  1.00  0.00     0.112 C 
HETATM    3  N2  UNL     1      26.741   3.669  49.355  1.00  0.00    -0.191 NA
ENDROOT
BRANCH   1   4
HETATM    4  C7  UNL     1      23.754   5.329  50.566  1.00  0.00     0.069 C 
HETATM    5  C6  UNL     1      23.029   4.700  51.430  1.00  0.00    -0.030 C 
HETATM    6  C5  UNL     1      23.263   3.798  52.549  1.00  0.00     0.068 C 
HETATM    7  C16 UNL     1      21.508   4.854  51.343  1.00  0.00     0.153 C 
HETATM    8  C4  UNL     1      24.553   3.348  53.008  1.00  0.00     0.011 C 
HETATM    9  C3  UNL     1      24.849   2.047  53.295  1.00  0.00     0.060 C 
HETATM   10  C22 UNL     1      24.471   0.633  53.394  1.00  0.00     0.187 C 
HETATM   11  N5  UNL     1      23.149   0.221  53.047  1.00  0.00    -0.351 N 
HETATM   12  C21 UNL     1      21.810  -0.256  52.701  1.00  0.00     0.241 C 
HETATM   13  H23 UNL     1      22.730   1.128  52.955  1.00  0.00     0.163 HD
HETATM   14  C20 UNL     1      20.538   0.397  52.254  1.00  0.00     0.071 C 
HETATM   15  O2  UNL     1      22.417  -1.321  52.976  1.00  0.00    -0.269 OA
HETATM   16  C19 UNL     1      19.816   1.492  51.989  1.00  0.00    -0.002 C 
HETATM   17  C18 UNL     1      20.476   2.801  52.218  1.00  0.00     0.144 C 
HETATM   18  N4  UNL     1      20.822   3.614  51.162  1.00  0.00    -0.410 N 
HETATM   19  C17 UNL     1      21.009   2.945  49.933  1.00  0.00     0.143 C 
BRANCH   9  20
HETATM   20  O1  UNL     1      26.211   2.113  53.697  1.00  0.00    -0.354 OA
BRANCH  20  21
HETATM   21  C2  UNL     1      27.285   2.122  52.815  1.00  0.00     0.171 C 
HETATM   22  C1  UNL     1      28.603   2.453  53.466  1.00  0.00     0.034 C 
ENDBRANCH  20  21
ENDBRANCH   9  20
BRANCH   4  23
HETATM   23  N3  UNL     1      23.176   6.156  49.567  1.00  0.00    -0.349 N 
HETATM   24  C11 UNL     1      23.050   5.625  48.255  1.00  0.00     0.118 A 
HETATM   25  C12 UNL     1      22.501   6.404  47.339  1.00  0.00     0.087 A 
HETATM   26 CL1  UNL     1      22.322   5.795  45.706  1.00  0.00    -0.080 Cl
HETATM   27  C13 UNL     1      22.029   7.757  47.600  1.00  0.00     0.137 A 
HETATM   28  F1  UNL     1      21.470   8.541  46.656  1.00  0.00    -0.205 F 
HETATM   29  C14 UNL     1      22.182   8.193  48.847  1.00  0.00     0.037 A 
HETATM   30  C15 UNL     1      22.771   7.476  50.005  1.00  0.00     0.159 A 
ENDBRANCH   4  23
ENDBRANCH   1   4
BRANCH   1  31
HETATM   31  C9  UNL     1      25.593   6.755  50.326  1.00  0.00     0.000 C 
BRANCH  31  32
HETATM   32  N1  UNL     1      26.339   7.783  50.550  1.00  0.00    -0.257 NA
HETATM   33  H9  UNL     1      25.878   8.685  50.862  1.00  0.00     0.197 HD
ENDBRANCH  31  32
ENDBRANCH   1  31
TORSDOF 6
ENDMDL
MODEL 3
REMARK VINA RESULT:      -7.8      1.402      1.599
REMARK  6 active torsions:
REMARK  status: ('A' for Active; 'I' for Inactive)
REMARK    1  A    between atoms: C2_2  and  O1_3 
REMARK    2  A    between atoms: O1_3  and  C3_4 
REMARK    3  A    between atoms: C7_8  and  C8_9 
REMARK    4  A    between atoms: C7_8  and  N3_14 
REMARK    5  A    between atoms: C8_9  and  C9_10 
REMARK    6  A    between atoms: C9_10  and  N1_11 
ROOT
HETATM    1  C8  UNL     1      21.954   5.049  49.417  1.00  0.00     0.135 C 
HETATM    2  C10 UNL     1      21.949   5.845  48.228  1.00  0.00     0.112 C 
HETATM    3  N2  UNL     1      21.959   6.491  47.271  1.00  0.00    -0.191 NA
ENDROOT
BRANCH   1   4
HETATM    4  C7  UNL     1      23.063   4.257  49.905  1.00  0.00     0.069 C 
HETATM    5  C6  UNL     1      23.355   3.038  50.216  1.00  0.00    -0.030 C 
HETATM    6  C5  UNL     1      22.662   1.757  50.234  1.00  0.00     0.068 C 
HETATM    7  C16 UNL     1      24.767   2.744  50.730  1.00  0.00     0.153 C 
HETATM    8  C4  UNL     1      21.292   1.538  49.841  1.00  0.00     0.011 C 
HETATM    9  C3  UNL     1      20.398   0.812  50.571  1.00  0.00     0.060 C 
HETATM   10  C22 UNL     1      20.049   0.003  51.744  1.00  0.00     0.187 C 
HETATM   11  N5  UNL     1      21.029  -0.259  52.748  1.00  0.00    -0.351 N 
HETATM   12  C21 UNL     1      21.994  -0.555  53.808  1.00  0.00     0.241 C 
HETATM   13  H23 UNL     1      21.835   0.095  52.265  1.00  0.00     0.163 HD
HETATM   14  C20 UNL     1      23.444  -0.253  54.031  1.00  0.00     0.071 C 
HETATM   15  O2  UNL     1      20.939  -1.080  54.244  1.00  0.00    -0.269 OA
HETATM   16  C19 UNL     1      24.613   0.243  53.611  1.00  0.00    -0.002 C 
HETATM   17  C18 UNL     1      24.648   0.807  52.240  1.00  0.00     0.144 C 
HETATM   18  N4  UNL     1      24.786   2.161  52.034  1.00  0.00    -0.410 N 
HETATM   19  C17 UNL     1      24.364   2.972  53.110  1.00  0.00     0.143 C 
BRANCH   9  20
HETATM   20  O1  UNL     1      19.214   0.887  49.787  1.00  0.00    -0.354 OA
BRANCH  20  21
HETATM   21  C2  UNL     1      17.932   0.973  50.316  1.00  0.00     0.171 C 
HETATM   22  C1  UNL     1      16.997  -0.099  49.818  1.00  0.00     0.034 C 
ENDBRANCH  20  21
ENDBRANCH   9  20
BRANCH   4  23
HETATM   23  N3  UNL     1      24.015   5.305  50.015  1.00  0.00    -0.349 N 
HETATM   24  C11 UNL     1      25.100   5.316  49.098  1.00  0.00     0.118 A 
HETATM   25  C12 UNL     1      25.971   6.304  49.206  1.00  0.00     0.087 A 
HETATM   26 CL1  UNL     1      27.328   6.363  48.098  1.00  0.00    -0.080 Cl
HETATM   27  C13 UNL     1      25.881   7.362  50.203  1.00  0.00     0.137 A 
HETATM   28  F1  UNL     1      26.777   8.364  50.303  1.00  0.00    -0.205 F 
HETATM   29  C14 UNL     1      24.844   7.288  51.033  1.00  0.00     0.037 A 
HETATM   30  C15 UNL     1      23.769   6.265  51.071  1.00  0.00     0.159 A 
ENDBRANCH   4  23
ENDBRANCH   1   4
BRANCH   1  31
HETATM   31  C9  UNL     1      20.864   5.010  50.167  1.00  0.00     0.000 C 
BRANCH  31  32
HETATM   32  N1  UNL     1      19.707   4.713  50.654  1.00  0.00    -0.257 NA
HETATM   33  H9  UNL     1      19.121   5.489  51.077  1.00  0.00     0.197 HD
ENDBRANCH  31  32
ENDBRANCH   1  31
TORSDOF 6
ENDMDL
MODEL 4
REMARK VINA RESULT:      -7.6      3.999      6.381
REMARK  6 active torsions:
REMARK  status: ('A' for Active; 'I' for Inactive)
REMARK    1  A    between atoms: C2_2  and  O1_3 
REMARK    2  A    between atoms: O1_3  and  C3_4 
REMARK    3  A    between atoms: C7_8  and  C8_9 
REMARK    4  A    between atoms: C7_8  and  N3_14 
REMARK    5  A    between atoms: C8_9  and  C9_10 
REMARK    6  A    between atoms: C9_10  and  N1_11 
ROOT
HETATM    1  C8  UNL     1      20.965   4.016  49.219  1.00  0.00     0.135 C 
HETATM    2  C10 UNL     1      20.394   5.297  48.931  1.00  0.00     0.112 C 
HETATM    3  N2  UNL     1      19.923   6.326  48.706  1.00  0.00    -0.191 NA
ENDROOT
BRANCH   1   4
HETATM    4  C7  UNL     1      20.915   3.332  50.494  1.00  0.00     0.069 C 
HETATM    5  C6  UNL     1      21.680   3.018  51.486  1.00  0.00    -0.030 C 
HETATM    6  C5  UNL     1      23.078   3.210  51.844  1.00  0.00     0.068 C 
HETATM    7  C16 UNL     1      21.070   2.219  52.642  1.00  0.00     0.153 C 
HETATM    8  C4  UNL     1      24.061   3.904  51.048  1.00  0.00     0.011 C 
HETATM    9  C3  UNL     1      25.311   3.421  50.791  1.00  0.00     0.060 C 
HETATM   10  C22 UNL     1      26.346   2.391  50.926  1.00  0.00     0.187 C 
HETATM   11  N5  UNL     1      26.082   1.208  51.681  1.00  0.00    -0.351 N 
HETATM   12  C21 UNL     1      25.864  -0.024  52.440  1.00  0.00     0.241 C 
HETATM   13  H23 UNL     1      25.209   1.486  52.092  1.00  0.00     0.163 HD
HETATM   14  C20 UNL     1      24.737  -0.574  53.259  1.00  0.00     0.071 C 
HETATM   15  O2  UNL     1      27.016  -0.193  51.968  1.00  0.00    -0.269 OA
HETATM   16  C19 UNL     1      23.535  -0.444  53.831  1.00  0.00    -0.002 C 
HETATM   17  C18 UNL     1      22.848   0.860  53.659  1.00  0.00     0.144 C 
HETATM   18  N4  UNL     1      21.723   0.971  52.874  1.00  0.00    -0.410 N 
HETATM   19  C17 UNL     1      21.594  -0.021  51.878  1.00  0.00     0.143 C 
BRANCH   9  20
HETATM   20  O1  UNL     1      25.884   4.443  49.985  1.00  0.00    -0.354 OA
BRANCH  20  21
HETATM   21  C2  UNL     1      27.013   4.270  49.193  1.00  0.00     0.171 C 
HETATM   22  C1  UNL     1      27.519   5.545  48.571  1.00  0.00     0.034 C 
ENDBRANCH  20  21
ENDBRANCH   9  20
BRANCH   4  23
HETATM   23  N3  UNL     1      19.543   2.969  50.465  1.00  0.00    -0.349 N 
HETATM   24  C11 UNL     1      18.628   3.767  51.203  1.00  0.00     0.118 A 
HETATM   25  C12 UNL     1      17.353   3.422  51.157  1.00  0.00     0.087 A 
HETATM   26 CL1  UNL     1      16.184   4.375  52.050  1.00  0.00    -0.080 Cl
HETATM   27  C13 UNL     1      16.845   2.283  50.404  1.00  0.00     0.137 A 
HETATM   28  F1  UNL     1      15.542   1.943  50.365  1.00  0.00    -0.205 F 
HETATM   29  C14 UNL     1      17.756   1.576  49.740  1.00  0.00     0.037 A 
HETATM   30  C15 UNL     1      19.221   1.802  49.669  1.00  0.00     0.159 A 
ENDBRANCH   4  23
ENDBRANCH   1   4
BRANCH   1  31
HETATM   31  C9  UNL     1      21.603   3.367  48.258  1.00  0.00     0.000 C 
BRANCH  31  32
HETATM   32  N1  UNL     1      22.367   2.556  47.610  1.00  0.00    -0.257 NA
HETATM   33  H9  UNL     1      22.304   1.519  47.822  1.00  0.00     0.197 HD
ENDBRANCH  31  32
ENDBRANCH   1  31
TORSDOF 6
ENDMDL
MODEL 5
REMARK VINA RESULT:      -7.5      1.788      2.022
REMARK  6 active torsions:
REMARK  status: ('A' for Active; 'I' for Inactive)
REMARK    1  A    between atoms: C2_2  and  O1_3 
REMARK    2  A    between atoms: O1_3  and  C3_4 
REMARK    3  A    between atoms: C7_8  and  C8_9 
REMARK    4  A    between atoms: C7_8  and  N3_14 
REMARK    5  A    between atoms: C8_9  and  C9_10 
REMARK    6  A    between atoms: C9_10  and  N1_11 
ROOT
HETATM    1  C8  UNL     1      19.760   4.401  50.172  1.00  0.00     0.135 C 
HETATM    2  C10 UNL     1      19.195   5.135  49.081  1.00  0.00     0.112 C 
HETATM    3  N2  UNL     1      18.752   5.733  48.199  1.00  0.00    -0.191 NA
ENDROOT
BRANCH   1   4
HETATM    4  C7  UNL     1      21.110   3.883  50.239  1.00  0.00     0.069 C 
HETATM    5  C6  UNL     1      21.743   2.774  50.434  1.00  0.00    -0.030 C 
HETATM    6  C5  UNL     1      21.387   1.388  50.703  1.00  0.00     0.068 C 
HETATM    7  C16 UNL     1      23.274   2.805  50.414  1.00  0.00     0.153 C 
HETATM    8  C4  UNL     1      20.045   0.874  50.824  1.00  0.00     0.011 C 
HETATM    9  C3  UNL     1      19.634   0.047  51.828  1.00  0.00     0.060 C 
HETATM   10  C22 UNL     1      19.893  -0.717  53.053  1.00  0.00     0.187 C 
HETATM   11  N5  UNL     1      21.191  -0.700  53.645  1.00  0.00    -0.351 N 
HETATM   12  C21 UNL     1      22.502  -0.715  54.295  1.00  0.00     0.241 C 
HETATM   13  H23 UNL     1      21.685  -0.235  52.906  1.00  0.00     0.163 HD
HETATM   14  C20 UNL     1      23.841  -0.117  53.987  1.00  0.00     0.071 C 
HETATM   15  O2  UNL     1      21.800  -1.399  55.080  1.00  0.00    -0.269 OA
HETATM   16  C19 UNL     1      24.659   0.563  53.177  1.00  0.00    -0.002 C 
HETATM   17  C18 UNL     1      24.097   1.011  51.879  1.00  0.00     0.144 C 
HETATM   18  N4  UNL     1      23.865   2.344  51.630  1.00  0.00    -0.410 N 
HETATM   19  C17 UNL     1      23.681   3.141  52.781  1.00  0.00     0.143 C 
BRANCH   9  20
HETATM   20  O1  UNL     1      18.265  -0.174  51.515  1.00  0.00    -0.354 OA
BRANCH  20  21
HETATM   21  C2  UNL     1      17.401  -0.939  52.290  1.00  0.00     0.171 C 
HETATM   22  C1  UNL     1      16.059  -0.293  52.521  1.00  0.00     0.034 C 
ENDBRANCH  20  21
ENDBRANCH   9  20
BRANCH   4  23
HETATM   23  N3  UNL     1      21.796   5.103  49.998  1.00  0.00    -0.349 N 
HETATM   24  C11 UNL     1      22.275   5.347  48.682  1.00  0.00     0.118 A 
HETATM   25  C12 UNL     1      22.901   6.492  48.472  1.00  0.00     0.087 A 
HETATM   26 CL1  UNL     1      23.510   6.842  46.866  1.00  0.00    -0.080 Cl
HETATM   27  C13 UNL     1      23.127   7.497  49.502  1.00  0.00     0.137 A 
HETATM   28  F1  UNL     1      23.769   8.659  49.273  1.00  0.00    -0.205 F 
HETATM   29  C14 UNL     1      22.659   7.201  50.711  1.00  0.00     0.037 A 
HETATM   30  C15 UNL     1      21.935   5.979  51.142  1.00  0.00     0.159 A 
ENDBRANCH   4  23
ENDBRANCH   1   4
BRANCH   1  31
HETATM   31  C9  UNL     1      19.011   4.155  51.236  1.00  0.00     0.000 C 
BRANCH  31  32
HETATM   32  N1  UNL     1      18.199   3.614  52.079  1.00  0.00    -0.257 NA
HETATM   33  H9  UNL     1      17.498   4.234  52.578  1.00  0.00     0.197 HD
ENDBRANCH  31  32
ENDBRANCH   1  31
TORSDOF 6
ENDMDL
MODEL 6
REMARK VINA RESULT:      -7.2      7.968     11.250
REMARK  6 active torsions:
REMARK  status: ('A' for Active; 'I' for Inactive)
REMARK    1  A    between atoms: C2_2  and  O1_3 
REMARK    2  A    between atoms: O1_3  and  C3_4 
REMARK    3  A    between atoms: C7_8  and  C8_9 
REMARK    4  A    between atoms: C7_8  and  N3_14 
REMARK    5  A    between atoms: C8_9  and  C9_10 
REMARK    6  A    between atoms: C9_10  and  N1_11 
ROOT
HETATM    1  C8  UNL     1      27.785   9.880  48.032  1.00  0.00     0.135 C 
HETATM    2  C10 UNL     1      26.425   9.908  47.585  1.00  0.00     0.112 C 
HETATM    3  N2  UNL     1      25.332   9.941  47.217  1.00  0.00    -0.191 NA
ENDROOT
BRANCH   1   4
HETATM    4  C7  UNL     1      28.953  10.121  47.212  1.00  0.00     0.069 C 
HETATM    5  C6  UNL     1      29.941   9.485  46.675  1.00  0.00    -0.030 C 
HETATM    6  C5  UNL     1      30.408   8.107  46.624  1.00  0.00     0.068 C 
HETATM    7  C16 UNL     1      30.965  10.291  45.871  1.00  0.00     0.153 C 
HETATM    8  C4  UNL     1      29.765   6.979  47.254  1.00  0.00     0.011 C 
HETATM    9  C3  UNL     1      30.426   6.041  47.993  1.00  0.00     0.060 C 
HETATM   10  C22 UNL     1      31.655   5.494  48.577  1.00  0.00     0.187 C 
HETATM   11  N5  UNL     1      32.901   6.160  48.371  1.00  0.00    -0.351 N 
HETATM   12  C21 UNL     1      34.203   6.804  48.194  1.00  0.00     0.241 C 
HETATM   13  H23 UNL     1      32.602   6.825  47.680  1.00  0.00     0.163 HD
HETATM   14  C20 UNL     1      34.696   8.004  47.446  1.00  0.00     0.071 C 
HETATM   15  O2  UNL     1      34.474   5.844  48.959  1.00  0.00    -0.269 OA
HETATM   16  C19 UNL     1      34.491   9.020  46.600  1.00  0.00    -0.002 C 
HETATM   17  C18 UNL     1      33.133   9.141  46.015  1.00  0.00     0.144 C 
HETATM   18  N4  UNL     1      32.297  10.175  46.371  1.00  0.00    -0.410 N 
HETATM   19  C17 UNL     1      32.565  10.747  47.634  1.00  0.00     0.143 C 
BRANCH   9  20
HETATM   20  O1  UNL     1      29.383   5.160  48.389  1.00  0.00    -0.354 OA
BRANCH  20  21
HETATM   21  C2  UNL     1      28.045   5.525  48.482  1.00  0.00     0.171 C 
HETATM   22  C1  UNL     1      27.144   4.417  48.961  1.00  0.00     0.034 C 
ENDBRANCH  20  21
ENDBRANCH   9  20
BRANCH   4  23
HETATM   23  N3  UNL     1      28.796  11.523  47.058  1.00  0.00    -0.349 N 
HETATM   24  C11 UNL     1      28.197  11.998  45.860  1.00  0.00     0.118 A 
HETATM   25  C12 UNL     1      28.047  13.306  45.737  1.00  0.00     0.087 A 
HETATM   26 CL1  UNL     1      27.314  13.942  44.279  1.00  0.00    -0.080 Cl
HETATM   27  C13 UNL     1      28.461  14.269  46.748  1.00  0.00     0.137 A 
HETATM   28  F1  UNL     1      28.304  15.601  46.610  1.00  0.00    -0.205 F 
HETATM   29  C14 UNL     1      29.019  13.758  47.842  1.00  0.00     0.037 A 
HETATM   30  C15 UNL     1      29.272  12.331  48.162  1.00  0.00     0.159 A 
ENDBRANCH   4  23
ENDBRANCH   1   4
BRANCH   1  31
HETATM   31  C9  UNL     1      28.037   9.615  49.304  1.00  0.00     0.000 C 
BRANCH  31  32
HETATM   32  N1  UNL     1      27.920   9.306  50.550  1.00  0.00    -0.257 NA
HETATM   33  H9  UNL     1      28.711   9.553  51.211  1.00  0.00     0.197 HD
ENDBRANCH  31  32
ENDBRANCH   1  31
TORSDOF 6
ENDMDL
MODEL 7
REMARK VINA RESULT:      -7.1      2.460      3.799
REMARK  6 active torsions:
REMARK  status: ('A' for Active; 'I' for Inactive)
REMARK    1  A    between atoms: C2_2  and  O1_3 
REMARK    2  A    between atoms: O1_3  and  C3_4 
REMARK    3  A    between atoms: C7_8  and  C8_9 
REMARK    4  A    between atoms: C7_8  and  N3_14 
REMARK    5  A    between atoms: C8_9  and  C9_10 
REMARK    6  A    between atoms: C9_10  and  N1_11 
ROOT
HETATM    1  C8  UNL     1      22.982   6.304  48.004  1.00  0.00     0.135 C 
HETATM    2  C10 UNL     1      23.396   7.042  46.849  1.00  0.00     0.112 C 
HETATM    3  N2  UNL     1      23.743   7.638  45.924  1.00  0.00    -0.191 NA
ENDROOT
BRANCH   1   4
HETATM    4  C7  UNL     1      23.808   5.398  48.774  1.00  0.00     0.069 C 
HETATM    5  C6  UNL     1      23.863   4.157  49.126  1.00  0.00    -0.030 C 
HETATM    6  C5  UNL     1      23.064   2.960  48.907  1.00  0.00     0.068 C 
HETATM    7  C16 UNL     1      25.023   3.714  50.023  1.00  0.00     0.153 C 
HETATM    8  C4  UNL     1      21.854   2.890  48.125  1.00  0.00     0.011 C 
HETATM    9  C3  UNL     1      20.712   2.271  48.542  1.00  0.00     0.060 C 
HETATM   10  C22 UNL     1      19.950   1.513  49.541  1.00  0.00     0.187 C 
HETATM   11  N5  UNL     1      20.559   1.152  50.781  1.00  0.00    -0.351 N 
HETATM   12  C21 UNL     1      21.132   0.759  52.068  1.00  0.00     0.241 C 
HETATM   13  H23 UNL     1      21.503   1.413  50.564  1.00  0.00     0.163 HD
HETATM   14  C20 UNL     1      22.476   0.902  52.714  1.00  0.00     0.071 C 
HETATM   15  O2  UNL     1      19.945   0.357  52.163  1.00  0.00    -0.269 OA
HETATM   16  C19 UNL     1      23.763   1.264  52.668  1.00  0.00    -0.002 C 
HETATM   17  C18 UNL     1      24.259   1.812  51.381  1.00  0.00     0.144 C 
HETATM   18  N4  UNL     1      24.595   3.141  51.259  1.00  0.00    -0.410 N 
HETATM   19  C17 UNL     1      23.966   4.001  52.186  1.00  0.00     0.143 C 
BRANCH   9  20
HETATM   20  O1  UNL     1      19.826   2.470  47.448  1.00  0.00    -0.354 OA
BRANCH  20  21
HETATM   21  C2  UNL     1      19.897   3.549  46.575  1.00  0.00     0.171 C 
HETATM   22  C1  UNL     1      18.777   3.589  45.568  1.00  0.00     0.034 C 
ENDBRANCH  20  21
ENDBRANCH   9  20
BRANCH   4  23
HETATM   23  N3  UNL     1      24.792   6.336  49.185  1.00  0.00    -0.349 N 
HETATM   24  C11 UNL     1      26.044   6.323  48.513  1.00  0.00     0.118 A 
HETATM   25  C12 UNL     1      26.945   7.210  48.899  1.00  0.00     0.087 A 
HETATM   26 CL1  UNL     1      28.505   7.236  48.101  1.00  0.00    -0.080 Cl
HETATM   27  C13 UNL     1      26.726   8.180  49.963  1.00  0.00     0.137 A 
HETATM   28  F1  UNL     1      27.654   9.078  50.348  1.00  0.00    -0.205 F 
HETATM   29  C14 UNL     1      25.535   8.134  50.554  1.00  0.00     0.037 A 
HETATM   30  C15 UNL     1      24.402   7.220  50.264  1.00  0.00     0.159 A 
ENDBRANCH   4  23
ENDBRANCH   1   4
BRANCH   1  31
HETATM   31  C9  UNL     1      21.739   6.437  48.438  1.00  0.00     0.000 C 
BRANCH  31  32
HETATM   32  N1  UNL     1      20.609   6.252  49.032  1.00  0.00    -0.257 NA
HETATM   33  H9  UNL     1      19.769   6.815  48.712  1.00  0.00     0.197 HD
ENDBRANCH  31  32
ENDBRANCH   1  31
TORSDOF 6
ENDMDL
MODEL 8
REMARK VINA RESULT:      -7.0      9.012     12.221
REMARK  6 active torsions:
REMARK  status: ('A' for Active; 'I' for Inactive)
REMARK    1  A    between atoms: C2_2  and  O1_3 
REMARK    2  A    between atoms: O1_3  and  C3_4 
REMARK    3  A    between atoms: C7_8  and  C8_9 
REMARK    4  A    between atoms: C7_8  and  N3_14 
REMARK    5  A    between atoms: C8_9  and  C9_10 
REMARK    6  A    between atoms: C9_10  and  N1_11 
ROOT
HETATM    1  C8  UNL     1      29.393   9.665  46.434  1.00  0.00     0.135 C 
HETATM    2  C10 UNL     1      29.191  11.073  46.594  1.00  0.00     0.112 C 
HETATM    3  N2  UNL     1      29.027  12.206  46.737  1.00  0.00    -0.191 NA
ENDROOT
BRANCH   1   4
HETATM    4  C7  UNL     1      30.029   8.784  47.391  1.00  0.00     0.069 C 
HETATM    5  C6  UNL     1      31.171   8.228  47.627  1.00  0.00    -0.030 C 
HETATM    6  C5  UNL     1      32.486   8.210  47.003  1.00  0.00     0.068 C 
HETATM    7  C16 UNL     1      31.288   7.314  48.850  1.00  0.00     0.153 C 
HETATM    8  C4  UNL     1      32.856   8.921  45.804  1.00  0.00     0.011 C 
HETATM    9  C3  UNL     1      33.544   8.361  44.768  1.00  0.00     0.060 C 
HETATM   10  C22 UNL     1      34.214   7.219  44.135  1.00  0.00     0.187 C 
HETATM   11  N5  UNL     1      34.267   5.961  44.807  1.00  0.00    -0.351 N 
HETATM   12  C21 UNL     1      34.347   4.648  45.448  1.00  0.00     0.241 C 
HETATM   13  H23 UNL     1      33.921   6.255  45.701  1.00  0.00     0.163 HD
HETATM   14  C20 UNL     1      33.911   4.088  46.767  1.00  0.00     0.071 C 
HETATM   15  O2  UNL     1      34.887   4.441  44.332  1.00  0.00    -0.269 OA
HETATM   16  C19 UNL     1      33.389   4.245  47.989  1.00  0.00    -0.002 C 
HETATM   17  C18 UNL     1      33.011   5.624  48.384  1.00  0.00     0.144 C 
HETATM   18  N4  UNL     1      31.690   5.983  48.526  1.00  0.00    -0.410 N 
HETATM   19  C17 UNL     1      30.777   5.193  47.794  1.00  0.00     0.143 C 
BRANCH   9  20
HETATM   20  O1  UNL     1      33.662   9.438  43.847  1.00  0.00    -0.354 OA
BRANCH  20  21
HETATM   21  C2  UNL     1      32.717  10.447  43.703  1.00  0.00     0.171 C 
HETATM   22  C1  UNL     1      33.313  11.825  43.583  1.00  0.00     0.034 C 
ENDBRANCH  20  21
ENDBRANCH   9  20
BRANCH   4  23
HETATM   23  N3  UNL     1      28.908   8.577  48.238  1.00  0.00    -0.349 N 
HETATM   24  C11 UNL     1      28.086   7.446  47.988  1.00  0.00     0.118 A 
HETATM   25  C12 UNL     1      27.053   7.262  48.791  1.00  0.00     0.087 A 
HETATM   26 CL1  UNL     1      26.007   5.880  48.525  1.00  0.00    -0.080 Cl
HETATM   27  C13 UNL     1      26.717   8.145  49.900  1.00  0.00     0.137 A 
HETATM   28  F1  UNL     1      25.660   7.946  50.712  1.00  0.00    -0.205 F 
HETATM   29  C14 UNL     1      27.525   9.187  50.074  1.00  0.00     0.037 A 
HETATM   30  C15 UNL     1      28.724   9.562  49.284  1.00  0.00     0.159 A 
ENDBRANCH   4  23
ENDBRANCH   1   4
BRANCH   1  31
HETATM   31  C9  UNL     1      28.972   9.078  45.325  1.00  0.00     0.000 C 
BRANCH  31  32
HETATM   32  N1  UNL     1      28.242   8.515  44.424  1.00  0.00    -0.257 NA
HETATM   33  H9  UNL     1      27.491   7.833  44.732  1.00  0.00     0.197 HD
ENDBRANCH  31  32
ENDBRANCH   1  31
TORSDOF 6
ENDMDL
MODEL 9
REMARK VINA RESULT:      -6.9     12.873     14.912
REMARK  6 active torsions:
REMARK  status: ('A' for Active; 'I' for Inactive)
REMARK    1  A    between atoms: C2_2  and  O1_3 
REMARK    2  A    between atoms: O1_3  and  C3_4 
REMARK    3  A    between atoms: C7_8  and  C8_9 
REMARK    4  A    between atoms: C7_8  and  N3_14 
REMARK    5  A    between atoms: C8_9  and  C9_10 
REMARK    6  A    between atoms: C9_10  and  N1_11 
ROOT
HETATM    1  C8  UNL     1      34.314   8.090  42.434  1.00  0.00     0.135 C 
HETATM    2  C10 UNL     1      33.675   8.883  41.428  1.00  0.00     0.112 C 
HETATM    3  N2  UNL     1      33.155   9.511  40.611  1.00  0.00    -0.191 NA
ENDROOT
BRANCH   1   4
HETATM    4  C7  UNL     1      33.771   6.895  43.045  1.00  0.00     0.069 C 
HETATM    5  C6  UNL     1      33.384   6.452  44.195  1.00  0.00    -0.030 C 
HETATM    6  C5  UNL     1      33.296   6.972  45.552  1.00  0.00     0.068 C 
HETATM    7  C16 UNL     1      32.882   5.008  44.279  1.00  0.00     0.153 C 
HETATM    8  C4  UNL     1      33.673   8.300  45.969  1.00  0.00     0.011 C 
HETATM    9  C3  UNL     1      34.436   8.566  47.068  1.00  0.00     0.060 C 
HETATM   10  C22 UNL     1      35.199   8.127  48.242  1.00  0.00     0.187 C 
HETATM   11  N5  UNL     1      35.311   6.737  48.542  1.00  0.00    -0.351 N 
HETATM   12  C21 UNL     1      35.462   5.324  48.893  1.00  0.00     0.241 C 
HETATM   13  H23 UNL     1      34.642   6.387  47.880  1.00  0.00     0.163 HD
HETATM   14  C20 UNL     1      34.946   4.035  48.331  1.00  0.00     0.071 C 
HETATM   15  O2  UNL     1      36.169   5.898  49.759  1.00  0.00    -0.269 OA
HETATM   16  C19 UNL     1      34.177   3.359  47.470  1.00  0.00    -0.002 C 
HETATM   17  C18 UNL     1      33.347   4.163  46.541  1.00  0.00     0.144 C 
HETATM   18  N4  UNL     1      33.626   4.201  45.193  1.00  0.00    -0.410 N 
HETATM   19  C17 UNL     1      34.965   3.910  44.856  1.00  0.00     0.143 C 
BRANCH   9  20
HETATM   20  O1  UNL     1      34.529   9.985  47.053  1.00  0.00    -0.354 OA
BRANCH  20  21
HETATM   21  C2  UNL     1      33.613  10.819  46.424  1.00  0.00     0.171 C 
HETATM   22  C1  UNL     1      32.683  11.527  47.376  1.00  0.00     0.034 C 
ENDBRANCH  20  21
ENDBRANCH   9  20
BRANCH   4  23
HETATM   23  N3  UNL     1      33.724   6.087  41.878  1.00  0.00    -0.349 N 
HETATM   24  C11 UNL     1      32.467   5.915  41.239  1.00  0.00     0.118 A 
HETATM   25  C12 UNL     1      32.442   5.168  40.148  1.00  0.00     0.087 A 
HETATM   26 CL1  UNL     1      30.916   4.925  39.321  1.00  0.00    -0.080 Cl
HETATM   27  C13 UNL     1      33.617   4.521  39.580  1.00  0.00     0.137 A 
HETATM   28  F1  UNL     1      33.578   3.762  38.467  1.00  0.00    -0.205 F 
HETATM   29  C14 UNL     1      34.759   4.719  40.231  1.00  0.00     0.037 A 
HETATM   30  C15 UNL     1      34.988   5.517  41.462  1.00  0.00     0.159 A 
ENDBRANCH   4  23
ENDBRANCH   1   4
BRANCH   1  31
HETATM   31  C9  UNL     1      35.510   8.449  42.871  1.00  0.00     0.000 C 
BRANCH  31  32
HETATM   32  N1  UNL     1      36.476   8.948  43.565  1.00  0.00    -0.257 NA
HETATM   33  H9  UNL     1      37.455   8.933  43.158  1.00  0.00     0.197 HD
ENDBRANCH  31  32
ENDBRANCH   1  31
TORSDOF 6
ENDMDL
