MODEL 1
REMARK VINA RESULT:      -8.9      0.000      0.000
REMARK  4 active torsions:
REMARK  status: ('A' for Active; 'I' for Inactive)
REMARK    1  A    between atoms: N1_2  and  C2_3 
REMARK    2  A    between atoms: C4_6  and  C5_7 
REMARK    3  A    between atoms: C16_19  and  O1_20 
REMARK    4  A    between atoms: C20_24  and  O2_25 
ROOT
HETATM    1  C2  UNL     1      22.813   2.098  50.409  1.00  0.00     0.129 C 
HETATM    2  N2  UNL     1      22.860   3.191  49.727  1.00  0.00    -0.268 NA
HETATM    3  C3  UNL     1      23.636   4.405  49.916  1.00  0.00     0.190 C 
HETATM    4  C4  UNL     1      25.072   4.192  50.091  1.00  0.00    -0.028 C 
HETATM    5  C11 UNL     1      25.576   3.271  50.934  1.00  0.00     0.011 C 
HETATM    6  C12 UNL     1      24.827   2.341  51.808  1.00  0.00     0.017 C 
HETATM    7  C13 UNL     1      23.612   1.803  51.616  1.00  0.00     0.022 C 
HETATM    8  C14 UNL     1      23.027   0.849  52.531  1.00  0.00     0.014 A 
HETATM    9  C15 UNL     1      21.675   0.617  52.534  1.00  0.00     0.052 A 
HETATM   10  C16 UNL     1      21.017  -0.298  53.316  1.00  0.00     0.069 A 
HETATM   11  C18 UNL     1      21.732  -1.079  54.194  1.00  0.00     0.039 A 
HETATM   12  C19 UNL     1      23.085  -0.888  54.231  1.00  0.00     0.040 A 
HETATM   13  C20 UNL     1      23.708   0.044  53.427  1.00  0.00     0.079 A 
ENDROOT
BRANCH   1  14
HETATM   14  N1  UNL     1      21.911   1.076  49.918  1.00  0.00    -0.379 N 
HETATM   15  C1  UNL     1      21.545   1.218  48.500  1.00  0.00     0.147 C 
HETATM   16  H4  UNL     1      21.677   0.390  50.702  1.00  0.00     0.160 HD
ENDBRANCH   1  14
BRANCH  13  17
HETATM   17  O2  UNL     1      25.055   0.130  53.560  1.00  0.00    -0.355 OA
HETATM   18  C21 UNL     1      25.915  -0.905  53.220  1.00  0.00     0.210 C 
ENDBRANCH  13  17
BRANCH   4  19
HETATM   19  C5  UNL     1      26.060   4.964  49.355  1.00  0.00    -0.027 A 
HETATM   20  C6  UNL     1      27.307   4.457  49.067  1.00  0.00     0.012 A 
HETATM   21  C7  UNL     1      28.304   5.122  48.385  1.00  0.00     0.002 A 
HETATM   22  C8  UNL     1      28.078   6.412  47.931  1.00  0.00     0.019 A 
HETATM   23  C9  UNL     1      26.837   6.956  48.200  1.00  0.00     0.011 A 
HETATM   24 BR1  UNL     1      26.532   8.728  47.574  1.00  0.00    -0.051 Br
HETATM   25  C10 UNL     1      25.896   6.240  48.882  1.00  0.00     0.031 A 
ENDBRANCH   4  19
BRANCH  10  26
HETATM   26  O1  UNL     1      19.649  -0.505  53.290  1.00  0.00    -0.356 OA
HETATM   27  C17 UNL     1      18.840  -0.230  52.190  1.00  0.00     0.210 C 
ENDBRANCH  10  26
TORSDOF 4
ENDMDL
MODEL 2
REMARK VINA RESULT:      -8.7      4.256      8.371
REMARK  4 active torsions:
REMARK  status: ('A' for Active; 'I' for Inactive)
REMARK    1  A    between atoms: N1_2  and  C2_3 
REMARK    2  A    between atoms: C4_6  and  C5_7 
REMARK    3  A    between atoms: C16_19  and  O1_20 
REMARK    4  A    between atoms: C20_24  and  O2_25 
ROOT
HETATM    1  C2  UNL     1      25.236   5.677  50.168  1.00  0.00     0.129 C 
HETATM    2  N2  UNL     1      24.303   4.919  50.634  1.00  0.00    -0.268 NA
HETATM    3  C3  UNL     1      24.079   3.488  50.509  1.00  0.00     0.190 C 
HETATM    4  C4  UNL     1      25.232   2.656  50.854  1.00  0.00    -0.028 C 
HETATM    5  C11 UNL     1      26.473   2.899  50.390  1.00  0.00     0.011 C 
HETATM    6  C12 UNL     1      26.901   3.992  49.488  1.00  0.00     0.017 C 
HETATM    7  C13 UNL     1      26.386   5.225  49.358  1.00  0.00     0.022 C 
HETATM    8  C14 UNL     1      26.954   6.219  48.477  1.00  0.00     0.014 A 
HETATM    9  C15 UNL     1      26.215   7.300  48.069  1.00  0.00     0.052 A 
HETATM   10  C16 UNL     1      26.661   8.330  47.280  1.00  0.00     0.069 A 
HETATM   11  C18 UNL     1      27.961   8.325  46.829  1.00  0.00     0.039 A 
HETATM   12  C19 UNL     1      28.742   7.269  47.207  1.00  0.00     0.040 A 
HETATM   13  C20 UNL     1      28.254   6.253  48.002  1.00  0.00     0.079 A 
ENDROOT
BRANCH   1  14
HETATM   14  N1  UNL     1      25.143   7.084  50.500  1.00  0.00    -0.379 N 
HETATM   15  C1  UNL     1      23.782   7.545  50.818  1.00  0.00     0.147 C 
HETATM   16  H4  UNL     1      26.110   7.534  50.453  1.00  0.00     0.160 HD
ENDBRANCH   1  14
BRANCH  13  17
HETATM   17  O2  UNL     1      29.134   5.267  48.306  1.00  0.00    -0.355 OA
HETATM   18  C21 UNL     1      30.495   5.364  48.048  1.00  0.00     0.210 C 
ENDBRANCH  13  17
BRANCH   4  19
HETATM   19  C5  UNL     1      25.114   1.504  51.732  1.00  0.00    -0.027 A 
HETATM   20  C6  UNL     1      26.184   0.678  51.989  1.00  0.00     0.012 A 
HETATM   21  C7  UNL     1      26.159  -0.438  52.799  1.00  0.00     0.002 A 
HETATM   22  C8  UNL     1      24.977  -0.798  53.430  1.00  0.00     0.019 A 
HETATM   23  C9  UNL     1      23.880   0.007  53.196  1.00  0.00     0.011 A 
HETATM   24 BR1  UNL     1      22.260  -0.491  54.063  1.00  0.00    -0.051 Br
HETATM   25  C10 UNL     1      23.977   1.099  52.381  1.00  0.00     0.031 A 
ENDBRANCH   4  19
BRANCH  10  26
HETATM   26  O1  UNL     1      25.885   9.407  46.889  1.00  0.00    -0.356 OA
HETATM   27  C17 UNL     1      24.688   9.767  47.503  1.00  0.00     0.210 C 
ENDBRANCH  10  26
TORSDOF 4
ENDMDL
MODEL 3
REMARK VINA RESULT:      -8.4      1.990      3.357
REMARK  4 active torsions:
REMARK  status: ('A' for Active; 'I' for Inactive)
REMARK    1  A    between atoms: N1_2  and  C2_3 
REMARK    2  A    between atoms: C4_6  and  C5_7 
REMARK    3  A    between atoms: C16_19  and  O1_20 
REMARK    4  A    between atoms: C20_24  and  O2_25 
ROOT
HETATM    1  C2  UNL     1      25.177   2.329  52.119  1.00  0.00     0.129 C 
HETATM    2  N2  UNL     1      26.278   2.461  51.461  1.00  0.00    -0.268 NA
HETATM    3  C3  UNL     1      26.530   2.858  50.086  1.00  0.00     0.190 C 
HETATM    4  C4  UNL     1      25.880   4.103  49.680  1.00  0.00    -0.028 C 
HETATM    5  C11 UNL     1      24.583   4.364  49.929  1.00  0.00     0.011 C 
HETATM    6  C12 UNL     1      23.605   3.498  50.624  1.00  0.00     0.017 C 
HETATM    7  C13 UNL     1      23.823   2.591  51.589  1.00  0.00     0.022 C 
HETATM    8  C14 UNL     1      22.753   1.859  52.229  1.00  0.00     0.014 A 
HETATM    9  C15 UNL     1      23.008   0.694  52.907  1.00  0.00     0.052 A 
HETATM   10  C16 UNL     1      22.086  -0.056  53.593  1.00  0.00     0.069 A 
HETATM   11  C18 UNL     1      20.774   0.354  53.636  1.00  0.00     0.039 A 
HETATM   12  C19 UNL     1      20.466   1.510  52.976  1.00  0.00     0.040 A 
HETATM   13  C20 UNL     1      21.423   2.235  52.297  1.00  0.00     0.079 A 
ENDROOT
BRANCH   1  14
HETATM   14  N1  UNL     1      25.303   1.912  53.501  1.00  0.00    -0.379 N 
HETATM   15  C1  UNL     1      26.618   1.352  53.849  1.00  0.00     0.147 C 
HETATM   16  H4  UNL     1      24.390   2.099  54.022  1.00  0.00     0.160 HD
ENDBRANCH   1  14
BRANCH  13  17
HETATM   17  O2  UNL     1      20.985   3.365  51.687  1.00  0.00    -0.355 OA
HETATM   18  C21 UNL     1      19.640   3.687  51.571  1.00  0.00     0.210 C 
ENDBRANCH  13  17
BRANCH   4  19
HETATM   19  C5  UNL     1      26.599   5.153  48.976  1.00  0.00    -0.027 A 
HETATM   20  C6  UNL     1      27.931   5.028  48.656  1.00  0.00     0.012 A 
HETATM   21  C7  UNL     1      28.690   5.975  48.001  1.00  0.00     0.002 A 
HETATM   22  C8  UNL     1      28.104   7.170  47.612  1.00  0.00     0.019 A 
HETATM   23  C9  UNL     1      26.767   7.333  47.916  1.00  0.00     0.011 A 
HETATM   24 BR1  UNL     1      25.968   8.976  47.380  1.00  0.00    -0.051 Br
HETATM   25  C10 UNL     1      26.076   6.352  48.567  1.00  0.00     0.031 A 
ENDBRANCH   4  19
BRANCH  10  26
HETATM   26  O1  UNL     1      22.381  -1.228  54.268  1.00  0.00    -0.356 OA
HETATM   27  C17 UNL     1      23.222  -1.299  55.375  1.00  0.00     0.210 C 
ENDBRANCH  10  26
TORSDOF 4
ENDMDL
MODEL 4
REMARK VINA RESULT:      -8.1      4.485      9.328
REMARK  4 active torsions:
REMARK  status: ('A' for Active; 'I' for Inactive)
REMARK    1  A    between atoms: N1_2  and  C2_3 
REMARK    2  A    between atoms: C4_6  and  C5_7 
REMARK    3  A    between atoms: C16_19  and  O1_20 
REMARK    4  A    between atoms: C20_24  and  O2_25 
ROOT
HETATM    1  C2  UNL     1      26.902   6.937  49.185  1.00  0.00     0.129 C 
HETATM    2  N2  UNL     1      25.665   6.645  49.405  1.00  0.00    -0.268 NA
HETATM    3  C3  UNL     1      24.886   5.465  49.071  1.00  0.00     0.190 C 
HETATM    4  C4  UNL     1      25.488   4.197  49.483  1.00  0.00    -0.028 C 
HETATM    5  C11 UNL     1      26.778   3.892  49.248  1.00  0.00     0.011 C 
HETATM    6  C12 UNL     1      27.793   4.725  48.565  1.00  0.00     0.017 C 
HETATM    7  C13 UNL     1      27.884   6.063  48.511  1.00  0.00     0.022 C 
HETATM    8  C14 UNL     1      28.977   6.745  47.857  1.00  0.00     0.014 A 
HETATM    9  C15 UNL     1      28.858   8.058  47.477  1.00  0.00     0.052 A 
HETATM   10  C16 UNL     1      29.841   8.821  46.899  1.00  0.00     0.069 A 
HETATM   11  C18 UNL     1      31.076   8.267  46.656  1.00  0.00     0.039 A 
HETATM   12  C19 UNL     1      31.248   6.959  47.015  1.00  0.00     0.040 A 
HETATM   13  C20 UNL     1      30.234   6.226  47.595  1.00  0.00     0.079 A 
ENDROOT
BRANCH   1  14
HETATM   14  N1  UNL     1      27.351   8.226  49.670  1.00  0.00    -0.379 N 
HETATM   15  C1  UNL     1      26.268   9.175  49.969  1.00  0.00     0.147 C 
HETATM   16  H4  UNL     1      28.418   8.243  49.723  1.00  0.00     0.160 HD
ENDBRANCH   1  14
BRANCH  13  17
HETATM   17  O2  UNL     1      30.537   4.941  47.906  1.00  0.00    -0.355 OA
HETATM   18  C21 UNL     1      31.651   4.286  47.401  1.00  0.00     0.210 C 
ENDBRANCH  13  17
BRANCH   4  19
HETATM   19  C5  UNL     1      24.727   3.176  50.184  1.00  0.00    -0.027 A 
HETATM   20  C6  UNL     1      23.431   2.872  49.836  1.00  0.00     0.012 A 
HETATM   21  C7  UNL     1      22.637   1.928  50.451  1.00  0.00     0.002 A 
HETATM   22  C8  UNL     1      23.143   1.196  51.515  1.00  0.00     0.019 A 
HETATM   23  C9  UNL     1      24.442   1.472  51.894  1.00  0.00     0.011 A 
HETATM   24 BR1  UNL     1      25.133   0.466  53.355  1.00  0.00    -0.051 Br
HETATM   25  C10 UNL     1      25.172   2.423  51.239  1.00  0.00     0.031 A 
ENDBRANCH   4  19
BRANCH  10  26
HETATM   26  O1  UNL     1      29.684  10.146  46.530  1.00  0.00    -0.356 OA
HETATM   27  C17 UNL     1      28.833  11.039  47.177  1.00  0.00     0.210 C 
ENDBRANCH  10  26
TORSDOF 4
ENDMDL
MODEL 5
REMARK VINA RESULT:      -7.9      3.903      5.612
REMARK  4 active torsions:
REMARK  status: ('A' for Active; 'I' for Inactive)
REMARK    1  A    between atoms: N1_2  and  C2_3 
REMARK    2  A    between atoms: C4_6  and  C5_7 
REMARK    3  A    between atoms: C16_19  and  O1_20 
REMARK    4  A    between atoms: C20_24  and  O2_25 
ROOT
HETATM    1  C2  UNL     1      21.202   1.074  50.534  1.00  0.00     0.129 C 
HETATM    2  N2  UNL     1      22.349   1.665  50.522  1.00  0.00    -0.268 NA
HETATM    3  C3  UNL     1      23.296   1.939  51.590  1.00  0.00     0.190 C 
HETATM    4  C4  UNL     1      23.655   0.777  52.402  1.00  0.00    -0.028 C 
HETATM    5  C11 UNL     1      22.739  -0.076  52.901  1.00  0.00     0.011 C 
HETATM    6  C12 UNL     1      21.269  -0.017  52.742  1.00  0.00     0.017 C 
HETATM    7  C13 UNL     1      20.554   0.481  51.720  1.00  0.00     0.022 C 
HETATM    8  C14 UNL     1      19.111   0.409  51.670  1.00  0.00     0.014 A 
HETATM    9  C15 UNL     1      18.396   1.241  50.846  1.00  0.00     0.052 A 
HETATM   10  C16 UNL     1      17.035   1.229  50.675  1.00  0.00     0.069 A 
HETATM   11  C18 UNL     1      16.271   0.322  51.372  1.00  0.00     0.039 A 
HETATM   12  C19 UNL     1      16.935  -0.531  52.209  1.00  0.00     0.040 A 
HETATM   13  C20 UNL     1      18.306  -0.487  52.352  1.00  0.00     0.079 A 
ENDROOT
BRANCH   1  14
HETATM   14  N1  UNL     1      20.522   0.974  49.259  1.00  0.00    -0.379 N 
HETATM   15  C1  UNL     1      20.918   1.995  48.276  1.00  0.00     0.147 C 
HETATM   16  H4  UNL     1      19.842   0.151  49.273  1.00  0.00     0.160 HD
ENDBRANCH   1  14
BRANCH  13  17
HETATM   17  O2  UNL     1      18.840  -1.390  53.211  1.00  0.00    -0.355 OA
HETATM   18  C21 UNL     1      18.118  -2.457  53.728  1.00  0.00     0.210 C 
ENDBRANCH  13  17
BRANCH   4  19
HETATM   19  C5  UNL     1      25.036   0.459  52.724  1.00  0.00    -0.027 A 
HETATM   20  C6  UNL     1      25.480  -0.841  52.805  1.00  0.00     0.012 A 
HETATM   21  C7  UNL     1      26.766  -1.231  53.112  1.00  0.00     0.002 A 
HETATM   22  C8  UNL     1      27.730  -0.267  53.369  1.00  0.00     0.019 A 
HETATM   23  C9  UNL     1      27.323   1.051  53.297  1.00  0.00     0.011 A 
HETATM   24 BR1  UNL     1      28.649   2.371  53.650  1.00  0.00    -0.051 Br
HETATM   25  C10 UNL     1      26.030   1.365  52.986  1.00  0.00     0.031 A 
ENDBRANCH   4  19
BRANCH  10  26
HETATM   26  O1  UNL     1      16.347   2.085  49.832  1.00  0.00    -0.356 OA
HETATM   27  C17 UNL     1      16.956   2.879  48.864  1.00  0.00     0.210 C 
ENDBRANCH  10  26
TORSDOF 4
ENDMDL
MODEL 6
REMARK VINA RESULT:      -7.8      3.547      7.786
REMARK  4 active torsions:
REMARK  status: ('A' for Active; 'I' for Inactive)
REMARK    1  A    between atoms: N1_2  and  C2_3 
REMARK    2  A    between atoms: C4_6  and  C5_7 
REMARK    3  A    between atoms: C16_19  and  O1_20 
REMARK    4  A    between atoms: C20_24  and  O2_25 
ROOT
HETATM    1  C2  UNL     1      22.278   2.227  51.710  1.00  0.00     0.129 C 
HETATM    2  N2  UNL     1      21.139   2.324  51.114  1.00  0.00    -0.268 NA
HETATM    3  C3  UNL     1      20.192   1.308  50.686  1.00  0.00     0.190 C 
HETATM    4  C4  UNL     1      19.819   0.345  51.721  1.00  0.00    -0.028 C 
HETATM    5  C11 UNL     1      20.723  -0.270  52.507  1.00  0.00     0.011 C 
HETATM    6  C12 UNL     1      22.194  -0.110  52.486  1.00  0.00     0.017 C 
HETATM    7  C13 UNL     1      22.917   0.968  52.142  1.00  0.00     0.022 C 
HETATM    8  C14 UNL     1      24.359   1.002  52.235  1.00  0.00     0.014 A 
HETATM    9  C15 UNL     1      25.085   1.930  51.533  1.00  0.00     0.052 A 
HETATM   10  C16 UNL     1      26.447   2.092  51.582  1.00  0.00     0.069 A 
HETATM   11  C18 UNL     1      27.199   1.275  52.393  1.00  0.00     0.039 A 
HETATM   12  C19 UNL     1      26.523   0.330  53.115  1.00  0.00     0.040 A 
HETATM   13  C20 UNL     1      25.153   0.200  53.037  1.00  0.00     0.079 A 
ENDROOT
BRANCH   1  14
HETATM   14  N1  UNL     1      22.960   3.474  51.992  1.00  0.00    -0.379 N 
HETATM   15  C1  UNL     1      22.065   4.612  52.253  1.00  0.00     0.147 C 
HETATM   16  H4  UNL     1      24.018   3.325  51.958  1.00  0.00     0.160 HD
ENDBRANCH   1  14
BRANCH  13  17
HETATM   17  O2  UNL     1      24.607  -0.773  53.808  1.00  0.00    -0.355 OA
HETATM   18  C21 UNL     1      24.898  -0.919  55.157  1.00  0.00     0.210 C 
ENDBRANCH  13  17
BRANCH   4  19
HETATM   19  C5  UNL     1      18.433  -0.012  51.976  1.00  0.00    -0.027 A 
HETATM   20  C6  UNL     1      18.096  -1.112  52.732  1.00  0.00     0.012 A 
HETATM   21  C7  UNL     1      16.812  -1.527  53.015  1.00  0.00     0.002 A 
HETATM   22  C8  UNL     1      15.736  -0.807  52.518  1.00  0.00     0.019 A 
HETATM   23  C9  UNL     1      16.033   0.304  51.754  1.00  0.00     0.011 A 
HETATM   24 BR1  UNL     1      14.553   1.289  51.073  1.00  0.00    -0.051 Br
HETATM   25  C10 UNL     1      17.331   0.658  51.513  1.00  0.00     0.031 A 
ENDBRANCH   4  19
BRANCH  10  26
HETATM   26  O1  UNL     1      27.146   3.043  50.858  1.00  0.00    -0.356 OA
HETATM   27  C17 UNL     1      26.626   3.723  49.760  1.00  0.00     0.210 C 
ENDBRANCH  10  26
TORSDOF 4
ENDMDL
MODEL 7
REMARK VINA RESULT:      -7.7      3.146      5.495
REMARK  4 active torsions:
REMARK  status: ('A' for Active; 'I' for Inactive)
REMARK    1  A    between atoms: N1_2  and  C2_3 
REMARK    2  A    between atoms: C4_6  and  C5_7 
REMARK    3  A    between atoms: C16_19  and  O1_20 
REMARK    4  A    between atoms: C20_24  and  O2_25 
ROOT
HETATM    1  C2  UNL     1      24.017   2.888  51.441  1.00  0.00     0.129 C 
HETATM    2  N2  UNL     1      23.961   3.529  50.324  1.00  0.00    -0.268 NA
HETATM    3  C3  UNL     1      23.503   3.119  49.007  1.00  0.00     0.190 C 
HETATM    4  C4  UNL     1      22.171   2.516  48.982  1.00  0.00    -0.028 C 
HETATM    5  C11 UNL     1      21.789   1.554  49.844  1.00  0.00     0.011 C 
HETATM    6  C12 UNL     1      22.590   0.945  50.929  1.00  0.00     0.017 C 
HETATM    7  C13 UNL     1      23.577   1.494  51.655  1.00  0.00     0.022 C 
HETATM    8  C14 UNL     1      24.232   0.795  52.738  1.00  0.00     0.014 A 
HETATM    9  C15 UNL     1      25.460   1.201  53.195  1.00  0.00     0.052 A 
HETATM   10  C16 UNL     1      26.151   0.652  54.245  1.00  0.00     0.069 A 
HETATM   11  C18 UNL     1      25.606  -0.406  54.936  1.00  0.00     0.039 A 
HETATM   12  C19 UNL     1      24.382  -0.851  54.520  1.00  0.00     0.040 A 
HETATM   13  C20 UNL     1      23.720  -0.270  53.459  1.00  0.00     0.079 A 
ENDROOT
BRANCH   1  14
HETATM   14  N1  UNL     1      24.536   3.624  52.576  1.00  0.00    -0.379 N 
HETATM   15  C1  UNL     1      23.664   4.712  53.045  1.00  0.00     0.147 C 
HETATM   16  H4  UNL     1      25.482   3.224  52.867  1.00  0.00     0.160 HD
ENDBRANCH   1  14
BRANCH  13  17
HETATM   17  O2  UNL     1      22.512  -0.805  53.152  1.00  0.00    -0.355 OA
HETATM   18  C21 UNL     1      21.609  -1.232  54.117  1.00  0.00     0.210 C 
ENDBRANCH  13  17
BRANCH   4  19
HETATM   19  C5  UNL     1      21.160   2.921  48.019  1.00  0.00    -0.027 A 
HETATM   20  C6  UNL     1      19.815   2.808  48.291  1.00  0.00     0.012 A 
HETATM   21  C7  UNL     1      18.793   3.158  47.435  1.00  0.00     0.002 A 
HETATM   22  C8  UNL     1      19.096   3.672  46.183  1.00  0.00     0.019 A 
HETATM   23  C9  UNL     1      20.435   3.800  45.873  1.00  0.00     0.011 A 
HETATM   24 BR1  UNL     1      20.846   4.505  44.153  1.00  0.00    -0.051 Br
HETATM   25  C10 UNL     1      21.397   3.433  46.771  1.00  0.00     0.031 A 
ENDBRANCH   4  19
BRANCH  10  26
HETATM   26  O1  UNL     1      27.390   1.090  54.678  1.00  0.00    -0.356 OA
HETATM   27  C17 UNL     1      28.503   0.265  54.818  1.00  0.00     0.210 C 
ENDBRANCH  10  26
TORSDOF 4
ENDMDL
MODEL 8
REMARK VINA RESULT:      -7.7      2.008      2.713
REMARK  4 active torsions:
REMARK  status: ('A' for Active; 'I' for Inactive)
REMARK    1  A    between atoms: N1_2  and  C2_3 
REMARK    2  A    between atoms: C4_6  and  C5_7 
REMARK    3  A    between atoms: C16_19  and  O1_20 
REMARK    4  A    between atoms: C20_24  and  O2_25 
ROOT
HETATM    1  C2  UNL     1      23.552   4.125  49.408  1.00  0.00     0.129 C 
HETATM    2  N2  UNL     1      23.934   5.253  48.912  1.00  0.00    -0.268 NA
HETATM    3  C3  UNL     1      25.094   6.081  49.197  1.00  0.00     0.190 C 
HETATM    4  C4  UNL     1      26.375   5.375  49.153  1.00  0.00    -0.028 C 
HETATM    5  C11 UNL     1      26.579   4.194  49.766  1.00  0.00     0.011 C 
HETATM    6  C12 UNL     1      25.608   3.411  50.564  1.00  0.00     0.017 C 
HETATM    7  C13 UNL     1      24.273   3.353  50.441  1.00  0.00     0.022 C 
HETATM    8  C14 UNL     1      23.451   2.486  51.254  1.00  0.00     0.014 A 
HETATM    9  C15 UNL     1      22.106   2.717  51.389  1.00  0.00     0.052 A 
HETATM   10  C16 UNL     1      21.220   1.937  52.088  1.00  0.00     0.069 A 
HETATM   11  C18 UNL     1      21.672   0.807  52.731  1.00  0.00     0.039 A 
HETATM   12  C19 UNL     1      23.007   0.530  52.629  1.00  0.00     0.040 A 
HETATM   13  C20 UNL     1      23.864   1.342  51.915  1.00  0.00     0.079 A 
ENDROOT
BRANCH   1  14
HETATM   14  N1  UNL     1      22.323   3.576  48.874  1.00  0.00    -0.379 N 
HETATM   15  C1  UNL     1      21.461   4.557  48.198  1.00  0.00     0.147 C 
HETATM   16  H4  UNL     1      22.275   2.528  49.077  1.00  0.00     0.160 HD
ENDBRANCH   1  14
BRANCH  13  17
HETATM   17  O2  UNL     1      25.163   0.951  51.890  1.00  0.00    -0.355 OA
HETATM   18  C21 UNL     1      25.827   0.468  53.009  1.00  0.00     0.210 C 
ENDBRANCH  13  17
BRANCH   4  19
HETATM   19  C5  UNL     1      27.522   5.906  48.435  1.00  0.00    -0.027 A 
HETATM   20  C6  UNL     1      27.451   7.086  47.729  1.00  0.00     0.012 A 
HETATM   21  C7  UNL     1      28.484   7.655  47.014  1.00  0.00     0.002 A 
HETATM   22  C8  UNL     1      29.717   7.022  46.974  1.00  0.00     0.019 A 
HETATM   23  C9  UNL     1      29.828   5.834  47.671  1.00  0.00     0.011 A 
HETATM   24 BR1  UNL     1      31.522   4.969  47.612  1.00  0.00    -0.051 Br
HETATM   25  C10 UNL     1      28.762   5.328  48.358  1.00  0.00     0.031 A 
ENDBRANCH   4  19
BRANCH  10  26
HETATM   26  O1  UNL     1      19.867   2.202  52.202  1.00  0.00    -0.356 OA
HETATM   27  C17 UNL     1      19.175   3.087  51.377  1.00  0.00     0.210 C 
ENDBRANCH  10  26
TORSDOF 4
ENDMDL
MODEL 9
REMARK VINA RESULT:      -7.7      5.650     10.644
REMARK  4 active torsions:
REMARK  status: ('A' for Active; 'I' for Inactive)
REMARK    1  A    between atoms: N1_2  and  C2_3 
REMARK    2  A    between atoms: C4_6  and  C5_7 
REMARK    3  A    between atoms: C16_19  and  O1_20 
REMARK    4  A    between atoms: C20_24  and  O2_25 
ROOT
HETATM    1  C2  UNL     1      29.757   8.016  48.756  1.00  0.00     0.129 C 
HETATM    2  N2  UNL     1      28.479   8.157  48.657  1.00  0.00    -0.268 NA
HETATM    3  C3  UNL     1      27.468   7.314  48.042  1.00  0.00     0.190 C 
HETATM    4  C4  UNL     1      27.503   5.912  48.459  1.00  0.00    -0.028 C 
HETATM    5  C11 UNL     1      28.640   5.192  48.499  1.00  0.00     0.011 C 
HETATM    6  C12 UNL     1      30.007   5.641  48.151  1.00  0.00     0.017 C 
HETATM    7  C13 UNL     1      30.537   6.870  48.247  1.00  0.00     0.022 C 
HETATM    8  C14 UNL     1      31.919   7.151  47.930  1.00  0.00     0.014 A 
HETATM    9  C15 UNL     1      32.331   8.431  47.660  1.00  0.00     0.052 A 
HETATM   10  C16 UNL     1      33.619   8.825  47.399  1.00  0.00     0.069 A 
HETATM   11  C18 UNL     1      34.627   7.889  47.395  1.00  0.00     0.039 A 
HETATM   12  C19 UNL     1      34.270   6.595  47.658  1.00  0.00     0.040 A 
HETATM   13  C20 UNL     1      32.963   6.241  47.916  1.00  0.00     0.079 A 
ENDROOT
BRANCH   1  14
HETATM   14  N1  UNL     1      30.464   9.071  49.453  1.00  0.00    -0.379 N 
HETATM   15  C1  UNL     1      29.917  10.419  49.232  1.00  0.00     0.147 C 
HETATM   16  H4  UNL     1      31.273   8.658  50.014  1.00  0.00     0.160 HD
ENDBRANCH   1  14
BRANCH  13  17
HETATM   17  O2  UNL     1      32.745   4.926  48.165  1.00  0.00    -0.355 OA
HETATM   18  C21 UNL     1      33.377   3.910  47.461  1.00  0.00     0.210 C 
ENDBRANCH  13  17
BRANCH   4  19
HETATM   19  C5  UNL     1      26.304   5.199  48.865  1.00  0.00    -0.027 A 
HETATM   20  C6  UNL     1      26.361   3.934  49.403  1.00  0.00     0.012 A 
HETATM   21  C7  UNL     1      25.276   3.185  49.806  1.00  0.00     0.002 A 
HETATM   22  C8  UNL     1      23.998   3.707  49.676  1.00  0.00     0.019 A 
HETATM   23  C9  UNL     1      23.899   4.976  49.139  1.00  0.00     0.011 A 
HETATM   24 BR1  UNL     1      22.143   5.690  48.962  1.00  0.00    -0.051 Br
HETATM   25  C10 UNL     1      25.018   5.662  48.761  1.00  0.00     0.031 A 
ENDBRANCH   4  19
BRANCH  10  26
HETATM   26  O1  UNL     1      33.998  10.129  47.132  1.00  0.00    -0.356 OA
HETATM   27  C17 UNL     1      33.102  11.186  46.992  1.00  0.00     0.210 C 
ENDBRANCH  10  26
TORSDOF 4
ENDMDL
