MODEL 1
REMARK VINA RESULT:      -9.0      0.000      0.000
REMARK  2 active torsions:
REMARK  status: ('A' for Active; 'I' for Inactive)
REMARK    1  A    between atoms: O1_2  and  C2_3 
REMARK    2  A    between atoms: C5_8  and  N3_9 
ROOT
HETATM    1  C2  UNL     1      26.729   3.468  49.982  1.00  0.00     0.139 C 
HETATM    2  C3  UNL     1      26.226   2.418  50.618  1.00  0.00     0.149 C 
HETATM    3  N1  UNL     1      26.576   1.220  51.300  1.00  0.00    -0.364 N 
HETATM    4  C4  UNL     1      26.965   0.927  52.652  1.00  0.00     0.151 A 
HETATM    5  N2  UNL     1      28.050   1.684  52.850  1.00  0.00    -0.045 NA
HETATM    6  C5  UNL     1      28.763   1.734  53.992  1.00  0.00     0.721 A 
HETATM    7  N4  UNL     1      28.332   0.953  54.997  1.00  0.00    -0.075 NA
HETATM    8  C6  UNL     1      27.244   0.197  54.789  1.00  0.00     0.147 A 
HETATM    9  C7  UNL     1      26.480   0.121  53.617  1.00  0.00     0.010 A 
HETATM   10  C8  UNL     1      25.351  -0.817  53.714  1.00  0.00     0.071 C 
HETATM   11  C9  UNL     1      24.233  -0.543  52.800  1.00  0.00    -0.022 C 
HETATM   12  C10 UNL     1      23.013  -0.284  53.239  1.00  0.00    -0.002 C 
HETATM   13  C11 UNL     1      22.046  -0.098  54.312  1.00  0.00     0.024 C 
HETATM   14  C12 UNL     1      20.784   0.183  54.688  1.00  0.00     0.134 C 
HETATM   15  O2  UNL     1      20.065   0.402  53.493  1.00  0.00    -0.363 OA
HETATM   16  C13 UNL     1      20.441   1.625  52.826  1.00  0.00     0.174 C 
HETATM   17  C14 UNL     1      20.138   1.539  51.377  1.00  0.00     0.027 C 
HETATM   18  C15 UNL     1      20.752   2.710  50.627  1.00  0.00     0.004 C 
HETATM   19  C16 UNL     1      22.225   2.563  50.721  1.00  0.00     0.026 C 
HETATM   20  C17 UNL     1      23.050   3.626  50.016  1.00  0.00     0.167 C 
HETATM   21  O3  UNL     1      24.382   3.191  50.247  1.00  0.00    -0.388 OA
HETATM   22  C18 UNL     1      25.338   4.012  49.724  1.00  0.00     0.211 C 
HETATM   23  H5  UNL     1      26.650   0.228  50.998  1.00  0.00     0.161 HD
ENDROOT
BRANCH   6  24
HETATM   24  N3  UNL     1      29.920   2.520  54.249  1.00  0.00    -0.231 N 
HETATM   25  H6  UNL     1      30.177   2.974  55.169  1.00  0.00     0.174 HD
HETATM   26  H7  UNL     1      30.563   2.640  53.414  1.00  0.00     0.174 HD
ENDBRANCH   6  24
BRANCH   1  27
HETATM   27  O1  UNL     1      27.581   4.432  49.378  1.00  0.00    -0.377 OA
HETATM   28  C1  UNL     1      26.929   5.510  48.701  1.00  0.00     0.202 C 
ENDBRANCH   1  27
TORSDOF 2
ENDMDL
MODEL 2
REMARK VINA RESULT:      -8.5      2.491      4.120
REMARK  2 active torsions:
REMARK  status: ('A' for Active; 'I' for Inactive)
REMARK    1  A    between atoms: O1_2  and  C2_3 
REMARK    2  A    between atoms: C5_8  and  N3_9 
ROOT
HETATM    1  C2  UNL     1      26.935   1.304  52.331  1.00  0.00     0.139 C 
HETATM    2  C3  UNL     1      25.675   0.957  52.107  1.00  0.00     0.149 C 
HETATM    3  N1  UNL     1      24.734  -0.096  52.273  1.00  0.00    -0.364 N 
HETATM    4  C4  UNL     1      23.883  -0.504  53.356  1.00  0.00     0.151 A 
HETATM    5  N2  UNL     1      24.729  -0.729  54.368  1.00  0.00    -0.045 NA
HETATM    6  C5  UNL     1      24.372  -1.137  55.601  1.00  0.00     0.721 A 
HETATM    7  N4  UNL     1      23.058  -1.326  55.809  1.00  0.00    -0.075 NA
HETATM    8  C6  UNL     1      22.218  -1.098  54.788  1.00  0.00     0.147 A 
HETATM    9  C7  UNL     1      22.553  -0.674  53.495  1.00  0.00     0.010 A 
HETATM   10  C8  UNL     1      21.390  -0.529  52.607  1.00  0.00     0.071 C 
HETATM   11  C9  UNL     1      21.575   0.406  51.488  1.00  0.00    -0.022 C 
HETATM   12  C10 UNL     1      20.815   1.477  51.334  1.00  0.00    -0.002 C 
HETATM   13  C11 UNL     1      19.727   2.351  51.750  1.00  0.00     0.024 C 
HETATM   14  C12 UNL     1      18.999   3.464  51.537  1.00  0.00     0.134 C 
HETATM   15  O2  UNL     1      19.538   4.062  50.378  1.00  0.00    -0.363 OA
HETATM   16  C13 UNL     1      20.852   4.620  50.591  1.00  0.00     0.174 C 
HETATM   17  C14 UNL     1      21.597   4.694  49.312  1.00  0.00     0.027 C 
HETATM   18  C15 UNL     1      23.057   5.043  49.557  1.00  0.00     0.004 C 
HETATM   19  C16 UNL     1      23.660   3.900  50.286  1.00  0.00     0.026 C 
HETATM   20  C17 UNL     1      25.136   4.025  50.621  1.00  0.00     0.167 C 
HETATM   21  O3  UNL     1      25.417   2.788  51.260  1.00  0.00    -0.388 OA
HETATM   22  C18 UNL     1      26.704   2.659  51.692  1.00  0.00     0.211 C 
HETATM   23  H5  UNL     1      24.411  -0.863  51.649  1.00  0.00     0.161 HD
ENDROOT
BRANCH   6  24
HETATM   24  N3  UNL     1      25.233  -1.390  56.705  1.00  0.00    -0.231 N 
HETATM   25  H6  UNL     1      26.251  -1.116  56.781  1.00  0.00     0.174 HD
HETATM   26  H7  UNL     1      24.773  -1.905  57.511  1.00  0.00     0.174 HD
ENDBRANCH   6  24
BRANCH   1  27
HETATM   27  O1  UNL     1      28.304   1.346  52.714  1.00  0.00    -0.377 OA
HETATM   28  C1  UNL     1      28.682   2.422  53.578  1.00  0.00     0.202 C 
ENDBRANCH   1  27
TORSDOF 2
ENDMDL
MODEL 3
REMARK VINA RESULT:      -8.0      3.242      6.664
REMARK  2 active torsions:
REMARK  status: ('A' for Active; 'I' for Inactive)
REMARK    1  A    between atoms: O1_2  and  C2_3 
REMARK    2  A    between atoms: C5_8  and  N3_9 
ROOT
HETATM    1  C2  UNL     1      20.665   3.195  51.162  1.00  0.00     0.139 C 
HETATM    2  C3  UNL     1      21.953   3.072  50.873  1.00  0.00     0.149 C 
HETATM    3  N1  UNL     1      22.978   3.540  50.004  1.00  0.00    -0.364 N 
HETATM    4  C4  UNL     1      23.845   4.686  50.020  1.00  0.00     0.151 A 
HETATM    5  N2  UNL     1      23.005   5.728  50.042  1.00  0.00    -0.045 NA
HETATM    6  C5  UNL     1      23.377   7.023  50.061  1.00  0.00     0.721 A 
HETATM    7  N4  UNL     1      24.699   7.263  50.058  1.00  0.00    -0.075 NA
HETATM    8  C6  UNL     1      25.533   6.212  50.035  1.00  0.00     0.147 A 
HETATM    9  C7  UNL     1      25.181   4.855  50.015  1.00  0.00     0.010 A 
HETATM   10  C8  UNL     1      26.341   3.951  49.982  1.00  0.00     0.071 C 
HETATM   11  C9  UNL     1      26.094   2.603  50.513  1.00  0.00    -0.022 C 
HETATM   12  C10 UNL     1      26.763   2.121  51.547  1.00  0.00    -0.002 C 
HETATM   13  C11 UNL     1      27.765   2.238  52.596  1.00  0.00     0.024 C 
HETATM   14  C12 UNL     1      28.399   1.689  53.650  1.00  0.00     0.134 C 
HETATM   15  O2  UNL     1      27.828   0.408  53.818  1.00  0.00    -0.363 OA
HETATM   16  C13 UNL     1      26.469   0.457  54.299  1.00  0.00     0.174 C 
HETATM   17  C14 UNL     1      25.740  -0.776  53.917  1.00  0.00     0.027 C 
HETATM   18  C15 UNL     1      24.252  -0.632  54.197  1.00  0.00     0.004 C 
HETATM   19  C16 UNL     1      23.738   0.418  53.282  1.00  0.00     0.026 C 
HETATM   20  C17 UNL     1      22.251   0.717  53.377  1.00  0.00     0.167 C 
HETATM   21  O3  UNL     1      22.068   1.705  52.373  1.00  0.00    -0.388 OA
HETATM   22  C18 UNL     1      20.790   2.170  52.272  1.00  0.00     0.211 C 
HETATM   23  H5  UNL     1      23.375   3.175  49.114  1.00  0.00     0.161 HD
ENDROOT
BRANCH   6  24
HETATM   24  N3  UNL     1      22.525   8.161  50.083  1.00  0.00    -0.231 N 
HETATM   25  H6  UNL     1      22.604   8.990  50.735  1.00  0.00     0.174 HD
HETATM   26  H7  UNL     1      21.748   8.141  49.361  1.00  0.00     0.174 HD
ENDBRANCH   6  24
BRANCH   1  27
HETATM   27  O1  UNL     1      19.292   3.562  51.201  1.00  0.00    -0.377 OA
HETATM   28  C1  UNL     1      18.366   2.505  51.467  1.00  0.00     0.202 C 
ENDBRANCH   1  27
TORSDOF 2
ENDMDL
MODEL 4
REMARK VINA RESULT:      -8.0      2.564      5.212
REMARK  2 active torsions:
REMARK  status: ('A' for Active; 'I' for Inactive)
REMARK    1  A    between atoms: O1_2  and  C2_3 
REMARK    2  A    between atoms: C5_8  and  N3_9 
ROOT
HETATM    1  C2  UNL     1      26.313   1.389  53.261  1.00  0.00     0.139 C 
HETATM    2  C3  UNL     1      25.198   2.072  53.033  1.00  0.00     0.149 C 
HETATM    3  N1  UNL     1      24.698   3.351  52.666  1.00  0.00    -0.364 N 
HETATM    4  C4  UNL     1      24.487   4.009  51.406  1.00  0.00     0.151 A 
HETATM    5  N2  UNL     1      25.696   4.011  50.834  1.00  0.00    -0.045 NA
HETATM    6  C5  UNL     1      25.981   4.533  49.624  1.00  0.00     0.721 A 
HETATM    7  N4  UNL     1      24.954   5.090  48.959  1.00  0.00    -0.075 NA
HETATM    8  C6  UNL     1      23.746   5.083  49.542  1.00  0.00     0.147 A 
HETATM    9  C7  UNL     1      23.415   4.550  50.795  1.00  0.00     0.010 A 
HETATM   10  C8  UNL     1      21.996   4.717  51.145  1.00  0.00     0.071 C 
HETATM   11  C9  UNL     1      21.475   3.741  52.113  1.00  0.00    -0.022 C 
HETATM   12  C10 UNL     1      20.477   2.925  51.820  1.00  0.00    -0.002 C 
HETATM   13  C11 UNL     1      19.470   2.402  50.907  1.00  0.00     0.024 C 
HETATM   14  C12 UNL     1      18.466   1.535  50.674  1.00  0.00     0.134 C 
HETATM   15  O2  UNL     1      18.325   0.781  51.859  1.00  0.00    -0.363 OA
HETATM   16  C13 UNL     1      19.429  -0.119  52.089  1.00  0.00     0.174 C 
HETATM   17  C14 UNL     1      19.551  -0.431  53.533  1.00  0.00     0.027 C 
HETATM   18  C15 UNL     1      20.849  -1.171  53.817  1.00  0.00     0.004 C 
HETATM   19  C16 UNL     1      21.958  -0.227  53.535  1.00  0.00     0.026 C 
HETATM   20  C17 UNL     1      23.362  -0.755  53.773  1.00  0.00     0.167 C 
HETATM   21  O3  UNL     1      24.175   0.368  53.462  1.00  0.00    -0.388 OA
HETATM   22  C18 UNL     1      25.514   0.139  53.575  1.00  0.00     0.211 C 
HETATM   23  H5  UNL     1      24.353   4.163  53.217  1.00  0.00     0.161 HD
ENDROOT
BRANCH   6  24
HETATM   24  N3  UNL     1      27.247   4.560  48.976  1.00  0.00    -0.231 N 
HETATM   25  H6  UNL     1      28.152   4.923  49.386  1.00  0.00     0.174 HD
HETATM   26  H7  UNL     1      27.243   4.169  47.990  1.00  0.00     0.174 HD
ENDBRANCH   6  24
BRANCH   1  27
HETATM   27  O1  UNL     1      27.661   0.972  53.427  1.00  0.00    -0.377 OA
HETATM   28  C1  UNL     1      27.970   0.319  54.661  1.00  0.00     0.202 C 
ENDBRANCH   1  27
TORSDOF 2
ENDMDL
MODEL 5
REMARK VINA RESULT:      -7.5      3.019      5.839
REMARK  2 active torsions:
REMARK  status: ('A' for Active; 'I' for Inactive)
REMARK    1  A    between atoms: O1_2  and  C2_3 
REMARK    2  A    between atoms: C5_8  and  N3_9 
ROOT
HETATM    1  C2  UNL     1      26.002   3.971  49.832  1.00  0.00     0.139 C 
HETATM    2  C3  UNL     1      24.827   3.933  50.446  1.00  0.00     0.149 C 
HETATM    3  N1  UNL     1      23.596   4.627  50.600  1.00  0.00    -0.364 N 
HETATM    4  C4  UNL     1      22.373   4.657  49.845  1.00  0.00     0.151 A 
HETATM    5  N2  UNL     1      22.756   5.041  48.622  1.00  0.00    -0.045 NA
HETATM    6  C5  UNL     1      21.932   5.209  47.569  1.00  0.00     0.721 A 
HETATM    7  N4  UNL     1      20.628   4.966  47.788  1.00  0.00    -0.075 NA
HETATM    8  C6  UNL     1      20.255   4.583  49.019  1.00  0.00     0.147 A 
HETATM    9  C7  UNL     1      21.083   4.398  50.134  1.00  0.00     0.010 A 
HETATM   10  C8  UNL     1      20.353   3.982  51.341  1.00  0.00     0.071 C 
HETATM   11  C9  UNL     1      21.156   3.252  52.333  1.00  0.00    -0.022 C 
HETATM   12  C10 UNL     1      20.862   2.017  52.704  1.00  0.00    -0.002 C 
HETATM   13  C11 UNL     1      20.038   0.818  52.639  1.00  0.00     0.024 C 
HETATM   14  C12 UNL     1      19.803  -0.441  53.055  1.00  0.00     0.134 C 
HETATM   15  O2  UNL     1      20.830  -0.740  53.978  1.00  0.00    -0.363 OA
HETATM   16  C13 UNL     1      22.123  -0.884  53.355  1.00  0.00     0.174 C 
HETATM   17  C14 UNL     1      23.203  -0.613  54.333  1.00  0.00     0.027 C 
HETATM   18  C15 UNL     1      24.551  -0.517  53.636  1.00  0.00     0.004 C 
HETATM   19  C16 UNL     1      24.507   0.687  52.770  1.00  0.00     0.026 C 
HETATM   20  C17 UNL     1      25.772   0.992  51.984  1.00  0.00     0.167 C 
HETATM   21  O3  UNL     1      25.435   2.194  51.306  1.00  0.00    -0.388 OA
HETATM   22  C18 UNL     1      26.420   2.673  50.494  1.00  0.00     0.211 C 
HETATM   23  H5  UNL     1      23.250   5.311  51.304  1.00  0.00     0.161 HD
ENDROOT
BRANCH   6  24
HETATM   24  N3  UNL     1      22.290   5.615  46.254  1.00  0.00    -0.231 N 
HETATM   25  H6  UNL     1      22.296   6.606  45.885  1.00  0.00     0.174 HD
HETATM   26  H7  UNL     1      22.572   4.820  45.611  1.00  0.00     0.174 HD
ENDBRANCH   6  24
BRANCH   1  27
HETATM   27  O1  UNL     1      27.129   4.317  49.038  1.00  0.00    -0.377 OA
HETATM   28  C1  UNL     1      27.184   5.672  48.582  1.00  0.00     0.202 C 
ENDBRANCH   1  27
TORSDOF 2
ENDMDL
MODEL 6
REMARK VINA RESULT:      -7.5      3.830      8.285
REMARK  2 active torsions:
REMARK  status: ('A' for Active; 'I' for Inactive)
REMARK    1  A    between atoms: O1_2  and  C2_3 
REMARK    2  A    between atoms: C5_8  and  N3_9 
ROOT
HETATM    1  C2  UNL     1      19.634   0.177  52.661  1.00  0.00     0.139 C 
HETATM    2  C3  UNL     1      20.310   0.715  51.654  1.00  0.00     0.149 C 
HETATM    3  N1  UNL     1      20.165   1.330  50.380  1.00  0.00    -0.364 N 
HETATM    4  C4  UNL     1      19.897   2.676  49.954  1.00  0.00     0.151 A 
HETATM    5  N2  UNL     1      18.734   2.978  50.541  1.00  0.00    -0.045 NA
HETATM    6  C5  UNL     1      18.087   4.154  50.422  1.00  0.00     0.721 A 
HETATM    7  N4  UNL     1      18.677   5.082  49.648  1.00  0.00    -0.075 NA
HETATM    8  C6  UNL     1      19.843   4.769  49.063  1.00  0.00     0.147 A 
HETATM    9  C7  UNL     1      20.542   3.558  49.166  1.00  0.00     0.010 A 
HETATM   10  C8  UNL     1      21.791   3.536  48.389  1.00  0.00     0.071 C 
HETATM   11  C9  UNL     1      22.806   2.590  48.870  1.00  0.00    -0.022 C 
HETATM   12  C10 UNL     1      24.004   2.985  49.268  1.00  0.00    -0.002 C 
HETATM   13  C11 UNL     1      24.997   4.020  49.520  1.00  0.00     0.024 C 
HETATM   14  C12 UNL     1      26.229   4.353  49.949  1.00  0.00     0.134 C 
HETATM   15  O2  UNL     1      26.842   3.142  50.338  1.00  0.00    -0.363 OA
HETATM   16  C13 UNL     1      26.267   2.579  51.536  1.00  0.00     0.174 C 
HETATM   17  C14 UNL     1      26.494   1.114  51.581  1.00  0.00     0.027 C 
HETATM   18  C15 UNL     1      25.686   0.477  52.700  1.00  0.00     0.004 C 
HETATM   19  C16 UNL     1      24.254   0.632  52.344  1.00  0.00     0.026 C 
HETATM   20  C17 UNL     1      23.254   0.043  53.325  1.00  0.00     0.167 C 
HETATM   21  O3  UNL     1      22.008   0.308  52.696  1.00  0.00    -0.388 OA
HETATM   22  C18 UNL     1      20.922  -0.110  53.407  1.00  0.00     0.211 C 
HETATM   23  H5  UNL     1      20.208   0.965  49.407  1.00  0.00     0.161 HD
ENDROOT
BRANCH   6  24
HETATM   24  N3  UNL     1      16.851   4.520  51.023  1.00  0.00    -0.231 N 
HETATM   25  H6  UNL     1      16.723   5.182  51.837  1.00  0.00     0.174 HD
HETATM   26  H7  UNL     1      15.999   4.065  50.585  1.00  0.00     0.174 HD
ENDBRANCH   6  24
BRANCH   1  27
HETATM   27  O1  UNL     1      18.627  -0.317  53.534  1.00  0.00    -0.377 OA
HETATM   28  C1  UNL     1      17.834  -1.395  53.031  1.00  0.00     0.202 C 
ENDBRANCH   1  27
TORSDOF 2
ENDMDL
MODEL 7
REMARK VINA RESULT:      -7.3      3.921      6.756
REMARK  2 active torsions:
REMARK  status: ('A' for Active; 'I' for Inactive)
REMARK    1  A    between atoms: O1_2  and  C2_3 
REMARK    2  A    between atoms: C5_8  and  N3_9 
ROOT
HETATM    1  C2  UNL     1      20.920   4.221  48.732  1.00  0.00     0.139 C 
HETATM    2  C3  UNL     1      21.163   3.617  49.888  1.00  0.00     0.149 C 
HETATM    3  N1  UNL     1      20.541   3.079  51.049  1.00  0.00    -0.364 N 
HETATM    4  C4  UNL     1      19.939   1.810  51.353  1.00  0.00     0.151 A 
HETATM    5  N2  UNL     1      18.972   1.682  50.438  1.00  0.00    -0.045 NA
HETATM    6  C5  UNL     1      18.133   0.631  50.337  1.00  0.00     0.721 A 
HETATM    7  N4  UNL     1      18.301  -0.352  51.239  1.00  0.00    -0.075 NA
HETATM    8  C6  UNL     1      19.273  -0.213  52.153  1.00  0.00     0.147 A 
HETATM    9  C7  UNL     1      20.161   0.864  52.285  1.00  0.00     0.010 A 
HETATM   10  C8  UNL     1      21.104   0.709  53.404  1.00  0.00     0.071 C 
HETATM   11  C9  UNL     1      22.359   1.460  53.267  1.00  0.00    -0.022 C 
HETATM   12  C10 UNL     1      23.538   0.861  53.243  1.00  0.00    -0.002 C 
HETATM   13  C11 UNL     1      24.375  -0.330  53.287  1.00  0.00     0.024 C 
HETATM   14  C12 UNL     1      25.606  -0.874  53.245  1.00  0.00     0.134 C 
HETATM   15  O2  UNL     1      26.499   0.206  53.078  1.00  0.00    -0.363 OA
HETATM   16  C13 UNL     1      26.413   0.812  51.772  1.00  0.00     0.174 C 
HETATM   17  C14 UNL     1      26.883   2.217  51.820  1.00  0.00     0.027 C 
HETATM   18  C15 UNL     1      26.566   2.938  50.519  1.00  0.00     0.004 C 
HETATM   19  C16 UNL     1      25.088   3.031  50.423  1.00  0.00     0.026 C 
HETATM   20  C17 UNL     1      24.542   3.740  49.196  1.00  0.00     0.167 C 
HETATM   21  O3  UNL     1      23.138   3.704  49.414  1.00  0.00    -0.388 OA
HETATM   22  C18 UNL     1      22.401   4.268  48.415  1.00  0.00     0.211 C 
HETATM   23  H5  UNL     1      20.350   3.467  51.995  1.00  0.00     0.161 HD
ENDROOT
BRANCH   6  24
HETATM   24  N3  UNL     1      17.093   0.451  49.385  1.00  0.00    -0.231 N 
HETATM   25  H6  UNL     1      17.144  -0.134  48.506  1.00  0.00     0.174 HD
HETATM   26  H7  UNL     1      16.194   0.966  49.614  1.00  0.00     0.174 HD
ENDBRANCH   6  24
BRANCH   1  27
HETATM   27  O1  UNL     1      20.318   4.841  47.604  1.00  0.00    -0.377 OA
HETATM   28  C1  UNL     1      20.291   6.271  47.613  1.00  0.00     0.202 C 
ENDBRANCH   1  27
TORSDOF 2
ENDMDL
MODEL 8
REMARK VINA RESULT:      -7.0      4.809      8.811
REMARK  2 active torsions:
REMARK  status: ('A' for Active; 'I' for Inactive)
REMARK    1  A    between atoms: O1_2  and  C2_3 
REMARK    2  A    between atoms: C5_8  and  N3_9 
ROOT
HETATM    1  C2  UNL     1      17.144  -0.060  51.501  1.00  0.00     0.139 C 
HETATM    2  C3  UNL     1      18.239   0.340  50.868  1.00  0.00     0.149 C 
HETATM    3  N1  UNL     1      18.708   0.957  49.676  1.00  0.00    -0.364 N 
HETATM    4  C4  UNL     1      18.854   2.325  49.258  1.00  0.00     0.151 A 
HETATM    5  N2  UNL     1      17.620   2.831  49.364  1.00  0.00    -0.045 NA
HETATM    6  C5  UNL     1      17.275   4.100  49.072  1.00  0.00     0.721 A 
HETATM    7  N4  UNL     1      18.264   4.902  48.643  1.00  0.00    -0.075 NA
HETATM    8  C6  UNL     1      19.498   4.385  48.539  1.00  0.00     0.147 A 
HETATM    9  C7  UNL     1      19.891   3.072  48.834  1.00  0.00     0.010 A 
HETATM   10  C8  UNL     1      21.322   2.825  48.602  1.00  0.00     0.071 C 
HETATM   11  C9  UNL     1      21.898   1.721  49.384  1.00  0.00    -0.022 C 
HETATM   12  C10 UNL     1      22.891   1.907  50.237  1.00  0.00    -0.002 C 
HETATM   13  C11 UNL     1      23.861   2.756  50.914  1.00  0.00     0.024 C 
HETATM   14  C12 UNL     1      24.863   2.874  51.806  1.00  0.00     0.134 C 
HETATM   15  O2  UNL     1      25.066   1.579  52.331  1.00  0.00    -0.363 OA
HETATM   16  C13 UNL     1      23.984   1.138  53.177  1.00  0.00     0.174 C 
HETATM   17  C14 UNL     1      23.931  -0.343  53.222  1.00  0.00     0.027 C 
HETATM   18  C15 UNL     1      22.656  -0.817  53.901  1.00  0.00     0.004 C 
HETATM   19  C16 UNL     1      21.525  -0.419  53.028  1.00  0.00     0.026 C 
HETATM   20  C17 UNL     1      20.138  -0.815  53.508  1.00  0.00     0.167 C 
HETATM   21  O3  UNL     1      19.300  -0.343  52.462  1.00  0.00    -0.388 OA
HETATM   22  C18 UNL     1      17.970  -0.558  52.670  1.00  0.00     0.211 C 
HETATM   23  H5  UNL     1      19.068   0.579  48.776  1.00  0.00     0.161 HD
ENDROOT
BRANCH   6  24
HETATM   24  N3  UNL     1      15.981   4.682  49.167  1.00  0.00    -0.231 N 
HETATM   25  H6  UNL     1      15.730   5.568  49.687  1.00  0.00     0.174 HD
HETATM   26  H7  UNL     1      15.221   4.149  48.654  1.00  0.00     0.174 HD
ENDBRANCH   6  24
BRANCH   1  27
HETATM   27  O1  UNL     1      15.809  -0.361  51.885  1.00  0.00    -0.377 OA
HETATM   28  C1  UNL     1      15.142   0.629  52.673  1.00  0.00     0.202 C 
ENDBRANCH   1  27
TORSDOF 2
ENDMDL
MODEL 9
REMARK VINA RESULT:      -6.9      3.651      6.244
REMARK  2 active torsions:
REMARK  status: ('A' for Active; 'I' for Inactive)
REMARK    1  A    between atoms: O1_2  and  C2_3 
REMARK    2  A    between atoms: C5_8  and  N3_9 
ROOT
HETATM    1  C2  UNL     1      26.842   4.666  49.322  1.00  0.00     0.139 C 
HETATM    2  C3  UNL     1      25.689   4.982  49.897  1.00  0.00     0.149 C 
HETATM    3  N1  UNL     1      24.754   6.039  50.077  1.00  0.00    -0.364 N 
HETATM    4  C4  UNL     1      23.657   6.537  49.293  1.00  0.00     0.151 A 
HETATM    5  N2  UNL     1      24.216   6.859  48.121  1.00  0.00    -0.045 NA
HETATM    6  C5  UNL     1      23.557   7.374  47.064  1.00  0.00     0.721 A 
HETATM    7  N4  UNL     1      22.237   7.571  47.223  1.00  0.00    -0.075 NA
HETATM    8  C6  UNL     1      21.687   7.246  48.403  1.00  0.00     0.147 A 
HETATM    9  C7  UNL     1      22.341   6.709  49.520  1.00  0.00     0.010 A 
HETATM   10  C8  UNL     1      21.446   6.475  50.664  1.00  0.00     0.071 C 
HETATM   11  C9  UNL     1      21.900   5.444  51.608  1.00  0.00    -0.022 C 
HETATM   12  C10 UNL     1      21.188   4.358  51.859  1.00  0.00    -0.002 C 
HETATM   13  C11 UNL     1      20.016   3.516  51.663  1.00  0.00     0.024 C 
HETATM   14  C12 UNL     1      19.350   2.383  51.957  1.00  0.00     0.134 C 
HETATM   15  O2  UNL     1      20.163   1.687  52.878  1.00  0.00    -0.363 OA
HETATM   16  C13 UNL     1      21.366   1.161  52.282  1.00  0.00     0.174 C 
HETATM   17  C14 UNL     1      22.417   0.976  53.311  1.00  0.00     0.027 C 
HETATM   18  C15 UNL     1      23.757   0.663  52.665  1.00  0.00     0.004 C 
HETATM   19  C16 UNL     1      24.169   1.872  51.909  1.00  0.00     0.026 C 
HETATM   20  C17 UNL     1      25.505   1.788  51.191  1.00  0.00     0.167 C 
HETATM   21  O3  UNL     1      25.630   3.081  50.615  1.00  0.00    -0.388 OA
HETATM   22  C18 UNL     1      26.763   3.258  49.877  1.00  0.00     0.211 C 
HETATM   23  H5  UNL     1      24.617   6.744  50.829  1.00  0.00     0.161 HD
ENDROOT
BRANCH   6  24
HETATM   24  N3  UNL     1      24.106   7.733  45.801  1.00  0.00    -0.231 N 
HETATM   25  H6  UNL     1      25.087   7.529  45.464  1.00  0.00     0.174 HD
HETATM   26  H7  UNL     1      23.435   8.252  45.164  1.00  0.00     0.174 HD
ENDBRANCH   6  24
BRANCH   1  27
HETATM   27  O1  UNL     1      28.063   4.669  48.595  1.00  0.00    -0.377 OA
HETATM   28  C1  UNL     1      28.560   5.953  48.208  1.00  0.00     0.202 C 
ENDBRANCH   1  27
TORSDOF 2
ENDMDL
