MODEL 1
REMARK VINA RESULT:      -8.3      0.000      0.000
REMARK  7 active torsions:
REMARK  status: ('A' for Active; 'I' for Inactive)
REMARK    1  A    between atoms: C1_2  and  N1_3 
REMARK    2  A    between atoms: C1_2  and  N3_12 
REMARK    3  A    between atoms: N1_3  and  C2_4 
REMARK    4  A    between atoms: C2_4  and  C3_5 
REMARK    5  A    between atoms: C3_5  and  N2_6 
REMARK    6  A    between atoms: N3_12  and  C8_13 
REMARK    7  A    between atoms: C13_20  and  C14_21 
ROOT
HETATM    1  C8  UNL     1      27.424   5.096  48.652  1.00  0.00     0.035 A 
HETATM    2  C9  UNL     1      26.514   6.122  48.533  1.00  0.00     0.032 A 
HETATM    3  C10 UNL     1      26.885   7.402  48.190  1.00  0.00     0.035 A 
HETATM    4  C11 UNL     1      28.242   7.611  47.966  1.00  0.00     0.070 A 
HETATM    5  N4  UNL     1      28.616   8.867  47.629  1.00  0.00    -0.241 NA
HETATM    6  C12 UNL     1      29.938   9.132  47.399  1.00  0.00     0.234 A 
HETATM    7  N5  UNL     1      30.789   8.103  47.526  1.00  0.00    -0.240 NA
HETATM    8  C13 UNL     1      30.447   6.863  47.854  1.00  0.00     0.082 A 
HETATM    9  C19 UNL     1      29.123   6.563  48.092  1.00  0.00     0.025 A 
HETATM   10  C20 UNL     1      28.774   5.276  48.435  1.00  0.00     0.045 A 
ENDROOT
BRANCH   1  11
HETATM   11  N3  UNL     1      26.925   3.819  49.023  1.00  0.00    -0.333 N 
HETATM   12  H14 UNL     1      27.193   3.063  48.326  1.00  0.00     0.168 HD
BRANCH  11  13
HETATM   13  C1  UNL     1      26.138   3.471  50.184  1.00  0.00     0.172 C 
HETATM   14  S1  UNL     1      24.544   3.381  49.842  1.00  0.00    -0.041 SA
BRANCH  13  15
HETATM   15  N1  UNL     1      26.767   3.256  51.433  1.00  0.00    -0.365 N 
HETATM   16  H1  UNL     1      27.136   4.078  51.946  1.00  0.00     0.161 HD
BRANCH  15  17
HETATM   17  C2  UNL     1      26.869   1.894  51.928  1.00  0.00     0.141 C 
BRANCH  17  18
HETATM   18  C3  UNL     1      27.925   1.771  52.993  1.00  0.00     0.136 C 
BRANCH  18  19
HETATM   19  N2  UNL     1      27.633   0.695  53.882  1.00  0.00    -0.407 N 
HETATM   20  C4  UNL     1      28.731   0.160  54.617  1.00  0.00     0.143 C 
HETATM   21  C5  UNL     1      29.422  -0.860  53.723  1.00  0.00     0.187 C 
HETATM   22  O1  UNL     1      28.534  -1.893  53.507  1.00  0.00    -0.388 OA
HETATM   23  C6  UNL     1      27.389  -1.516  52.854  1.00  0.00     0.187 C 
HETATM   24  C7  UNL     1      26.715  -0.287  53.396  1.00  0.00     0.143 C 
ENDBRANCH  18  19
ENDBRANCH  17  18
ENDBRANCH  15  17
ENDBRANCH  13  15
ENDBRANCH  11  13
ENDBRANCH   1  11
BRANCH   8  25
HETATM   25  C14 UNL     1      31.539   5.871  47.949  1.00  0.00     0.006 C 
HETATM   26  C15 UNL     1      32.374   5.780  48.978  1.00  0.00    -0.011 C 
HETATM   27  C16 UNL     1      33.649   5.676  48.624  1.00  0.00     0.032 C 
HETATM   28  C17 UNL     1      33.356   4.690  47.539  1.00  0.00     0.012 C 
HETATM   29 BR1  UNL     1      34.225   3.283  46.517  1.00  0.00    -0.051 Br
HETATM   30  C18 UNL     1      32.075   4.783  47.105  1.00  0.00     0.033 C 
ENDBRANCH   8  25
TORSDOF 7
ENDMDL
MODEL 2
REMARK VINA RESULT:      -8.3      4.497      9.097
REMARK  7 active torsions:
REMARK  status: ('A' for Active; 'I' for Inactive)
REMARK    1  A    between atoms: C1_2  and  N1_3 
REMARK    2  A    between atoms: C1_2  and  N3_12 
REMARK    3  A    between atoms: N1_3  and  C2_4 
REMARK    4  A    between atoms: C2_4  and  C3_5 
REMARK    5  A    between atoms: C3_5  and  N2_6 
REMARK    6  A    between atoms: N3_12  and  C8_13 
REMARK    7  A    between atoms: C13_20  and  C14_21 
ROOT
HETATM    1  C8  UNL     1      21.599   1.110  51.663  1.00  0.00     0.035 A 
HETATM    2  C9  UNL     1      20.459   0.567  52.210  1.00  0.00     0.032 A 
HETATM    3  C10 UNL     1      20.487  -0.257  53.312  1.00  0.00     0.035 A 
HETATM    4  C11 UNL     1      21.740  -0.519  53.853  1.00  0.00     0.070 A 
HETATM    5  N4  UNL     1      21.779  -1.330  54.935  1.00  0.00    -0.241 NA
HETATM    6  C12 UNL     1      22.985  -1.625  55.508  1.00  0.00     0.234 A 
HETATM    7  N5  UNL     1      24.069  -1.075  54.944  1.00  0.00    -0.240 NA
HETATM    8  C13 UNL     1      24.059  -0.277  53.883  1.00  0.00     0.082 A 
HETATM    9  C19 UNL     1      22.860   0.039  53.282  1.00  0.00     0.025 A 
HETATM   10  C20 UNL     1      22.854   0.866  52.181  1.00  0.00     0.045 A 
ENDROOT
BRANCH   1  11
HETATM   11  N3  UNL     1      21.447   1.937  50.520  1.00  0.00    -0.333 N 
HETATM   12  H14 UNL     1      21.481   1.384  49.613  1.00  0.00     0.168 HD
BRANCH  11  13
HETATM   13  C1  UNL     1      21.259   3.370  50.473  1.00  0.00     0.172 C 
HETATM   14  S1  UNL     1      20.367   3.830  49.185  1.00  0.00    -0.041 SA
BRANCH  13  15
HETATM   15  N1  UNL     1      21.826   4.195  51.473  1.00  0.00    -0.365 N 
HETATM   16  H1  UNL     1      21.677   3.937  52.466  1.00  0.00     0.161 HD
BRANCH  15  17
HETATM   17  C2  UNL     1      22.582   5.363  51.056  1.00  0.00     0.141 C 
BRANCH  17  18
HETATM   18  C3  UNL     1      24.064   5.102  51.090  1.00  0.00     0.136 C 
BRANCH  18  19
HETATM   19  N2  UNL     1      24.495   4.441  49.903  1.00  0.00    -0.407 N 
HETATM   20  C4  UNL     1      25.021   3.126  50.061  1.00  0.00     0.143 C 
HETATM   21  C5  UNL     1      26.491   3.267  50.430  1.00  0.00     0.187 C 
HETATM   22  O1  UNL     1      27.137   3.838  49.353  1.00  0.00    -0.388 OA
HETATM   23  C6  UNL     1      26.693   5.096  49.040  1.00  0.00     0.187 C 
HETATM   24  C7  UNL     1      25.199   5.248  48.957  1.00  0.00     0.143 C 
ENDBRANCH  18  19
ENDBRANCH  17  18
ENDBRANCH  15  17
ENDBRANCH  13  15
ENDBRANCH  11  13
ENDBRANCH   1  11
BRANCH   8  25
HETATM   25  C14 UNL     1      25.367   0.221  53.408  1.00  0.00     0.006 C 
HETATM   26  C15 UNL     1      26.138  -0.424  52.541  1.00  0.00    -0.011 C 
HETATM   27  C16 UNL     1      27.413  -0.489  52.905  1.00  0.00     0.032 C 
HETATM   28  C17 UNL     1      27.451   0.940  53.340  1.00  0.00     0.012 C 
HETATM   29 BR1  UNL     1      28.716   2.392  53.612  1.00  0.00    -0.051 Br
HETATM   30  C18 UNL     1      26.217   1.405  53.654  1.00  0.00     0.033 C 
ENDBRANCH   8  25
TORSDOF 7
ENDMDL
MODEL 3
REMARK VINA RESULT:      -8.0      5.440      8.896
REMARK  7 active torsions:
REMARK  status: ('A' for Active; 'I' for Inactive)
REMARK    1  A    between atoms: C1_2  and  N1_3 
REMARK    2  A    between atoms: C1_2  and  N3_12 
REMARK    3  A    between atoms: N1_3  and  C2_4 
REMARK    4  A    between atoms: C2_4  and  C3_5 
REMARK    5  A    between atoms: C3_5  and  N2_6 
REMARK    6  A    between atoms: N3_12  and  C8_13 
REMARK    7  A    between atoms: C13_20  and  C14_21 
ROOT
HETATM    1  C8  UNL     1      23.163   4.565  52.364  1.00  0.00     0.035 A 
HETATM    2  C9  UNL     1      21.791   4.570  52.252  1.00  0.00     0.032 A 
HETATM    3  C10 UNL     1      21.040   3.419  52.320  1.00  0.00     0.035 A 
HETATM    4  C11 UNL     1      21.744   2.235  52.509  1.00  0.00     0.070 A 
HETATM    5  N4  UNL     1      21.014   1.097  52.575  1.00  0.00    -0.241 NA
HETATM    6  C12 UNL     1      21.653  -0.098  52.758  1.00  0.00     0.234 A 
HETATM    7  N5  UNL     1      22.989  -0.057  52.862  1.00  0.00    -0.240 NA
HETATM    8  C13 UNL     1      23.727   1.045  52.801  1.00  0.00     0.082 A 
HETATM    9  C19 UNL     1      23.114   2.265  52.617  1.00  0.00     0.025 A 
HETATM   10  C20 UNL     1      23.885   3.405  52.552  1.00  0.00     0.045 A 
ENDROOT
BRANCH   1  11
HETATM   11  N3  UNL     1      23.831   5.814  52.268  1.00  0.00    -0.333 N 
HETATM   12  H14 UNL     1      23.863   6.328  53.197  1.00  0.00     0.168 HD
BRANCH  11  13
HETATM   13  C1  UNL     1      24.437   6.415  51.100  1.00  0.00     0.172 C 
HETATM   14  S1  UNL     1      23.811   7.887  50.773  1.00  0.00    -0.041 SA
BRANCH  13  15
HETATM   15  N1  UNL     1      25.446   5.726  50.387  1.00  0.00    -0.365 N 
HETATM   16  H1  UNL     1      26.367   5.594  50.844  1.00  0.00     0.161 HD
BRANCH  15  17
HETATM   17  C2  UNL     1      25.142   5.246  49.051  1.00  0.00     0.141 C 
BRANCH  17  18
HETATM   18  C3  UNL     1      24.132   4.130  49.082  1.00  0.00     0.136 C 
BRANCH  18  19
HETATM   19  N2  UNL     1      23.165   4.285  48.046  1.00  0.00    -0.407 N 
HETATM   20  C4  UNL     1      22.594   5.582  47.895  1.00  0.00     0.143 C 
HETATM   21  C5  UNL     1      21.444   5.689  48.886  1.00  0.00     0.187 C 
HETATM   22  O1  UNL     1      20.483   4.774  48.507  1.00  0.00    -0.388 OA
HETATM   23  C6  UNL     1      20.909   3.471  48.545  1.00  0.00     0.187 C 
HETATM   24  C7  UNL     1      22.237   3.210  47.890  1.00  0.00     0.143 C 
ENDBRANCH  18  19
ENDBRANCH  17  18
ENDBRANCH  15  17
ENDBRANCH  13  15
ENDBRANCH  11  13
ENDBRANCH   1  11
BRANCH   8  25
HETATM   25  C14 UNL     1      25.190   0.878  52.930  1.00  0.00     0.006 C 
HETATM   26  C15 UNL     1      25.992   0.538  51.927  1.00  0.00    -0.011 C 
HETATM   27  C16 UNL     1      26.854  -0.424  52.234  1.00  0.00     0.032 C 
HETATM   28  C17 UNL     1      27.185   0.179  53.562  1.00  0.00     0.012 C 
HETATM   29 BR1  UNL     1      28.606   0.195  54.888  1.00  0.00    -0.051 Br
HETATM   30  C18 UNL     1      26.189   0.979  54.014  1.00  0.00     0.033 C 
ENDBRANCH   8  25
TORSDOF 7
ENDMDL
MODEL 4
REMARK VINA RESULT:      -8.0      4.395      9.117
REMARK  7 active torsions:
REMARK  status: ('A' for Active; 'I' for Inactive)
REMARK    1  A    between atoms: C1_2  and  N1_3 
REMARK    2  A    between atoms: C1_2  and  N3_12 
REMARK    3  A    between atoms: N1_3  and  C2_4 
REMARK    4  A    between atoms: C2_4  and  C3_5 
REMARK    5  A    between atoms: C3_5  and  N2_6 
REMARK    6  A    between atoms: N3_12  and  C8_13 
REMARK    7  A    between atoms: C13_20  and  C14_21 
ROOT
HETATM    1  C8  UNL     1      23.373   4.957  52.031  1.00  0.00     0.035 A 
HETATM    2  C9  UNL     1      22.004   5.048  51.936  1.00  0.00     0.032 A 
HETATM    3  C10 UNL     1      21.177   3.959  52.098  1.00  0.00     0.035 A 
HETATM    4  C11 UNL     1      21.802   2.747  52.368  1.00  0.00     0.070 A 
HETATM    5  N4  UNL     1      20.998   1.670  52.527  1.00  0.00    -0.241 NA
HETATM    6  C12 UNL     1      21.557   0.451  52.792  1.00  0.00     0.234 A 
HETATM    7  N5  UNL     1      22.894   0.407  52.876  1.00  0.00    -0.240 NA
HETATM    8  C13 UNL     1      23.705   1.448  52.724  1.00  0.00     0.082 A 
HETATM    9  C19 UNL     1      23.173   2.691  52.457  1.00  0.00     0.025 A 
HETATM   10  C20 UNL     1      24.018   3.767  52.297  1.00  0.00     0.045 A 
ENDROOT
BRANCH   1  11
HETATM   11  N3  UNL     1      24.123   6.146  51.833  1.00  0.00    -0.333 N 
HETATM   12  H14 UNL     1      24.083   6.794  52.674  1.00  0.00     0.168 HD
BRANCH  11  13
HETATM   13  C1  UNL     1      24.890   6.534  50.671  1.00  0.00     0.172 C 
HETATM   14  S1  UNL     1      24.291   5.888  49.296  1.00  0.00    -0.041 SA
BRANCH  13  15
HETATM   15  N1  UNL     1      26.016   7.379  50.810  1.00  0.00    -0.365 N 
HETATM   16  H1  UNL     1      26.508   7.396  51.723  1.00  0.00     0.161 HD
BRANCH  15  17
HETATM   17  C2  UNL     1      26.421   8.182  49.669  1.00  0.00     0.141 C 
BRANCH  17  18
HETATM   18  C3  UNL     1      27.521   9.143  50.033  1.00  0.00     0.136 C 
BRANCH  18  19
HETATM   19  N2  UNL     1      28.325   9.455  48.898  1.00  0.00    -0.407 N 
HETATM   20  C4  UNL     1      28.627   8.378  48.015  1.00  0.00     0.143 C 
HETATM   21  C5  UNL     1      29.837   7.651  48.583  1.00  0.00     0.187 C 
HETATM   22  O1  UNL     1      30.904   8.525  48.540  1.00  0.00    -0.388 OA
HETATM   23  C6  UNL     1      30.734   9.651  49.303  1.00  0.00     0.187 C 
HETATM   24  C7  UNL     1      29.414  10.351  49.129  1.00  0.00     0.143 C 
ENDBRANCH  18  19
ENDBRANCH  17  18
ENDBRANCH  15  17
ENDBRANCH  13  15
ENDBRANCH  11  13
ENDBRANCH   1  11
BRANCH   8  25
HETATM   25  C14 UNL     1      25.155   1.190  52.848  1.00  0.00     0.006 C 
HETATM   26  C15 UNL     1      25.935   0.822  51.837  1.00  0.00    -0.011 C 
HETATM   27  C16 UNL     1      26.737  -0.196  52.124  1.00  0.00     0.032 C 
HETATM   28  C17 UNL     1      27.104   0.360  53.463  1.00  0.00     0.012 C 
HETATM   29 BR1  UNL     1      28.524   0.264  54.788  1.00  0.00    -0.051 Br
HETATM   30  C18 UNL     1      26.159   1.210  53.933  1.00  0.00     0.033 C 
ENDBRANCH   8  25
TORSDOF 7
ENDMDL
MODEL 5
REMARK VINA RESULT:      -7.9      5.297      8.314
REMARK  7 active torsions:
REMARK  status: ('A' for Active; 'I' for Inactive)
REMARK    1  A    between atoms: C1_2  and  N1_3 
REMARK    2  A    between atoms: C1_2  and  N3_12 
REMARK    3  A    between atoms: N1_3  and  C2_4 
REMARK    4  A    between atoms: C2_4  and  C3_5 
REMARK    5  A    between atoms: C3_5  and  N2_6 
REMARK    6  A    between atoms: N3_12  and  C8_13 
REMARK    7  A    between atoms: C13_20  and  C14_21 
ROOT
HETATM    1  C8  UNL     1      24.394  -0.205  53.478  1.00  0.00     0.035 A 
HETATM    2  C9  UNL     1      25.076  -0.686  54.572  1.00  0.00     0.032 A 
HETATM    3  C10 UNL     1      26.330  -0.234  54.919  1.00  0.00     0.035 A 
HETATM    4  C11 UNL     1      26.879   0.746  54.099  1.00  0.00     0.070 A 
HETATM    5  N4  UNL     1      28.112   1.195  54.430  1.00  0.00    -0.241 NA
HETATM    6  C12 UNL     1      28.704   2.156  53.659  1.00  0.00     0.234 A 
HETATM    7  N5  UNL     1      28.003   2.596  52.603  1.00  0.00    -0.240 NA
HETATM    8  C13 UNL     1      26.794   2.172  52.257  1.00  0.00     0.082 A 
HETATM    9  C19 UNL     1      26.170   1.204  53.014  1.00  0.00     0.025 A 
HETATM   10  C20 UNL     1      24.916   0.766  52.650  1.00  0.00     0.045 A 
ENDROOT
BRANCH   1  11
HETATM   11  N3  UNL     1      23.112  -0.755  53.214  1.00  0.00    -0.333 N 
HETATM   12  H14 UNL     1      23.159  -1.594  52.563  1.00  0.00     0.168 HD
BRANCH  11  13
HETATM   13  C1  UNL     1      21.830  -0.312  53.714  1.00  0.00     0.172 C 
HETATM   14  S1  UNL     1      20.910  -1.558  54.231  1.00  0.00    -0.041 SA
BRANCH  13  15
HETATM   15  N1  UNL     1      21.501   1.064  53.712  1.00  0.00    -0.365 N 
HETATM   16  H1  UNL     1      21.917   1.669  54.444  1.00  0.00     0.161 HD
BRANCH  15  17
HETATM   17  C2  UNL     1      20.594   1.554  52.689  1.00  0.00     0.141 C 
BRANCH  17  18
HETATM   18  C3  UNL     1      20.989   1.067  51.321  1.00  0.00     0.136 C 
BRANCH  18  19
HETATM   19  N2  UNL     1      21.621   2.102  50.571  1.00  0.00    -0.407 N 
HETATM   20  C4  UNL     1      21.010   3.389  50.619  1.00  0.00     0.143 C 
HETATM   21  C5  UNL     1      19.904   3.404  49.573  1.00  0.00     0.187 C 
HETATM   22  O1  UNL     1      20.501   3.282  48.335  1.00  0.00    -0.388 OA
HETATM   23  C6  UNL     1      21.185   2.107  48.160  1.00  0.00     0.187 C 
HETATM   24  C7  UNL     1      22.112   1.730  49.282  1.00  0.00     0.143 C 
ENDBRANCH  18  19
ENDBRANCH  17  18
ENDBRANCH  15  17
ENDBRANCH  13  15
ENDBRANCH  11  13
ENDBRANCH   1  11
BRANCH   8  25
HETATM   25  C14 UNL     1      26.192   2.779  51.051  1.00  0.00     0.006 C 
HETATM   26  C15 UNL     1      26.726   2.710  49.837  1.00  0.00    -0.011 C 
HETATM   27  C16 UNL     1      26.752   3.873  49.198  1.00  0.00     0.032 C 
HETATM   28  C17 UNL     1      25.361   4.229  49.612  1.00  0.00     0.012 C 
HETATM   29 BR1  UNL     1      23.870   5.346  49.054  1.00  0.00    -0.051 Br
HETATM   30  C18 UNL     1      24.988   3.578  50.740  1.00  0.00     0.033 C 
ENDBRANCH   8  25
TORSDOF 7
ENDMDL
MODEL 6
REMARK VINA RESULT:      -7.9      5.691      9.544
REMARK  7 active torsions:
REMARK  status: ('A' for Active; 'I' for Inactive)
REMARK    1  A    between atoms: C1_2  and  N1_3 
REMARK    2  A    between atoms: C1_2  and  N3_12 
REMARK    3  A    between atoms: N1_3  and  C2_4 
REMARK    4  A    between atoms: C2_4  and  C3_5 
REMARK    5  A    between atoms: C3_5  and  N2_6 
REMARK    6  A    between atoms: N3_12  and  C8_13 
REMARK    7  A    between atoms: C13_20  and  C14_21 
ROOT
HETATM    1  C8  UNL     1      21.140   0.070  52.456  1.00  0.00     0.035 A 
HETATM    2  C9  UNL     1      20.449  -0.557  53.467  1.00  0.00     0.032 A 
HETATM    3  C10 UNL     1      21.077  -1.102  54.564  1.00  0.00     0.035 A 
HETATM    4  C11 UNL     1      22.462  -0.987  54.601  1.00  0.00     0.070 A 
HETATM    5  N4  UNL     1      23.089  -1.522  55.674  1.00  0.00    -0.241 NA
HETATM    6  C12 UNL     1      24.451  -1.441  55.763  1.00  0.00     0.234 A 
HETATM    7  N5  UNL     1      25.084  -0.822  54.756  1.00  0.00    -0.240 NA
HETATM    8  C13 UNL     1      24.493  -0.289  53.693  1.00  0.00     0.082 A 
HETATM    9  C19 UNL     1      23.122  -0.354  53.574  1.00  0.00     0.025 A 
HETATM   10  C20 UNL     1      22.513   0.198  52.468  1.00  0.00     0.045 A 
ENDROOT
BRANCH   1  11
HETATM   11  N3  UNL     1      20.385   0.585  51.369  1.00  0.00    -0.333 N 
HETATM   12  H14 UNL     1      19.513   0.010  51.175  1.00  0.00     0.168 HD
BRANCH  11  13
HETATM   13  C1  UNL     1      20.671   1.744  50.554  1.00  0.00     0.172 C 
HETATM   14  S1  UNL     1      21.102   1.333  49.033  1.00  0.00    -0.041 SA
BRANCH  13  15
HETATM   15  N1  UNL     1      20.563   3.044  51.101  1.00  0.00    -0.365 N 
HETATM   16  H1  UNL     1      20.664   3.155  52.126  1.00  0.00     0.161 HD
BRANCH  15  17
HETATM   17  C2  UNL     1      20.313   4.153  50.198  1.00  0.00     0.141 C 
BRANCH  17  18
HETATM   18  C3  UNL     1      21.293   5.274  50.415  1.00  0.00     0.136 C 
BRANCH  18  19
HETATM   19  N2  UNL     1      22.636   4.799  50.358  1.00  0.00    -0.407 N 
HETATM   20  C4  UNL     1      23.515   5.246  51.387  1.00  0.00     0.143 C 
HETATM   21  C5  UNL     1      24.054   6.605  50.965  1.00  0.00     0.187 C 
HETATM   22  O1  UNL     1      24.817   6.416  49.831  1.00  0.00    -0.388 OA
HETATM   23  C6  UNL     1      24.113   5.928  48.761  1.00  0.00     0.187 C 
HETATM   24  C7  UNL     1      23.228   4.749  49.058  1.00  0.00     0.143 C 
ENDBRANCH  18  19
ENDBRANCH  17  18
ENDBRANCH  15  17
ENDBRANCH  13  15
ENDBRANCH  11  13
ENDBRANCH   1  11
BRANCH   8  25
HETATM   25  C14 UNL     1      25.371   0.344  52.687  1.00  0.00     0.006 C 
HETATM   26  C15 UNL     1      26.633  -0.009  52.472  1.00  0.00    -0.011 C 
HETATM   27  C16 UNL     1      27.470   1.019  52.398  1.00  0.00     0.032 C 
HETATM   28  C17 UNL     1      26.543   1.822  51.543  1.00  0.00     0.012 C 
HETATM   29 BR1  UNL     1      26.575   3.275  50.252  1.00  0.00    -0.051 Br
HETATM   30  C18 UNL     1      25.253   1.435  51.696  1.00  0.00     0.033 C 
ENDBRANCH   8  25
TORSDOF 7
ENDMDL
MODEL 7
REMARK VINA RESULT:      -7.9      4.988      9.332
REMARK  7 active torsions:
REMARK  status: ('A' for Active; 'I' for Inactive)
REMARK    1  A    between atoms: C1_2  and  N1_3 
REMARK    2  A    between atoms: C1_2  and  N3_12 
REMARK    3  A    between atoms: N1_3  and  C2_4 
REMARK    4  A    between atoms: C2_4  and  C3_5 
REMARK    5  A    between atoms: C3_5  and  N2_6 
REMARK    6  A    between atoms: N3_12  and  C8_13 
REMARK    7  A    between atoms: C13_20  and  C14_21 
ROOT
HETATM    1  C8  UNL     1      22.471   2.527  51.739  1.00  0.00     0.035 A 
HETATM    2  C9  UNL     1      21.163   2.374  52.135  1.00  0.00     0.032 A 
HETATM    3  C10 UNL     1      20.772   1.414  53.041  1.00  0.00     0.035 A 
HETATM    4  C11 UNL     1      21.778   0.595  53.543  1.00  0.00     0.070 A 
HETATM    5  N4  UNL     1      21.403  -0.353  54.433  1.00  0.00    -0.241 NA
HETATM    6  C12 UNL     1      22.350  -1.189  54.958  1.00  0.00     0.234 A 
HETATM    7  N5  UNL     1      23.611  -1.005  54.544  1.00  0.00    -0.240 NA
HETATM    8  C13 UNL     1      24.004  -0.083  53.673  1.00  0.00     0.082 A 
HETATM    9  C19 UNL     1      23.075   0.775  53.126  1.00  0.00     0.025 A 
HETATM   10  C20 UNL     1      23.487   1.729  52.221  1.00  0.00     0.045 A 
ENDROOT
BRANCH   1  11
HETATM   11  N3  UNL     1      22.752   3.545  50.790  1.00  0.00    -0.333 N 
HETATM   12  H14 UNL     1      22.385   4.494  51.095  1.00  0.00     0.168 HD
BRANCH  11  13
HETATM   13  C1  UNL     1      23.448   3.422  49.529  1.00  0.00     0.172 C 
HETATM   14  S1  UNL     1      22.423   3.437  48.258  1.00  0.00    -0.041 SA
BRANCH  13  15
HETATM   15  N1  UNL     1      24.858   3.305  49.501  1.00  0.00    -0.365 N 
HETATM   16  H1  UNL     1      25.275   2.506  48.989  1.00  0.00     0.161 HD
BRANCH  15  17
HETATM   17  C2  UNL     1      25.647   4.307  50.196  1.00  0.00     0.141 C 
BRANCH  17  18
HETATM   18  C3  UNL     1      25.701   5.599  49.426  1.00  0.00     0.136 C 
BRANCH  18  19
HETATM   19  N2  UNL     1      25.512   6.718  50.290  1.00  0.00    -0.407 N 
HETATM   20  C4  UNL     1      24.361   6.689  51.129  1.00  0.00     0.143 C 
HETATM   21  C5  UNL     1      23.190   7.215  50.311  1.00  0.00     0.187 C 
HETATM   22  O1  UNL     1      23.448   8.538  50.018  1.00  0.00    -0.388 OA
HETATM   23  C6  UNL     1      24.572   8.731  49.257  1.00  0.00     0.187 C 
HETATM   24  C7  UNL     1      25.799   7.999  49.726  1.00  0.00     0.143 C 
ENDBRANCH  18  19
ENDBRANCH  17  18
ENDBRANCH  15  17
ENDBRANCH  13  15
ENDBRANCH  11  13
ENDBRANCH   1  11
BRANCH   8  25
HETATM   25  C14 UNL     1      25.444  -0.047  53.340  1.00  0.00     0.006 C 
HETATM   26  C15 UNL     1      26.016  -0.822  52.425  1.00  0.00    -0.011 C 
HETATM   27  C16 UNL     1      27.140  -1.395  52.837  1.00  0.00     0.032 C 
HETATM   28  C17 UNL     1      27.644  -0.143  53.480  1.00  0.00     0.012 C 
HETATM   29 BR1  UNL     1      29.310   0.697  54.025  1.00  0.00    -0.051 Br
HETATM   30  C18 UNL     1      26.632   0.701  53.799  1.00  0.00     0.033 C 
ENDBRANCH   8  25
TORSDOF 7
ENDMDL
MODEL 8
REMARK VINA RESULT:      -7.9      6.278      9.784
REMARK  7 active torsions:
REMARK  status: ('A' for Active; 'I' for Inactive)
REMARK    1  A    between atoms: C1_2  and  N1_3 
REMARK    2  A    between atoms: C1_2  and  N3_12 
REMARK    3  A    between atoms: N1_3  and  C2_4 
REMARK    4  A    between atoms: C2_4  and  C3_5 
REMARK    5  A    between atoms: C3_5  and  N2_6 
REMARK    6  A    between atoms: N3_12  and  C8_13 
REMARK    7  A    between atoms: C13_20  and  C14_21 
ROOT
HETATM    1  C8  UNL     1      24.559   3.041  51.063  1.00  0.00     0.035 A 
HETATM    2  C9  UNL     1      25.917   2.999  50.849  1.00  0.00     0.032 A 
HETATM    3  C10 UNL     1      26.715   1.998  51.356  1.00  0.00     0.035 A 
HETATM    4  C11 UNL     1      26.073   1.019  52.106  1.00  0.00     0.070 A 
HETATM    5  N4  UNL     1      26.849   0.032  52.610  1.00  0.00    -0.241 NA
HETATM    6  C12 UNL     1      26.272  -0.957  53.358  1.00  0.00     0.234 A 
HETATM    7  N5  UNL     1      24.946  -0.877  53.541  1.00  0.00    -0.240 NA
HETATM    8  C13 UNL     1      24.163   0.080  53.057  1.00  0.00     0.082 A 
HETATM    9  C19 UNL     1      24.713   1.091  52.300  1.00  0.00     0.025 A 
HETATM   10  C20 UNL     1      23.898   2.083  51.802  1.00  0.00     0.045 A 
ENDROOT
BRANCH   1  11
HETATM   11  N3  UNL     1      23.841   4.128  50.499  1.00  0.00    -0.333 N 
HETATM   12  H14 UNL     1      23.783   4.068  49.440  1.00  0.00     0.168 HD
BRANCH  11  13
HETATM   13  C1  UNL     1      23.219   5.239  51.185  1.00  0.00     0.172 C 
HETATM   14  S1  UNL     1      24.137   6.588  51.126  1.00  0.00    -0.041 SA
BRANCH  13  15
HETATM   15  N1  UNL     1      21.959   5.077  51.807  1.00  0.00    -0.365 N 
HETATM   16  H1  UNL     1      21.910   5.142  52.840  1.00  0.00     0.161 HD
BRANCH  15  17
HETATM   17  C2  UNL     1      20.803   4.824  50.966  1.00  0.00     0.141 C 
BRANCH  17  18
HETATM   18  C3  UNL     1      20.463   3.358  50.921  1.00  0.00     0.136 C 
BRANCH  18  19
HETATM   19  N2  UNL     1      20.115   2.953  49.599  1.00  0.00    -0.407 N 
HETATM   20  C4  UNL     1      20.010   1.550  49.368  1.00  0.00     0.143 C 
HETATM   21  C5  UNL     1      21.412   1.032  49.081  1.00  0.00     0.187 C 
HETATM   22  O1  UNL     1      21.835   1.608  47.901  1.00  0.00    -0.388 OA
HETATM   23  C6  UNL     1      21.930   2.975  47.952  1.00  0.00     0.187 C 
HETATM   24  C7  UNL     1      20.738   3.680  48.537  1.00  0.00     0.143 C 
ENDBRANCH  18  19
ENDBRANCH  17  18
ENDBRANCH  15  17
ENDBRANCH  13  15
ENDBRANCH  11  13
ENDBRANCH   1  11
BRANCH   8  25
HETATM   25  C14 UNL     1      22.723  -0.007  53.380  1.00  0.00     0.006 C 
HETATM   26  C15 UNL     1      22.246  -0.411  54.551  1.00  0.00    -0.011 C 
HETATM   27  C16 UNL     1      21.262  -1.297  54.451  1.00  0.00     0.032 C 
HETATM   28  C17 UNL     1      20.585  -0.548  53.349  1.00  0.00     0.012 C 
HETATM   29 BR1  UNL     1      18.830  -0.332  52.541  1.00  0.00    -0.051 Br
HETATM   30  C18 UNL     1      21.450   0.249  52.675  1.00  0.00     0.033 C 
ENDBRANCH   8  25
TORSDOF 7
ENDMDL
MODEL 9
REMARK VINA RESULT:      -7.8      5.188      9.945
REMARK  7 active torsions:
REMARK  status: ('A' for Active; 'I' for Inactive)
REMARK    1  A    between atoms: C1_2  and  N1_3 
REMARK    2  A    between atoms: C1_2  and  N3_12 
REMARK    3  A    between atoms: N1_3  and  C2_4 
REMARK    4  A    between atoms: C2_4  and  C3_5 
REMARK    5  A    between atoms: C3_5  and  N2_6 
REMARK    6  A    between atoms: N3_12  and  C8_13 
REMARK    7  A    between atoms: C13_20  and  C14_21 
ROOT
HETATM    1  C8  UNL     1      24.359   2.963  51.065  1.00  0.00     0.035 A 
HETATM    2  C9  UNL     1      25.695   3.022  50.738  1.00  0.00     0.032 A 
HETATM    3  C10 UNL     1      26.604   2.085  51.175  1.00  0.00     0.035 A 
HETATM    4  C11 UNL     1      26.101   1.063  51.972  1.00  0.00     0.070 A 
HETATM    5  N4  UNL     1      26.987   0.138  52.408  1.00  0.00    -0.241 NA
HETATM    6  C12 UNL     1      26.549  -0.888  53.198  1.00  0.00     0.234 A 
HETATM    7  N5  UNL     1      25.241  -0.906  53.491  1.00  0.00    -0.240 NA
HETATM    8  C13 UNL     1      24.352  -0.012  53.077  1.00  0.00     0.082 A 
HETATM    9  C19 UNL     1      24.761   1.034  52.279  1.00  0.00     0.025 A 
HETATM   10  C20 UNL     1      23.835   1.961  51.853  1.00  0.00     0.045 A 
ENDROOT
BRANCH   1  11
HETATM   11  N3  UNL     1      23.519   3.992  50.565  1.00  0.00    -0.333 N 
HETATM   12  H14 UNL     1      23.190   3.800  49.574  1.00  0.00     0.168 HD
BRANCH  11  13
HETATM   13  C1  UNL     1      23.093   5.201  51.235  1.00  0.00     0.172 C 
HETATM   14  S1  UNL     1      21.471   5.386  51.193  1.00  0.00    -0.041 SA
BRANCH  13  15
HETATM   15  N1  UNL     1      24.046   6.062  51.826  1.00  0.00    -0.365 N 
HETATM   16  H1  UNL     1      24.431   5.806  52.754  1.00  0.00     0.161 HD
BRANCH  15  17
HETATM   17  C2  UNL     1      24.432   7.262  51.105  1.00  0.00     0.141 C 
BRANCH  17  18
HETATM   18  C3  UNL     1      25.012   6.933  49.755  1.00  0.00     0.136 C 
BRANCH  18  19
HETATM   19  N2  UNL     1      26.384   7.316  49.680  1.00  0.00    -0.407 N 
HETATM   20  C4  UNL     1      26.696   8.649  50.077  1.00  0.00     0.143 C 
HETATM   21  C5  UNL     1      26.453   9.549  48.874  1.00  0.00     0.187 C 
HETATM   22  O1  UNL     1      27.360   9.191  47.897  1.00  0.00    -0.388 OA
HETATM   23  C6  UNL     1      27.219   7.902  47.452  1.00  0.00     0.187 C 
HETATM   24  C7  UNL     1      27.099   6.860  48.530  1.00  0.00     0.143 C 
ENDBRANCH  18  19
ENDBRANCH  17  18
ENDBRANCH  15  17
ENDBRANCH  13  15
ENDBRANCH  11  13
ENDBRANCH   1  11
BRANCH   8  25
HETATM   25  C14 UNL     1      22.954  -0.205  53.517  1.00  0.00     0.006 C 
HETATM   26  C15 UNL     1      22.607  -0.763  54.671  1.00  0.00    -0.011 C 
HETATM   27  C16 UNL     1      21.652  -1.678  54.557  1.00  0.00     0.032 C 
HETATM   28  C17 UNL     1      20.844  -0.841  53.618  1.00  0.00     0.012 C 
HETATM   29 BR1  UNL     1      19.012  -0.619  53.005  1.00  0.00    -0.051 Br
HETATM   30  C18 UNL     1      21.609   0.069  52.968  1.00  0.00     0.033 C 
ENDBRANCH   8  25
TORSDOF 7
ENDMDL
