MODEL 1
REMARK VINA RESULT:      -6.8      0.000      0.000
REMARK  8 active torsions:
REMARK  status: ('A' for Active; 'I' for Inactive)
REMARK    1  A    between atoms: C3_4  and  C4_5 
REMARK    2  A    between atoms: C4_5  and  C6_7 
REMARK    3  A    between atoms: C6_7  and  O1_8 
REMARK    4  A    between atoms: O1_8  and  C7_9 
REMARK    5  A    between atoms: C7_9  and  C8_10 
REMARK    6  A    between atoms: C9_11  and  C10_12 
REMARK    7  A    between atoms: C9_11  and  N1_15 
REMARK    8  A    between atoms: N1_15  and  C12_16 
ROOT
HETATM    1  C8  UNL     1      27.404   0.554  52.196  1.00  0.00     0.028 C 
HETATM    2  C9  UNL     1      26.943  -0.429  52.988  1.00  0.00     0.032 C 
ENDROOT
BRANCH   2   3
HETATM    3  C10 UNL     1      26.923  -1.848  52.648  1.00  0.00     0.041 C 
HETATM    4  C11 UNL     1      27.953  -2.643  52.790  1.00  0.00     0.087 C 
HETATM    5 CL1  UNL     1      29.461  -2.022  53.415  1.00  0.00    -0.097 Cl
ENDBRANCH   2   3
BRANCH   2   6
HETATM    6  N1  UNL     1      26.429  -0.032  54.276  1.00  0.00    -0.340 N 
HETATM    7  H16 UNL     1      26.834   0.526  55.067  1.00  0.00     0.167 HD
BRANCH   6   8
HETATM    8  C12 UNL     1      25.100  -0.495  54.516  1.00  0.00     0.142 A 
HETATM    9  N2  UNL     1      24.744  -1.259  55.549  1.00  0.00    -0.223 NA
HETATM   10  C13 UNL     1      23.536  -1.719  55.829  1.00  0.00     0.235 A 
HETATM   11  N3  UNL     1      22.356  -1.585  55.217  1.00  0.00    -0.253 NA
HETATM   12  C14 UNL     1      22.261  -0.852  54.077  1.00  0.00     0.137 A 
HETATM   13  P1  UNL     1      23.738  -0.137  53.504  1.00  0.00     0.039 P 
ENDBRANCH   6   8
ENDBRANCH   2   6
BRANCH   1  14
HETATM   14  C7  UNL     1      27.389   1.978  52.617  1.00  0.00     0.197 C 
BRANCH  14  15
HETATM   15  O1  UNL     1      27.278   2.761  51.486  1.00  0.00    -0.387 OA
BRANCH  15  16
HETATM   16  C6  UNL     1      25.922   3.042  51.303  1.00  0.00     0.176 C 
BRANCH  16  17
HETATM   17  C4  UNL     1      25.689   3.860  50.047  1.00  0.00     0.031 C 
HETATM   18  C5  UNL     1      24.513   3.264  49.317  1.00  0.00     0.016 C 
BRANCH  17  19
HETATM   19  C3  UNL     1      26.898   3.945  49.203  1.00  0.00     0.017 C 
HETATM   20  C2  UNL     1      27.319   5.106  48.714  1.00  0.00     0.086 C 
HETATM   21  C1  UNL     1      26.527   6.330  49.046  1.00  0.00     0.081 C 
HETATM   22  F1  UNL     1      28.435   5.154  47.941  1.00  0.00    -0.212 F 
ENDBRANCH  17  19
ENDBRANCH  16  17
ENDBRANCH  15  16
ENDBRANCH  14  15
ENDBRANCH   1  14
TORSDOF 8
ENDMDL
MODEL 2
REMARK VINA RESULT:      -6.6      4.100      6.536
REMARK  8 active torsions:
REMARK  status: ('A' for Active; 'I' for Inactive)
REMARK    1  A    between atoms: C3_4  and  C4_5 
REMARK    2  A    between atoms: C4_5  and  C6_7 
REMARK    3  A    between atoms: C6_7  and  O1_8 
REMARK    4  A    between atoms: O1_8  and  C7_9 
REMARK    5  A    between atoms: C7_9  and  C8_10 
REMARK    6  A    between atoms: C9_11  and  C10_12 
REMARK    7  A    between atoms: C9_11  and  N1_15 
REMARK    8  A    between atoms: N1_15  and  C12_16 
ROOT
HETATM    1  C8  UNL     1      24.045   2.260  51.173  1.00  0.00     0.028 C 
HETATM    2  C9  UNL     1      25.324   2.603  51.402  1.00  0.00     0.032 C 
ENDROOT
BRANCH   2   3
HETATM    3  C10 UNL     1      26.388   2.612  50.404  1.00  0.00     0.041 C 
HETATM    4  C11 UNL     1      26.657   3.638  49.639  1.00  0.00     0.087 C 
HETATM    5 CL1  UNL     1      25.720   5.105  49.778  1.00  0.00    -0.097 Cl
ENDBRANCH   2   3
BRANCH   2   6
HETATM    6  N1  UNL     1      25.655   2.990  52.752  1.00  0.00    -0.340 N 
HETATM    7  H16 UNL     1      25.426   3.835  53.330  1.00  0.00     0.167 HD
BRANCH   6   8
HETATM    8  C12 UNL     1      26.458   2.025  53.431  1.00  0.00     0.142 A 
HETATM    9  N2  UNL     1      25.973   0.972  54.089  1.00  0.00    -0.223 NA
HETATM   10  C13 UNL     1      26.659   0.044  54.736  1.00  0.00     0.235 A 
HETATM   11  N3  UNL     1      27.968  -0.136  54.934  1.00  0.00    -0.253 NA
HETATM   12  C14 UNL     1      28.862   0.745  54.413  1.00  0.00     0.137 A 
HETATM   13  P1  UNL     1      28.190   2.068  53.509  1.00  0.00     0.039 P 
ENDBRANCH   6   8
ENDBRANCH   2   6
BRANCH   1  14
HETATM   14  C7  UNL     1      23.019   2.277  52.246  1.00  0.00     0.197 C 
BRANCH  14  15
HETATM   15  O1  UNL     1      21.806   1.924  51.690  1.00  0.00    -0.387 OA
BRANCH  15  16
HETATM   16  C6  UNL     1      20.918   1.682  52.742  1.00  0.00     0.176 C 
BRANCH  16  17
HETATM   17  C4  UNL     1      20.752   0.196  52.998  1.00  0.00     0.031 C 
HETATM   18  C5  UNL     1      19.312  -0.160  52.741  1.00  0.00     0.016 C 
BRANCH  17  19
HETATM   19  C3  UNL     1      21.202  -0.192  54.350  1.00  0.00     0.017 C 
HETATM   20  C2  UNL     1      22.358  -0.818  54.541  1.00  0.00     0.086 C 
HETATM   21  C1  UNL     1      23.193  -1.119  53.339  1.00  0.00     0.081 C 
HETATM   22  F1  UNL     1      22.745  -1.163  55.796  1.00  0.00    -0.212 F 
ENDBRANCH  17  19
ENDBRANCH  16  17
ENDBRANCH  15  16
ENDBRANCH  14  15
ENDBRANCH   1  14
TORSDOF 8
ENDMDL
MODEL 3
REMARK VINA RESULT:      -6.4      4.213      6.602
REMARK  8 active torsions:
REMARK  status: ('A' for Active; 'I' for Inactive)
REMARK    1  A    between atoms: C3_4  and  C4_5 
REMARK    2  A    between atoms: C4_5  and  C6_7 
REMARK    3  A    between atoms: C6_7  and  O1_8 
REMARK    4  A    between atoms: O1_8  and  C7_9 
REMARK    5  A    between atoms: C7_9  and  C8_10 
REMARK    6  A    between atoms: C9_11  and  C10_12 
REMARK    7  A    between atoms: C9_11  and  N1_15 
REMARK    8  A    between atoms: N1_15  and  C12_16 
ROOT
HETATM    1  C8  UNL     1      24.212   2.228  51.437  1.00  0.00     0.028 C 
HETATM    2  C9  UNL     1      25.510   2.549  51.575  1.00  0.00     0.032 C 
ENDROOT
BRANCH   2   3
HETATM    3  C10 UNL     1      26.471   2.674  50.484  1.00  0.00     0.041 C 
HETATM    4  C11 UNL     1      26.596   3.747  49.746  1.00  0.00     0.087 C 
HETATM    5 CL1  UNL     1      25.580   5.136  50.039  1.00  0.00    -0.097 Cl
ENDBRANCH   2   3
BRANCH   2   6
HETATM    6  N1  UNL     1      25.976   2.785  52.919  1.00  0.00    -0.340 N 
HETATM    7  H16 UNL     1      25.677   3.452  53.673  1.00  0.00     0.167 HD
BRANCH   6   8
HETATM    8  C12 UNL     1      27.063   1.940  53.294  1.00  0.00     0.142 A 
HETATM    9  N2  UNL     1      28.196   2.371  53.849  1.00  0.00    -0.223 NA
HETATM   10  C13 UNL     1      29.237   1.643  54.218  1.00  0.00     0.235 A 
HETATM   11  N3  UNL     1      29.485   0.332  54.164  1.00  0.00    -0.253 NA
HETATM   12  C14 UNL     1      28.556  -0.516  53.648  1.00  0.00     0.137 A 
HETATM   13  P1  UNL     1      27.083   0.217  53.088  1.00  0.00     0.039 P 
ENDBRANCH   6   8
ENDBRANCH   2   6
BRANCH   1  14
HETATM   14  C7  UNL     1      23.298   2.121  52.601  1.00  0.00     0.197 C 
BRANCH  14  15
HETATM   15  O1  UNL     1      23.586   0.949  53.271  1.00  0.00    -0.387 OA
BRANCH  15  16
HETATM   16  C6  UNL     1      22.643  -0.002  52.875  1.00  0.00     0.176 C 
BRANCH  16  17
HETATM   17  C4  UNL     1      21.249   0.371  53.342  1.00  0.00     0.031 C 
HETATM   18  C5  UNL     1      21.114  -0.048  54.782  1.00  0.00     0.016 C 
BRANCH  17  19
HETATM   19  C3  UNL     1      20.198  -0.206  52.480  1.00  0.00     0.017 C 
HETATM   20  C2  UNL     1      19.380   0.568  51.774  1.00  0.00     0.086 C 
HETATM   21  C1  UNL     1      19.559   2.048  51.879  1.00  0.00     0.081 C 
HETATM   22  F1  UNL     1      18.422   0.008  50.990  1.00  0.00    -0.212 F 
ENDBRANCH  17  19
ENDBRANCH  16  17
ENDBRANCH  15  16
ENDBRANCH  14  15
ENDBRANCH   1  14
TORSDOF 8
ENDMDL
MODEL 4
REMARK VINA RESULT:      -6.4      2.383      3.075
REMARK  8 active torsions:
REMARK  status: ('A' for Active; 'I' for Inactive)
REMARK    1  A    between atoms: C3_4  and  C4_5 
REMARK    2  A    between atoms: C4_5  and  C6_7 
REMARK    3  A    between atoms: C6_7  and  O1_8 
REMARK    4  A    between atoms: O1_8  and  C7_9 
REMARK    5  A    between atoms: C7_9  and  C8_10 
REMARK    6  A    between atoms: C9_11  and  C10_12 
REMARK    7  A    between atoms: C9_11  and  N1_15 
REMARK    8  A    between atoms: N1_15  and  C12_16 
ROOT
HETATM    1  C8  UNL     1      26.832   0.501  51.543  1.00  0.00     0.028 C 
HETATM    2  C9  UNL     1      26.624  -0.369  52.545  1.00  0.00     0.032 C 
ENDROOT
BRANCH   2   3
HETATM    3  C10 UNL     1      26.803  -1.815  52.461  1.00  0.00     0.041 C 
HETATM    4  C11 UNL     1      27.908  -2.430  52.795  1.00  0.00     0.087 C 
HETATM    5 CL1  UNL     1      29.277  -1.518  53.382  1.00  0.00    -0.097 Cl
ENDBRANCH   2   3
BRANCH   2   6
HETATM    6  N1  UNL     1      26.187   0.188  53.802  1.00  0.00    -0.340 N 
HETATM    7  H16 UNL     1      26.584   0.927  54.434  1.00  0.00     0.167 HD
BRANCH   6   8
HETATM    8  C12 UNL     1      24.970  -0.385  54.277  1.00  0.00     0.142 A 
HETATM    9  N2  UNL     1      24.859  -1.094  55.400  1.00  0.00    -0.223 NA
HETATM   10  C13 UNL     1      23.765  -1.650  55.895  1.00  0.00     0.235 A 
HETATM   11  N3  UNL     1      22.500  -1.685  55.469  1.00  0.00    -0.253 NA
HETATM   12  C14 UNL     1      22.154  -1.059  54.312  1.00  0.00     0.137 A 
HETATM   13  P1  UNL     1      23.440  -0.249  53.470  1.00  0.00     0.039 P 
ENDBRANCH   6   8
ENDBRANCH   2   6
BRANCH   1  14
HETATM   14  C7  UNL     1      26.626   1.962  51.710  1.00  0.00     0.197 C 
BRANCH  14  15
HETATM   15  O1  UNL     1      25.285   2.233  51.532  1.00  0.00    -0.387 OA
BRANCH  15  16
HETATM   16  C6  UNL     1      25.183   3.200  50.529  1.00  0.00     0.176 C 
BRANCH  16  17
HETATM   17  C4  UNL     1      23.842   3.128  49.824  1.00  0.00     0.031 C 
HETATM   18  C5  UNL     1      23.232   4.505  49.848  1.00  0.00     0.016 C 
BRANCH  17  19
HETATM   19  C3  UNL     1      22.956   2.103  50.410  1.00  0.00     0.017 C 
HETATM   20  C2  UNL     1      22.115   1.403  49.657  1.00  0.00     0.086 C 
HETATM   21  C1  UNL     1      22.094   1.687  48.189  1.00  0.00     0.081 C 
HETATM   22  F1  UNL     1      21.312   0.466  50.224  1.00  0.00    -0.212 F 
ENDBRANCH  17  19
ENDBRANCH  16  17
ENDBRANCH  15  16
ENDBRANCH  14  15
ENDBRANCH   1  14
TORSDOF 8
ENDMDL
MODEL 5
REMARK VINA RESULT:      -6.3      3.319      6.082
REMARK  8 active torsions:
REMARK  status: ('A' for Active; 'I' for Inactive)
REMARK    1  A    between atoms: C3_4  and  C4_5 
REMARK    2  A    between atoms: C4_5  and  C6_7 
REMARK    3  A    between atoms: C6_7  and  O1_8 
REMARK    4  A    between atoms: O1_8  and  C7_9 
REMARK    5  A    between atoms: C7_9  and  C8_10 
REMARK    6  A    between atoms: C9_11  and  C10_12 
REMARK    7  A    between atoms: C9_11  and  N1_15 
REMARK    8  A    between atoms: N1_15  and  C12_16 
ROOT
HETATM    1  C8  UNL     1      26.332   0.351  54.297  1.00  0.00     0.028 C 
HETATM    2  C9  UNL     1      26.915   1.147  53.384  1.00  0.00     0.032 C 
ENDROOT
BRANCH   2   3
HETATM    3  C10 UNL     1      27.889   2.195  53.676  1.00  0.00     0.041 C 
HETATM    4  C11 UNL     1      29.172   1.977  53.807  1.00  0.00     0.087 C 
HETATM    5 CL1  UNL     1      29.810   0.360  53.635  1.00  0.00    -0.097 Cl
ENDBRANCH   2   3
BRANCH   2   6
HETATM    6  N1  UNL     1      26.537   0.937  52.009  1.00  0.00    -0.340 N 
HETATM    7  H16 UNL     1      26.513   0.085  51.396  1.00  0.00     0.167 HD
BRANCH   6   8
HETATM    8  C12 UNL     1      26.110   2.131  51.355  1.00  0.00     0.142 A 
HETATM    9  N2  UNL     1      26.819   2.777  50.429  1.00  0.00    -0.223 NA
HETATM   10  C13 UNL     1      26.482   3.884  49.787  1.00  0.00     0.235 A 
HETATM   11  N3  UNL     1      25.401   4.667  49.845  1.00  0.00    -0.253 NA
HETATM   12  C14 UNL     1      24.385   4.361  50.695  1.00  0.00     0.137 A 
HETATM   13  P1  UNL     1      24.601   2.931  51.660  1.00  0.00     0.039 P 
ENDBRANCH   6   8
ENDBRANCH   2   6
BRANCH   1  14
HETATM   14  C7  UNL     1      25.348  -0.694  53.917  1.00  0.00     0.197 C 
BRANCH  14  15
HETATM   15  O1  UNL     1      24.140  -0.077  53.660  1.00  0.00    -0.387 OA
BRANCH  15  16
HETATM   16  C6  UNL     1      23.153  -0.790  54.346  1.00  0.00     0.176 C 
BRANCH  16  17
HETATM   17  C4  UNL     1      21.769  -0.475  53.812  1.00  0.00     0.031 C 
HETATM   18  C5  UNL     1      20.837  -1.568  54.265  1.00  0.00     0.016 C 
BRANCH  17  19
HETATM   19  C3  UNL     1      21.764  -0.295  52.346  1.00  0.00     0.017 C 
HETATM   20  C2  UNL     1      21.249   0.794  51.785  1.00  0.00     0.086 C 
HETATM   21  C1  UNL     1      20.673   1.836  52.688  1.00  0.00     0.081 C 
HETATM   22  F1  UNL     1      21.258   0.932  50.434  1.00  0.00    -0.212 F 
ENDBRANCH  17  19
ENDBRANCH  16  17
ENDBRANCH  15  16
ENDBRANCH  14  15
ENDBRANCH   1  14
TORSDOF 8
ENDMDL
MODEL 6
REMARK VINA RESULT:      -6.3      1.844      2.332
REMARK  8 active torsions:
REMARK  status: ('A' for Active; 'I' for Inactive)
REMARK    1  A    between atoms: C3_4  and  C4_5 
REMARK    2  A    between atoms: C4_5  and  C6_7 
REMARK    3  A    between atoms: C6_7  and  O1_8 
REMARK    4  A    between atoms: O1_8  and  C7_9 
REMARK    5  A    between atoms: C7_9  and  C8_10 
REMARK    6  A    between atoms: C9_11  and  C10_12 
REMARK    7  A    between atoms: C9_11  and  N1_15 
REMARK    8  A    between atoms: N1_15  and  C12_16 
ROOT
HETATM    1  C8  UNL     1      27.208   1.926  52.600  1.00  0.00     0.028 C 
HETATM    2  C9  UNL     1      27.072   0.804  53.327  1.00  0.00     0.032 C 
ENDROOT
BRANCH   2   3
HETATM    3  C10 UNL     1      27.710   0.548  54.614  1.00  0.00     0.041 C 
HETATM    4  C11 UNL     1      28.892   0.004  54.744  1.00  0.00     0.087 C 
HETATM    5 CL1  UNL     1      29.802  -0.464  53.329  1.00  0.00    -0.097 Cl
ENDBRANCH   2   3
BRANCH   2   6
HETATM    6  N1  UNL     1      26.224  -0.223  52.774  1.00  0.00    -0.340 N 
HETATM    7  H16 UNL     1      26.270  -0.793  51.894  1.00  0.00     0.167 HD
BRANCH   6   8
HETATM    8  C12 UNL     1      25.095  -0.521  53.596  1.00  0.00     0.142 A 
HETATM    9  N2  UNL     1      25.164  -1.138  54.775  1.00  0.00    -0.223 NA
HETATM   10  C13 UNL     1      24.160  -1.441  55.583  1.00  0.00     0.235 A 
HETATM   11  N3  UNL     1      22.842  -1.247  55.495  1.00  0.00    -0.253 NA
HETATM   12  C14 UNL     1      22.317  -0.624  54.406  1.00  0.00     0.137 A 
HETATM   13  P1  UNL     1      23.455  -0.125  53.191  1.00  0.00     0.039 P 
ENDBRANCH   6   8
ENDBRANCH   2   6
BRANCH   1  14
HETATM   14  C7  UNL     1      26.523   2.108  51.295  1.00  0.00     0.197 C 
BRANCH  14  15
HETATM   15  O1  UNL     1      27.016   3.254  50.705  1.00  0.00    -0.387 OA
BRANCH  15  16
HETATM   16  C6  UNL     1      26.495   3.315  49.410  1.00  0.00     0.176 C 
BRANCH  16  17
HETATM   17  C4  UNL     1      26.287   4.749  48.962  1.00  0.00     0.031 C 
HETATM   18  C5  UNL     1      27.624   5.303  48.543  1.00  0.00     0.016 C 
BRANCH  17  19
HETATM   19  C3  UNL     1      25.632   5.569  50.001  1.00  0.00     0.017 C 
HETATM   20  C2  UNL     1      24.396   6.028  49.843  1.00  0.00     0.086 C 
HETATM   21  C1  UNL     1      23.683   5.685  48.574  1.00  0.00     0.081 C 
HETATM   22  F1  UNL     1      23.819   6.780  50.816  1.00  0.00    -0.212 F 
ENDBRANCH  17  19
ENDBRANCH  16  17
ENDBRANCH  15  16
ENDBRANCH  14  15
ENDBRANCH   1  14
TORSDOF 8
ENDMDL
MODEL 7
REMARK VINA RESULT:      -6.3      2.898      4.162
REMARK  8 active torsions:
REMARK  status: ('A' for Active; 'I' for Inactive)
REMARK    1  A    between atoms: C3_4  and  C4_5 
REMARK    2  A    between atoms: C4_5  and  C6_7 
REMARK    3  A    between atoms: C6_7  and  O1_8 
REMARK    4  A    between atoms: O1_8  and  C7_9 
REMARK    5  A    between atoms: C7_9  and  C8_10 
REMARK    6  A    between atoms: C9_11  and  C10_12 
REMARK    7  A    between atoms: C9_11  and  N1_15 
REMARK    8  A    between atoms: N1_15  and  C12_16 
ROOT
HETATM    1  C8  UNL     1      22.655   1.079  51.773  1.00  0.00     0.028 C 
HETATM    2  C9  UNL     1      23.404   0.656  52.805  1.00  0.00     0.032 C 
ENDROOT
BRANCH   2   3
HETATM    3  C10 UNL     1      23.236  -0.612  53.507  1.00  0.00     0.041 C 
HETATM    4  C11 UNL     1      22.242  -0.868  54.318  1.00  0.00     0.087 C 
HETATM    5 CL1  UNL     1      21.018   0.343  54.613  1.00  0.00    -0.097 Cl
ENDBRANCH   2   3
BRANCH   2   6
HETATM    6  N1  UNL     1      24.456   1.540  53.243  1.00  0.00    -0.340 N 
HETATM    7  H16 UNL     1      24.500   2.577  53.402  1.00  0.00     0.167 HD
BRANCH   6   8
HETATM    8  C12 UNL     1      25.682   0.862  53.515  1.00  0.00     0.142 A 
HETATM    9  N2  UNL     1      26.261   0.806  54.715  1.00  0.00    -0.223 NA
HETATM   10  C13 UNL     1      27.392   0.196  55.032  1.00  0.00     0.235 A 
HETATM   11  N3  UNL     1      28.267  -0.512  54.315  1.00  0.00    -0.253 NA
HETATM   12  C14 UNL     1      28.054  -0.712  52.987  1.00  0.00     0.137 A 
HETATM   13  P1  UNL     1      26.613   0.003  52.330  1.00  0.00     0.039 P 
ENDBRANCH   6   8
ENDBRANCH   2   6
BRANCH   1  14
HETATM   14  C7  UNL     1      22.891   2.387  51.111  1.00  0.00     0.197 C 
BRANCH  14  15
HETATM   15  O1  UNL     1      24.114   2.335  50.473  1.00  0.00    -0.387 OA
BRANCH  15  16
HETATM   16  C6  UNL     1      24.099   3.297  49.460  1.00  0.00     0.176 C 
BRANCH  16  17
HETATM   17  C4  UNL     1      25.397   4.080  49.419  1.00  0.00     0.031 C 
HETATM   18  C5  UNL     1      26.510   3.153  49.836  1.00  0.00     0.016 C 
BRANCH  17  19
HETATM   19  C3  UNL     1      25.338   5.304  50.242  1.00  0.00     0.017 C 
HETATM   20  C2  UNL     1      25.821   6.459  49.798  1.00  0.00     0.086 C 
HETATM   21  C1  UNL     1      26.428   6.481  48.432  1.00  0.00     0.081 C 
HETATM   22  F1  UNL     1      25.753   7.570  50.577  1.00  0.00    -0.212 F 
ENDBRANCH  17  19
ENDBRANCH  16  17
ENDBRANCH  15  16
ENDBRANCH  14  15
ENDBRANCH   1  14
TORSDOF 8
ENDMDL
MODEL 8
REMARK VINA RESULT:      -6.2      3.130      4.601
REMARK  8 active torsions:
REMARK  status: ('A' for Active; 'I' for Inactive)
REMARK    1  A    between atoms: C3_4  and  C4_5 
REMARK    2  A    between atoms: C4_5  and  C6_7 
REMARK    3  A    between atoms: C6_7  and  O1_8 
REMARK    4  A    between atoms: O1_8  and  C7_9 
REMARK    5  A    between atoms: C7_9  and  C8_10 
REMARK    6  A    between atoms: C9_11  and  C10_12 
REMARK    7  A    between atoms: C9_11  and  N1_15 
REMARK    8  A    between atoms: N1_15  and  C12_16 
ROOT
HETATM    1  C8  UNL     1      23.401   0.711  53.024  1.00  0.00     0.028 C 
HETATM    2  C9  UNL     1      24.283  -0.121  53.603  1.00  0.00     0.032 C 
ENDROOT
BRANCH   2   3
HETATM    3  C10 UNL     1      24.118  -0.750  54.910  1.00  0.00     0.041 C 
HETATM    4  C11 UNL     1      23.079  -1.470  55.243  1.00  0.00     0.087 C 
HETATM    5 CL1  UNL     1      21.784  -1.724  54.099  1.00  0.00    -0.097 Cl
ENDBRANCH   2   3
BRANCH   2   6
HETATM    6  N1  UNL     1      25.486  -0.404  52.860  1.00  0.00    -0.340 N 
HETATM    7  H16 UNL     1      25.678  -0.975  52.001  1.00  0.00     0.167 HD
BRANCH   6   8
HETATM    8  C12 UNL     1      26.645   0.220  53.410  1.00  0.00     0.142 A 
HETATM    9  N2  UNL     1      27.400  -0.309  54.373  1.00  0.00    -0.223 NA
HETATM   10  C13 UNL     1      28.483   0.215  54.924  1.00  0.00     0.235 A 
HETATM   11  N3  UNL     1      29.134   1.362  54.718  1.00  0.00    -0.253 NA
HETATM   12  C14 UNL     1      28.687   2.240  53.781  1.00  0.00     0.137 A 
HETATM   13  P1  UNL     1      27.257   1.765  52.914  1.00  0.00     0.039 P 
ENDBRANCH   6   8
ENDBRANCH   2   6
BRANCH   1  14
HETATM   14  C7  UNL     1      23.643   1.312  51.688  1.00  0.00     0.197 C 
BRANCH  14  15
HETATM   15  O1  UNL     1      23.173   2.609  51.705  1.00  0.00    -0.387 OA
BRANCH  15  16
HETATM   16  C6  UNL     1      24.212   3.437  51.273  1.00  0.00     0.176 C 
BRANCH  16  17
HETATM   17  C4  UNL     1      24.478   3.264  49.790  1.00  0.00     0.031 C 
HETATM   18  C5  UNL     1      25.961   3.404  49.566  1.00  0.00     0.016 C 
BRANCH  17  19
HETATM   19  C3  UNL     1      23.687   4.201  48.967  1.00  0.00     0.017 C 
HETATM   20  C2  UNL     1      22.749   3.767  48.133  1.00  0.00     0.086 C 
HETATM   21  C1  UNL     1      22.517   2.292  48.054  1.00  0.00     0.081 C 
HETATM   22  F1  UNL     1      22.037   4.653  47.389  1.00  0.00    -0.212 F 
ENDBRANCH  17  19
ENDBRANCH  16  17
ENDBRANCH  15  16
ENDBRANCH  14  15
ENDBRANCH   1  14
TORSDOF 8
ENDMDL
MODEL 9
REMARK VINA RESULT:      -6.2      2.016      2.407
REMARK  8 active torsions:
REMARK  status: ('A' for Active; 'I' for Inactive)
REMARK    1  A    between atoms: C3_4  and  C4_5 
REMARK    2  A    between atoms: C4_5  and  C6_7 
REMARK    3  A    between atoms: C6_7  and  O1_8 
REMARK    4  A    between atoms: O1_8  and  C7_9 
REMARK    5  A    between atoms: C7_9  and  C8_10 
REMARK    6  A    between atoms: C9_11  and  C10_12 
REMARK    7  A    between atoms: C9_11  and  N1_15 
REMARK    8  A    between atoms: N1_15  and  C12_16 
ROOT
HETATM    1  C8  UNL     1      25.219   2.582  52.752  1.00  0.00     0.028 C 
HETATM    2  C9  UNL     1      25.155   1.336  52.253  1.00  0.00     0.032 C 
ENDROOT
BRANCH   2   3
HETATM    3  C10 UNL     1      26.280   0.412  52.139  1.00  0.00     0.041 C 
HETATM    4  C11 UNL     1      26.969  -0.022  53.163  1.00  0.00     0.087 C 
HETATM    5 CL1  UNL     1      26.565   0.503  54.779  1.00  0.00    -0.097 Cl
ENDBRANCH   2   3
BRANCH   2   6
HETATM    6  N1  UNL     1      23.862   0.890  51.796  1.00  0.00    -0.340 N 
HETATM    7  H16 UNL     1      23.387   0.913  50.861  1.00  0.00     0.167 HD
BRANCH   6   8
HETATM    8  C12 UNL     1      23.075   0.299  52.830  1.00  0.00     0.142 A 
HETATM    9  N2  UNL     1      23.533  -0.593  53.708  1.00  0.00    -0.223 NA
HETATM   10  C13 UNL     1      22.859  -1.175  54.686  1.00  0.00     0.235 A 
HETATM   11  N3  UNL     1      21.590  -1.075  55.092  1.00  0.00    -0.253 NA
HETATM   12  C14 UNL     1      20.734  -0.239  54.447  1.00  0.00     0.137 A 
HETATM   13  P1  UNL     1      21.398   0.648  53.107  1.00  0.00     0.039 P 
ENDBRANCH   6   8
ENDBRANCH   2   6
BRANCH   1  14
HETATM   14  C7  UNL     1      24.026   3.461  52.833  1.00  0.00     0.197 C 
BRANCH  14  15
HETATM   15  O1  UNL     1      23.589   3.717  51.550  1.00  0.00    -0.387 OA
BRANCH  15  16
HETATM   16  C6  UNL     1      24.431   4.691  51.007  1.00  0.00     0.176 C 
BRANCH  16  17
HETATM   17  C4  UNL     1      24.742   4.407  49.550  1.00  0.00     0.031 C 
HETATM   18  C5  UNL     1      23.841   3.289  49.094  1.00  0.00     0.016 C 
BRANCH  17  19
HETATM   19  C3  UNL     1      26.171   4.111  49.330  1.00  0.00     0.017 C 
HETATM   20  C2  UNL     1      26.993   5.016  48.811  1.00  0.00     0.086 C 
HETATM   21  C1  UNL     1      26.422   6.351  48.454  1.00  0.00     0.081 C 
HETATM   22  F1  UNL     1      28.304   4.715  48.620  1.00  0.00    -0.212 F 
ENDBRANCH  17  19
ENDBRANCH  16  17
ENDBRANCH  15  16
ENDBRANCH  14  15
ENDBRANCH   1  14
TORSDOF 8
ENDMDL
