MODEL 1
REMARK VINA RESULT:      -9.0      0.000      0.000
REMARK  6 active torsions:
REMARK  status: ('A' for Active; 'I' for Inactive)
REMARK    1  A    between atoms: C7_7  and  N1_8 
REMARK    2  A    between atoms: N1_8  and  C8_9 
REMARK    3  A    between atoms: C12_15  and  N3_16 
REMARK       I    between atoms: N3_16  and  C14_18 
REMARK    4  A    between atoms: C14_18  and  C15_20 
REMARK    5  A    between atoms: C16_21  and  C17_22 
REMARK    6  A    between atoms: C17_22  and  N4_23 
ROOT
HETATM    1  C8  UNL     1      25.958   2.162  51.418  1.00  0.00     0.157 A 
HETATM    2  N2  UNL     1      26.768   2.770  50.507  1.00  0.00    -0.227 NA
HETATM    3  C9  UNL     1      26.467   3.982  50.011  1.00  0.00     0.089 A 
HETATM    4  C10 UNL     1      27.331   4.541  49.092  1.00  0.00     0.078 A 
HETATM    5  C11 UNL     1      27.012   5.800  48.582  1.00  0.00     0.145 A 
HETATM    6  F1  UNL     1      27.900   6.303  47.678  1.00  0.00    -0.204 F 
HETATM    7  C12 UNL     1      25.854   6.463  48.995  1.00  0.00     0.078 A 
HETATM    8  C20 UNL     1      25.006   5.882  49.916  1.00  0.00     0.065 A 
HETATM    9  C21 UNL     1      25.328   4.638  50.416  1.00  0.00     0.072 A 
HETATM   10  N5  UNL     1      24.501   4.074  51.314  1.00  0.00    -0.299 N 
HETATM   11  C22 UNL     1      23.353   4.477  51.870  1.00  0.00     0.215 A 
HETATM   12  N6  UNL     1      22.902   3.541  52.724  1.00  0.00    -0.253 NA
HETATM   13  C23 UNL     1      23.812   2.549  52.672  1.00  0.00     0.151 A 
HETATM   14  C24 UNL     1      24.831   2.852  51.794  1.00  0.00     0.104 A 
ENDROOT
BRANCH   7  15
HETATM   15  N3  UNL     1      25.689   7.731  48.373  1.00  0.00    -0.316 N 
HETATM   16  C13 UNL     1      25.014   7.736  47.083  1.00  0.00     0.159 C 
HETATM   17  C14 UNL     1      26.213   8.831  49.105  1.00  0.00     0.247 C 
HETATM   18  O1  UNL     1      26.714   8.406  50.167  1.00  0.00    -0.268 OA
BRANCH  17  19
HETATM   19  C15 UNL     1      26.120  10.188  48.598  1.00  0.00     0.072 C 
HETATM   20  C16 UNL     1      27.116  10.822  48.014  1.00  0.00     0.008 C 
BRANCH  20  21
HETATM   21  C17 UNL     1      28.507  10.401  47.720  1.00  0.00     0.299 C 
BRANCH  21  22
HETATM   22  N4  UNL     1      29.292  10.676  48.919  1.00  0.00     0.083 N 
HETATM   23  C18 UNL     1      30.037   9.497  49.331  1.00  0.00     0.309 C 
HETATM   24  C19 UNL     1      30.191  11.783  48.614  1.00  0.00     0.309 C 
ENDBRANCH  21  22
ENDBRANCH  20  21
ENDBRANCH  17  19
ENDBRANCH   7  15
BRANCH   1  25
HETATM   25  N1  UNL     1      26.304   0.892  51.915  1.00  0.00    -0.338 N 
HETATM   26  H8  UNL     1      25.701   0.065  51.716  1.00  0.00     0.167 HD
BRANCH  25  27
HETATM   27  C7  UNL     1      27.374   0.436  52.689  1.00  0.00     0.049 A 
HETATM   28  C2  UNL     1      28.425   1.157  53.438  1.00  0.00    -0.018 A 
HETATM   29  C1  UNL     1      28.469   2.477  53.458  1.00  0.00     0.026 C 
HETATM   30  C3  UNL     1      29.317   0.207  54.087  1.00  0.00     0.013 A 
HETATM   31  C4  UNL     1      28.817  -0.989  53.739  1.00  0.00     0.010 A 
HETATM   32  C5  UNL     1      27.636  -0.856  52.889  1.00  0.00    -0.034 A 
HETATM   33  C6  UNL     1      26.854  -2.002  52.336  1.00  0.00     0.050 C 
ENDBRANCH  25  27
ENDBRANCH   1  25
TORSDOF 6
ENDMDL
MODEL 2
REMARK VINA RESULT:      -8.7      5.092      8.528
REMARK  6 active torsions:
REMARK  status: ('A' for Active; 'I' for Inactive)
REMARK    1  A    between atoms: C7_7  and  N1_8 
REMARK    2  A    between atoms: N1_8  and  C8_9 
REMARK    3  A    between atoms: C12_15  and  N3_16 
REMARK       I    between atoms: N3_16  and  C14_18 
REMARK    4  A    between atoms: C14_18  and  C15_20 
REMARK    5  A    between atoms: C16_21  and  C17_22 
REMARK    6  A    between atoms: C17_22  and  N4_23 
ROOT
HETATM    1  C8  UNL     1      25.537   0.967  53.296  1.00  0.00     0.157 A 
HETATM    2  N2  UNL     1      24.278   0.547  53.605  1.00  0.00    -0.227 NA
HETATM    3  C9  UNL     1      23.216   0.951  52.888  1.00  0.00     0.089 A 
HETATM    4  C10 UNL     1      21.970   0.487  53.254  1.00  0.00     0.078 A 
HETATM    5  C11 UNL     1      20.872   0.911  52.504  1.00  0.00     0.145 A 
HETATM    6  F1  UNL     1      19.666   0.423  52.911  1.00  0.00    -0.204 F 
HETATM    7  C12 UNL     1      21.042   1.776  51.421  1.00  0.00     0.078 A 
HETATM    8  C20 UNL     1      22.300   2.226  51.074  1.00  0.00     0.065 A 
HETATM    9  C21 UNL     1      23.380   1.802  51.820  1.00  0.00     0.072 A 
HETATM   10  N5  UNL     1      24.605   2.241  51.481  1.00  0.00    -0.299 N 
HETATM   11  C22 UNL     1      25.043   3.055  50.513  1.00  0.00     0.215 A 
HETATM   12  N6  UNL     1      26.378   3.186  50.592  1.00  0.00    -0.253 NA
HETATM   13  C23 UNL     1      26.746   2.424  51.641  1.00  0.00     0.151 A 
HETATM   14  C24 UNL     1      25.654   1.816  52.223  1.00  0.00     0.104 A 
ENDROOT
BRANCH   7  15
HETATM   15  N3  UNL     1      19.817   2.102  50.774  1.00  0.00    -0.316 N 
HETATM   16  C13 UNL     1      19.465   1.297  49.613  1.00  0.00     0.159 C 
HETATM   17  C14 UNL     1      19.100   3.181  51.358  1.00  0.00     0.247 C 
HETATM   18  O1  UNL     1      19.741   3.606  52.341  1.00  0.00    -0.268 OA
BRANCH  17  19
HETATM   19  C15 UNL     1      17.834   3.630  50.808  1.00  0.00     0.072 C 
HETATM   20  C16 UNL     1      16.680   3.042  51.050  1.00  0.00     0.008 C 
BRANCH  20  21
HETATM   21  C17 UNL     1      16.338   1.857  51.872  1.00  0.00     0.299 C 
BRANCH  21  22
HETATM   22  N4  UNL     1      14.913   1.949  52.171  1.00  0.00     0.083 N 
HETATM   23  C18 UNL     1      14.479   0.817  52.973  1.00  0.00     0.309 C 
HETATM   24  C19 UNL     1      14.690   3.206  52.877  1.00  0.00     0.309 C 
ENDBRANCH  21  22
ENDBRANCH  20  21
ENDBRANCH  17  19
ENDBRANCH   7  15
BRANCH   1  25
HETATM   25  N1  UNL     1      26.625   0.523  54.070  1.00  0.00    -0.338 N 
HETATM   26  H8  UNL     1      26.648   0.701  55.098  1.00  0.00     0.167 HD
BRANCH  25  27
HETATM   27  C7  UNL     1      27.797  -0.168  53.752  1.00  0.00     0.049 A 
HETATM   28  C2  UNL     1      28.021  -1.478  53.105  1.00  0.00    -0.018 A 
HETATM   29  C1  UNL     1      27.011  -2.229  52.709  1.00  0.00     0.026 C 
HETATM   30  C3  UNL     1      29.449  -1.746  53.004  1.00  0.00     0.013 A 
HETATM   31  C4  UNL     1      30.017  -0.663  53.555  1.00  0.00     0.010 A 
HETATM   32  C5  UNL     1      29.017   0.300  54.012  1.00  0.00    -0.034 A 
HETATM   33  C6  UNL     1      29.332   1.605  54.668  1.00  0.00     0.050 C 
ENDBRANCH  25  27
ENDBRANCH   1  25
TORSDOF 6
ENDMDL
MODEL 3
REMARK VINA RESULT:      -8.6      4.366      6.008
REMARK  6 active torsions:
REMARK  status: ('A' for Active; 'I' for Inactive)
REMARK    1  A    between atoms: C7_7  and  N1_8 
REMARK    2  A    between atoms: N1_8  and  C8_9 
REMARK    3  A    between atoms: C12_15  and  N3_16 
REMARK       I    between atoms: N3_16  and  C14_18 
REMARK    4  A    between atoms: C14_18  and  C15_20 
REMARK    5  A    between atoms: C16_21  and  C17_22 
REMARK    6  A    between atoms: C17_22  and  N4_23 
ROOT
HETATM    1  C8  UNL     1      25.535   0.817  52.976  1.00  0.00     0.157 A 
HETATM    2  N2  UNL     1      25.923   1.777  52.090  1.00  0.00    -0.227 NA
HETATM    3  C9  UNL     1      25.047   2.326  51.233  1.00  0.00     0.089 A 
HETATM    4  C10 UNL     1      25.507   3.294  50.364  1.00  0.00     0.078 A 
HETATM    5  C11 UNL     1      24.590   3.860  49.477  1.00  0.00     0.145 A 
HETATM    6  F1  UNL     1      25.099   4.809  48.642  1.00  0.00    -0.204 F 
HETATM    7  C12 UNL     1      23.254   3.453  49.480  1.00  0.00     0.078 A 
HETATM    8  C20 UNL     1      22.818   2.484  50.360  1.00  0.00     0.065 A 
HETATM    9  C21 UNL     1      23.730   1.929  51.233  1.00  0.00     0.072 A 
HETATM   10  N5  UNL     1      23.304   0.985  52.091  1.00  0.00    -0.299 N 
HETATM   11  C22 UNL     1      22.109   0.421  52.302  1.00  0.00     0.215 A 
HETATM   12  N6  UNL     1      22.197  -0.489  53.287  1.00  0.00    -0.253 NA
HETATM   13  C23 UNL     1      23.487  -0.466  53.673  1.00  0.00     0.151 A 
HETATM   14  C24 UNL     1      24.212   0.450  52.941  1.00  0.00     0.104 A 
ENDROOT
BRANCH   7  15
HETATM   15  N3  UNL     1      22.465   4.135  48.512  1.00  0.00    -0.316 N 
HETATM   16  C13 UNL     1      22.085   5.503  48.835  1.00  0.00     0.159 C 
HETATM   17  C14 UNL     1      22.153   3.377  47.351  1.00  0.00     0.247 C 
HETATM   18  O1  UNL     1      22.668   2.245  47.459  1.00  0.00    -0.268 OA
BRANCH  17  19
HETATM   19  C15 UNL     1      21.355   3.938  46.275  1.00  0.00     0.072 C 
HETATM   20  C16 UNL     1      20.042   3.857  46.218  1.00  0.00     0.008 C 
BRANCH  20  21
HETATM   21  C17 UNL     1      19.058   3.232  47.135  1.00  0.00     0.299 C 
BRANCH  21  22
HETATM   22  N4  UNL     1      18.792   4.203  48.191  1.00  0.00     0.083 N 
HETATM   23  C18 UNL     1      17.451   4.750  48.064  1.00  0.00     0.309 C 
HETATM   24  C19 UNL     1      18.960   3.523  49.470  1.00  0.00     0.309 C 
ENDBRANCH  21  22
ENDBRANCH  20  21
ENDBRANCH  17  19
ENDBRANCH   7  15
BRANCH   1  25
HETATM   25  N1  UNL     1      26.481   0.263  53.858  1.00  0.00    -0.338 N 
HETATM   26  H8  UNL     1      26.252   0.141  54.868  1.00  0.00     0.167 HD
BRANCH  25  27
HETATM   27  C7  UNL     1      27.785  -0.207  53.678  1.00  0.00     0.049 A 
HETATM   28  C2  UNL     1      29.098   0.385  54.009  1.00  0.00    -0.018 A 
HETATM   29  C1  UNL     1      29.191   1.571  54.582  1.00  0.00     0.026 C 
HETATM   30  C3  UNL     1      30.167  -0.520  53.611  1.00  0.00     0.013 A 
HETATM   31  C4  UNL     1      29.518  -1.569  53.084  1.00  0.00     0.010 A 
HETATM   32  C5  UNL     1      28.069  -1.384  53.122  1.00  0.00    -0.034 A 
HETATM   33  C6  UNL     1      27.072  -2.373  52.611  1.00  0.00     0.050 C 
ENDBRANCH  25  27
ENDBRANCH   1  25
TORSDOF 6
ENDMDL
MODEL 4
REMARK VINA RESULT:      -8.6      4.008      5.373
REMARK  6 active torsions:
REMARK  status: ('A' for Active; 'I' for Inactive)
REMARK    1  A    between atoms: C7_7  and  N1_8 
REMARK    2  A    between atoms: N1_8  and  C8_9 
REMARK    3  A    between atoms: C12_15  and  N3_16 
REMARK       I    between atoms: N3_16  and  C14_18 
REMARK    4  A    between atoms: C14_18  and  C15_20 
REMARK    5  A    between atoms: C16_21  and  C17_22 
REMARK    6  A    between atoms: C17_22  and  N4_23 
ROOT
HETATM    1  C8  UNL     1      25.591   1.127  53.010  1.00  0.00     0.157 A 
HETATM    2  N2  UNL     1      25.746   2.114  52.082  1.00  0.00    -0.227 NA
HETATM    3  C9  UNL     1      24.738   2.462  51.265  1.00  0.00     0.089 A 
HETATM    4  C10 UNL     1      24.963   3.470  50.350  1.00  0.00     0.078 A 
HETATM    5  C11 UNL     1      23.912   3.827  49.505  1.00  0.00     0.145 A 
HETATM    6  F1  UNL     1      24.189   4.827  48.621  1.00  0.00    -0.204 F 
HETATM    7  C12 UNL     1      22.677   3.179  49.592  1.00  0.00     0.078 A 
HETATM    8  C20 UNL     1      22.478   2.174  50.516  1.00  0.00     0.065 A 
HETATM    9  C21 UNL     1      23.522   1.827  51.348  1.00  0.00     0.072 A 
HETATM   10  N5  UNL     1      23.326   0.848  52.249  1.00  0.00    -0.299 N 
HETATM   11  C22 UNL     1      22.270   0.078  52.540  1.00  0.00     0.215 A 
HETATM   12  N6  UNL     1      22.578  -0.768  53.538  1.00  0.00    -0.253 NA
HETATM   13  C23 UNL     1      23.860  -0.492  53.850  1.00  0.00     0.151 A 
HETATM   14  C24 UNL     1      24.360   0.519  53.058  1.00  0.00     0.104 A 
ENDROOT
BRANCH   7  15
HETATM   15  N3  UNL     1      21.726   3.670  48.656  1.00  0.00    -0.316 N 
HETATM   16  C13 UNL     1      20.884   4.769  49.106  1.00  0.00     0.159 C 
HETATM   17  C14 UNL     1      21.729   3.012  47.396  1.00  0.00     0.247 C 
HETATM   18  O1  UNL     1      22.603   2.121  47.409  1.00  0.00    -0.268 OA
BRANCH  17  19
HETATM   19  C15 UNL     1      20.813   3.401  46.339  1.00  0.00     0.072 C 
HETATM   20  C16 UNL     1      21.054   4.372  45.481  1.00  0.00     0.008 C 
BRANCH  20  21
HETATM   21  C17 UNL     1      22.214   5.284  45.335  1.00  0.00     0.299 C 
BRANCH  21  22
HETATM   22  N4  UNL     1      21.915   6.473  46.125  1.00  0.00     0.083 N 
HETATM   23  C18 UNL     1      23.138   7.156  46.513  1.00  0.00     0.309 C 
HETATM   24  C19 UNL     1      21.066   7.340  45.317  1.00  0.00     0.309 C 
ENDBRANCH  21  22
ENDBRANCH  20  21
ENDBRANCH  17  19
ENDBRANCH   7  15
BRANCH   1  25
HETATM   25  N1  UNL     1      26.669   0.788  53.848  1.00  0.00    -0.338 N 
HETATM   26  H8  UNL     1      26.687   1.110  54.840  1.00  0.00     0.167 HD
BRANCH  25  27
HETATM   27  C7  UNL     1      27.836   0.048  53.642  1.00  0.00     0.049 A 
HETATM   28  C2  UNL     1      28.056  -1.311  53.103  1.00  0.00    -0.018 A 
HETATM   29  C1  UNL     1      27.046  -2.065  52.710  1.00  0.00     0.026 C 
HETATM   30  C3  UNL     1      29.479  -1.620  53.096  1.00  0.00     0.013 A 
HETATM   31  C4  UNL     1      30.049  -0.513  53.596  1.00  0.00     0.010 A 
HETATM   32  C5  UNL     1      29.054   0.504  53.930  1.00  0.00    -0.034 A 
HETATM   33  C6  UNL     1      29.372   1.846  54.506  1.00  0.00     0.050 C 
ENDBRANCH  25  27
ENDBRANCH   1  25
TORSDOF 6
ENDMDL
MODEL 5
REMARK VINA RESULT:      -8.5      5.320      7.188
REMARK  6 active torsions:
REMARK  status: ('A' for Active; 'I' for Inactive)
REMARK    1  A    between atoms: C7_7  and  N1_8 
REMARK    2  A    between atoms: N1_8  and  C8_9 
REMARK    3  A    between atoms: C12_15  and  N3_16 
REMARK       I    between atoms: N3_16  and  C14_18 
REMARK    4  A    between atoms: C14_18  and  C15_20 
REMARK    5  A    between atoms: C16_21  and  C17_22 
REMARK    6  A    between atoms: C17_22  and  N4_23 
ROOT
HETATM    1  C8  UNL     1      25.507   0.344  53.470  1.00  0.00     0.157 A 
HETATM    2  N2  UNL     1      24.242  -0.089  53.735  1.00  0.00    -0.227 NA
HETATM    3  C9  UNL     1      23.186   0.405  53.067  1.00  0.00     0.089 A 
HETATM    4  C10 UNL     1      21.933  -0.079  53.384  1.00  0.00     0.078 A 
HETATM    5  C11 UNL     1      20.841   0.438  52.686  1.00  0.00     0.145 A 
HETATM    6  F1  UNL     1      19.629  -0.074  53.040  1.00  0.00    -0.204 F 
HETATM    7  C12 UNL     1      21.022   1.412  51.701  1.00  0.00     0.078 A 
HETATM    8  C20 UNL     1      22.286   1.879  51.402  1.00  0.00     0.065 A 
HETATM    9  C21 UNL     1      23.361   1.363  52.096  1.00  0.00     0.072 A 
HETATM   10  N5  UNL     1      24.592   1.818  51.803  1.00  0.00    -0.299 N 
HETATM   11  C22 UNL     1      25.041   2.725  50.928  1.00  0.00     0.215 A 
HETATM   12  N6  UNL     1      26.378   2.828  51.017  1.00  0.00    -0.253 NA
HETATM   13  C23 UNL     1      26.735   1.954  51.978  1.00  0.00     0.151 A 
HETATM   14  C24 UNL     1      25.635   1.302  52.494  1.00  0.00     0.104 A 
ENDROOT
BRANCH   7  15
HETATM   15  N3  UNL     1      19.802   1.822  51.095  1.00  0.00    -0.316 N 
HETATM   16  C13 UNL     1      19.360   1.049  49.944  1.00  0.00     0.159 C 
HETATM   17  C14 UNL     1      19.178   2.943  51.706  1.00  0.00     0.247 C 
HETATM   18  O1  UNL     1      19.876   3.318  52.670  1.00  0.00    -0.268 OA
BRANCH  17  19
HETATM   19  C15 UNL     1      17.927   3.479  51.199  1.00  0.00     0.072 C 
HETATM   20  C16 UNL     1      17.851   4.450  50.313  1.00  0.00     0.008 C 
BRANCH  20  21
HETATM   21  C17 UNL     1      18.905   5.230  49.621  1.00  0.00     0.299 C 
BRANCH  21  22
HETATM   22  N4  UNL     1      19.346   4.426  48.487  1.00  0.00     0.083 N 
HETATM   23  C18 UNL     1      18.648   4.818  47.273  1.00  0.00     0.309 C 
HETATM   24  C19 UNL     1      20.785   4.612  48.345  1.00  0.00     0.309 C 
ENDBRANCH  21  22
ENDBRANCH  20  21
ENDBRANCH  17  19
ENDBRANCH   7  15
BRANCH   1  25
HETATM   25  N1  UNL     1      26.589  -0.195  54.190  1.00  0.00    -0.338 N 
HETATM   26  H8  UNL     1      26.462  -0.508  55.177  1.00  0.00     0.167 HD
BRANCH  25  27
HETATM   27  C7  UNL     1      27.925  -0.432  53.858  1.00  0.00     0.049 A 
HETATM   28  C2  UNL     1      29.158   0.335  54.134  1.00  0.00    -0.018 A 
HETATM   29  C1  UNL     1      29.124   1.470  54.807  1.00  0.00     0.026 C 
HETATM   30  C3  UNL     1      30.310  -0.350  53.563  1.00  0.00     0.013 A 
HETATM   31  C4  UNL     1      29.781  -1.444  52.995  1.00  0.00     0.010 A 
HETATM   32  C5  UNL     1      28.331  -1.500  53.171  1.00  0.00    -0.034 A 
HETATM   33  C6  UNL     1      27.453  -2.592  52.653  1.00  0.00     0.050 C 
ENDBRANCH  25  27
ENDBRANCH   1  25
TORSDOF 6
ENDMDL
MODEL 6
REMARK VINA RESULT:      -8.5      4.519      6.507
REMARK  6 active torsions:
REMARK  status: ('A' for Active; 'I' for Inactive)
REMARK    1  A    between atoms: C7_7  and  N1_8 
REMARK    2  A    between atoms: N1_8  and  C8_9 
REMARK    3  A    between atoms: C12_15  and  N3_16 
REMARK       I    between atoms: N3_16  and  C14_18 
REMARK    4  A    between atoms: C14_18  and  C15_20 
REMARK    5  A    between atoms: C16_21  and  C17_22 
REMARK    6  A    between atoms: C17_22  and  N4_23 
ROOT
HETATM    1  C8  UNL     1      25.575   1.125  52.937  1.00  0.00     0.157 A 
HETATM    2  N2  UNL     1      25.744   2.104  52.004  1.00  0.00    -0.227 NA
HETATM    3  C9  UNL     1      24.750   2.445  51.168  1.00  0.00     0.089 A 
HETATM    4  C10 UNL     1      24.989   3.444  50.247  1.00  0.00     0.078 A 
HETATM    5  C11 UNL     1      23.951   3.794  49.382  1.00  0.00     0.145 A 
HETATM    6  F1  UNL     1      24.242   4.785  48.494  1.00  0.00    -0.204 F 
HETATM    7  C12 UNL     1      22.715   3.146  49.455  1.00  0.00     0.078 A 
HETATM    8  C20 UNL     1      22.502   2.149  50.386  1.00  0.00     0.065 A 
HETATM    9  C21 UNL     1      23.532   1.810  51.237  1.00  0.00     0.072 A 
HETATM   10  N5  UNL     1      23.322   0.839  52.143  1.00  0.00    -0.299 N 
HETATM   11  C22 UNL     1      22.262   0.072  52.424  1.00  0.00     0.215 A 
HETATM   12  N6  UNL     1      22.554  -0.765  53.435  1.00  0.00    -0.253 NA
HETATM   13  C23 UNL     1      23.831  -0.486  53.764  1.00  0.00     0.151 A 
HETATM   14  C24 UNL     1      24.344   0.517  52.971  1.00  0.00     0.104 A 
ENDROOT
BRANCH   7  15
HETATM   15  N3  UNL     1      21.779   3.628  48.500  1.00  0.00    -0.316 N 
HETATM   16  C13 UNL     1      21.811   3.000  47.187  1.00  0.00     0.159 C 
HETATM   17  C14 UNL     1      20.931   4.670  48.965  1.00  0.00     0.247 C 
HETATM   18  O1  UNL     1      21.221   4.925  50.153  1.00  0.00    -0.268 OA
BRANCH  17  19
HETATM   19  C15 UNL     1      19.925   5.265  48.105  1.00  0.00     0.072 C 
HETATM   20  C16 UNL     1      18.673   4.858  48.050  1.00  0.00     0.008 C 
BRANCH  20  21
HETATM   21  C17 UNL     1      17.963   3.775  48.772  1.00  0.00     0.299 C 
BRANCH  21  22
HETATM   22  N4  UNL     1      17.379   4.378  49.965  1.00  0.00     0.083 N 
HETATM   23  C18 UNL     1      15.935   4.206  49.976  1.00  0.00     0.309 C 
HETATM   24  C19 UNL     1      17.990   3.743  51.126  1.00  0.00     0.309 C 
ENDBRANCH  21  22
ENDBRANCH  20  21
ENDBRANCH  17  19
ENDBRANCH   7  15
BRANCH   1  25
HETATM   25  N1  UNL     1      26.639   0.794  53.796  1.00  0.00    -0.338 N 
HETATM   26  H8  UNL     1      26.637   1.116  54.788  1.00  0.00     0.167 HD
BRANCH  25  27
HETATM   27  C7  UNL     1      27.815   0.062  53.611  1.00  0.00     0.049 A 
HETATM   28  C2  UNL     1      28.052  -1.304  53.101  1.00  0.00    -0.018 A 
HETATM   29  C1  UNL     1      27.053  -2.076  52.716  1.00  0.00     0.026 C 
HETATM   30  C3  UNL     1      29.479  -1.599  53.108  1.00  0.00     0.013 A 
HETATM   31  C4  UNL     1      30.034  -0.476  53.590  1.00  0.00     0.010 A 
HETATM   32  C5  UNL     1      29.027   0.537  53.898  1.00  0.00    -0.034 A 
HETATM   33  C6  UNL     1      29.327   1.893  54.450  1.00  0.00     0.050 C 
ENDBRANCH  25  27
ENDBRANCH   1  25
TORSDOF 6
ENDMDL
MODEL 7
REMARK VINA RESULT:      -8.3      2.419      3.172
REMARK  6 active torsions:
REMARK  status: ('A' for Active; 'I' for Inactive)
REMARK    1  A    between atoms: C7_7  and  N1_8 
REMARK    2  A    between atoms: N1_8  and  C8_9 
REMARK    3  A    between atoms: C12_15  and  N3_16 
REMARK       I    between atoms: N3_16  and  C14_18 
REMARK    4  A    between atoms: C14_18  and  C15_20 
REMARK    5  A    between atoms: C16_21  and  C17_22 
REMARK    6  A    between atoms: C17_22  and  N4_23 
ROOT
HETATM    1  C8  UNL     1      22.947   1.575  51.682  1.00  0.00     0.157 A 
HETATM    2  N2  UNL     1      24.060   1.976  51.005  1.00  0.00    -0.227 NA
HETATM    3  C9  UNL     1      24.157   3.220  50.506  1.00  0.00     0.089 A 
HETATM    4  C10 UNL     1      25.312   3.560  49.832  1.00  0.00     0.078 A 
HETATM    5  C11 UNL     1      25.406   4.854  49.317  1.00  0.00     0.145 A 
HETATM    6  F1  UNL     1      26.567   5.135  48.661  1.00  0.00    -0.204 F 
HETATM    7  C12 UNL     1      24.360   5.764  49.484  1.00  0.00     0.078 A 
HETATM    8  C20 UNL     1      23.216   5.399  50.162  1.00  0.00     0.065 A 
HETATM    9  C21 UNL     1      23.130   4.119  50.669  1.00  0.00     0.072 A 
HETATM   10  N5  UNL     1      22.014   3.764  51.330  1.00  0.00    -0.299 N 
HETATM   11  C22 UNL     1      20.886   4.421  51.628  1.00  0.00     0.215 A 
HETATM   12  N6  UNL     1      20.055   3.620  52.316  1.00  0.00    -0.253 NA
HETATM   13  C23 UNL     1      20.710   2.448  52.431  1.00  0.00     0.151 A 
HETATM   14  C24 UNL     1      21.945   2.505  51.821  1.00  0.00     0.104 A 
ENDROOT
BRANCH   7  15
HETATM   15  N3  UNL     1      24.628   7.031  48.895  1.00  0.00    -0.316 N 
HETATM   16  C13 UNL     1      24.204   7.204  47.513  1.00  0.00     0.159 C 
HETATM   17  C14 UNL     1      25.281   7.962  49.747  1.00  0.00     0.247 C 
HETATM   18  O1  UNL     1      25.472   7.426  50.858  1.00  0.00    -0.268 OA
BRANCH  17  19
HETATM   19  C15 UNL     1      25.621   9.296  49.287  1.00  0.00     0.072 C 
HETATM   20  C16 UNL     1      26.854   9.703  49.064  1.00  0.00     0.008 C 
BRANCH  20  21
HETATM   21  C17 UNL     1      28.155   9.005  49.198  1.00  0.00     0.299 C 
BRANCH  21  22
HETATM   22  N4  UNL     1      28.712   8.892  47.855  1.00  0.00     0.083 N 
HETATM   23  C18 UNL     1      28.101   7.787  47.133  1.00  0.00     0.309 C 
HETATM   24  C19 UNL     1      28.475  10.157  47.170  1.00  0.00     0.309 C 
ENDBRANCH  21  22
ENDBRANCH  20  21
ENDBRANCH  17  19
ENDBRANCH   7  15
BRANCH   1  25
HETATM   25  N1  UNL     1      22.879   0.265  52.190  1.00  0.00    -0.338 N 
HETATM   26  H8  UNL     1      22.465  -0.502  51.618  1.00  0.00     0.167 HD
BRANCH  25  27
HETATM   27  C7  UNL     1      23.279  -0.305  53.402  1.00  0.00     0.049 A 
HETATM   28  C2  UNL     1      24.617  -0.554  53.978  1.00  0.00    -0.018 A 
HETATM   29  C1  UNL     1      25.716  -0.224  53.326  1.00  0.00     0.026 C 
HETATM   30  C3  UNL     1      24.488  -1.181  55.287  1.00  0.00     0.013 A 
HETATM   31  C4  UNL     1      23.162  -1.287  55.460  1.00  0.00     0.010 A 
HETATM   32  C5  UNL     1      22.421  -0.756  54.317  1.00  0.00    -0.034 A 
HETATM   33  C6  UNL     1      20.932  -0.731  54.207  1.00  0.00     0.050 C 
ENDBRANCH  25  27
ENDBRANCH   1  25
TORSDOF 6
ENDMDL
MODEL 8
REMARK VINA RESULT:      -8.2      6.247      9.782
REMARK  6 active torsions:
REMARK  status: ('A' for Active; 'I' for Inactive)
REMARK    1  A    between atoms: C7_7  and  N1_8 
REMARK    2  A    between atoms: N1_8  and  C8_9 
REMARK    3  A    between atoms: C12_15  and  N3_16 
REMARK       I    between atoms: N3_16  and  C14_18 
REMARK    4  A    between atoms: C14_18  and  C15_20 
REMARK    5  A    between atoms: C16_21  and  C17_22 
REMARK    6  A    between atoms: C17_22  and  N4_23 
ROOT
HETATM    1  C8  UNL     1      22.964   2.709  52.540  1.00  0.00     0.157 A 
HETATM    2  N2  UNL     1      21.909   1.845  52.541  1.00  0.00    -0.227 NA
HETATM    3  C9  UNL     1      20.717   2.206  52.039  1.00  0.00     0.089 A 
HETATM    4  C10 UNL     1      19.693   1.282  52.071  1.00  0.00     0.078 A 
HETATM    5  C11 UNL     1      18.456   1.664  51.547  1.00  0.00     0.145 A 
HETATM    6  F1  UNL     1      17.481   0.714  51.605  1.00  0.00    -0.204 F 
HETATM    7  C12 UNL     1      18.275   2.942  51.011  1.00  0.00     0.078 A 
HETATM    8  C20 UNL     1      19.316   3.847  50.991  1.00  0.00     0.065 A 
HETATM    9  C21 UNL     1      20.534   3.462  51.510  1.00  0.00     0.072 A 
HETATM   10  N5  UNL     1      21.548   4.346  51.489  1.00  0.00    -0.299 N 
HETATM   11  C22 UNL     1      21.647   5.605  51.047  1.00  0.00     0.215 A 
HETATM   12  N6  UNL     1      22.892   6.069  51.255  1.00  0.00    -0.253 NA
HETATM   13  C23 UNL     1      23.553   5.051  51.841  1.00  0.00     0.151 A 
HETATM   14  C24 UNL     1      22.737   3.953  52.003  1.00  0.00     0.104 A 
ENDROOT
BRANCH   7  15
HETATM   15  N3  UNL     1      16.955   3.156  50.525  1.00  0.00    -0.316 N 
HETATM   16  C13 UNL     1      16.666   2.646  49.192  1.00  0.00     0.159 C 
HETATM   17  C14 UNL     1      16.093   3.848  51.418  1.00  0.00     0.247 C 
HETATM   18  O1  UNL     1      16.723   4.114  52.462  1.00  0.00    -0.268 OA
BRANCH  17  19
HETATM   19  C15 UNL     1      14.716   4.141  51.062  1.00  0.00     0.072 C 
HETATM   20  C16 UNL     1      13.674   3.697  51.734  1.00  0.00     0.008 C 
BRANCH  20  21
HETATM   21  C17 UNL     1      13.579   2.842  52.942  1.00  0.00     0.299 C 
BRANCH  21  22
HETATM   22  N4  UNL     1      12.253   3.062  53.508  1.00  0.00     0.083 N 
HETATM   23  C18 UNL     1      11.916   2.012  54.457  1.00  0.00     0.309 C 
HETATM   24  C19 UNL     1      12.259   4.368  54.155  1.00  0.00     0.309 C 
ENDBRANCH  21  22
ENDBRANCH  20  21
ENDBRANCH  17  19
ENDBRANCH   7  15
BRANCH   1  25
HETATM   25  N1  UNL     1      24.198   2.296  53.075  1.00  0.00    -0.338 N 
HETATM   26  H8  UNL     1      24.661   2.855  53.825  1.00  0.00     0.167 HD
BRANCH  25  27
HETATM   27  C7  UNL     1      25.030   1.206  52.811  1.00  0.00     0.049 A 
HETATM   28  C2  UNL     1      25.007  -0.190  53.297  1.00  0.00    -0.018 A 
HETATM   29  C1  UNL     1      24.080  -0.607  54.140  1.00  0.00     0.026 C 
HETATM   30  C3  UNL     1      26.110  -0.940  52.714  1.00  0.00     0.013 A 
HETATM   31  C4  UNL     1      26.734  -0.039  51.938  1.00  0.00     0.010 A 
HETATM   32  C5  UNL     1      26.081   1.267  51.994  1.00  0.00    -0.034 A 
HETATM   33  C6  UNL     1      26.536   2.476  51.243  1.00  0.00     0.050 C 
ENDBRANCH  25  27
ENDBRANCH   1  25
TORSDOF 6
ENDMDL
MODEL 9
REMARK VINA RESULT:      -8.0      2.099      3.093
REMARK  6 active torsions:
REMARK  status: ('A' for Active; 'I' for Inactive)
REMARK    1  A    between atoms: C7_7  and  N1_8 
REMARK    2  A    between atoms: N1_8  and  C8_9 
REMARK    3  A    between atoms: C12_15  and  N3_16 
REMARK       I    between atoms: N3_16  and  C14_18 
REMARK    4  A    between atoms: C14_18  and  C15_20 
REMARK    5  A    between atoms: C16_21  and  C17_22 
REMARK    6  A    between atoms: C17_22  and  N4_23 
ROOT
HETATM    1  C8  UNL     1      24.393   2.916  50.811  1.00  0.00     0.157 A 
HETATM    2  N2  UNL     1      25.521   3.114  50.070  1.00  0.00    -0.227 NA
HETATM    3  C9  UNL     1      25.900   4.348  49.699  1.00  0.00     0.089 A 
HETATM    4  C10 UNL     1      27.052   4.475  48.951  1.00  0.00     0.078 A 
HETATM    5  C11 UNL     1      27.441   5.760  48.570  1.00  0.00     0.145 A 
HETATM    6  F1  UNL     1      28.585   5.827  47.832  1.00  0.00    -0.204 F 
HETATM    7  C12 UNL     1      26.680   6.872  48.939  1.00  0.00     0.078 A 
HETATM    8  C20 UNL     1      25.532   6.718  49.688  1.00  0.00     0.065 A 
HETATM    9  C21 UNL     1      25.154   5.445  50.061  1.00  0.00     0.072 A 
HETATM   10  N5  UNL     1      24.035   5.296  50.792  1.00  0.00    -0.299 N 
HETATM   11  C22 UNL     1      23.140   6.167  51.272  1.00  0.00     0.215 A 
HETATM   12  N6  UNL     1      22.182   5.515  51.952  1.00  0.00    -0.253 NA
HETATM   13  C23 UNL     1      22.518   4.213  51.873  1.00  0.00     0.151 A 
HETATM   14  C24 UNL     1      23.679   4.040  51.150  1.00  0.00     0.104 A 
ENDROOT
BRANCH   7  15
HETATM   15  N3  UNL     1      27.224   8.098  48.464  1.00  0.00    -0.316 N 
HETATM   16  C13 UNL     1      28.247   8.717  49.295  1.00  0.00     0.159 C 
HETATM   17  C14 UNL     1      26.686   8.554  47.231  1.00  0.00     0.247 C 
HETATM   18  O1  UNL     1      25.828   7.737  46.838  1.00  0.00    -0.268 OA
BRANCH  17  19
HETATM   19  C15 UNL     1      27.140   9.791  46.620  1.00  0.00     0.072 C 
HETATM   20  C16 UNL     1      26.404  10.879  46.533  1.00  0.00     0.008 C 
BRANCH  20  21
HETATM   21  C17 UNL     1      25.019  11.163  46.979  1.00  0.00     0.299 C 
BRANCH  21  22
HETATM   22  N4  UNL     1      24.898  12.614  47.074  1.00  0.00     0.083 N 
HETATM   23  C18 UNL     1      23.605  12.989  47.625  1.00  0.00     0.309 C 
HETATM   24  C19 UNL     1      25.985  13.094  47.919  1.00  0.00     0.309 C 
ENDBRANCH  21  22
ENDBRANCH  20  21
ENDBRANCH  17  19
ENDBRANCH   7  15
BRANCH   1  25
HETATM   25  N1  UNL     1      24.026   1.610  51.180  1.00  0.00    -0.338 N 
HETATM   26  H8  UNL     1      23.351   1.067  50.600  1.00  0.00     0.167 HD
BRANCH  25  27
HETATM   27  C7  UNL     1      24.392   0.788  52.249  1.00  0.00     0.049 A 
HETATM   28  C2  UNL     1      25.693   0.208  52.643  1.00  0.00    -0.018 A 
HETATM   29  C1  UNL     1      26.787   0.433  51.938  1.00  0.00     0.026 C 
HETATM   30  C3  UNL     1      25.539  -0.589  53.852  1.00  0.00     0.013 A 
HETATM   31  C4  UNL     1      24.234  -0.478  54.143  1.00  0.00     0.010 A 
HETATM   32  C5  UNL     1      23.532   0.358  53.172  1.00  0.00    -0.034 A 
HETATM   33  C6  UNL     1      22.072   0.672  53.219  1.00  0.00     0.050 C 
ENDBRANCH  25  27
ENDBRANCH   1  25
TORSDOF 6
ENDMDL
