MODEL 1
REMARK VINA RESULT:     -10.0      0.000      0.000
REMARK  4 active torsions:
REMARK  status: ('A' for Active; 'I' for Inactive)
REMARK    1  A    between atoms: O1_2  and  C2_3 
REMARK    2  A    between atoms: C5_6  and  C6_7 
REMARK    3  A    between atoms: N2_9  and  C7_10 
REMARK    4  A    between atoms: C15_20  and  C16_21 
ROOT
HETATM    1  C6  UNL     1      22.715   1.579  52.555  1.00  0.00     0.067 C 
HETATM    2  N1  UNL     1      23.749   0.870  52.397  1.00  0.00    -0.180 NA
HETATM    3  N2  UNL     1      24.901   1.613  52.378  1.00  0.00    -0.286 N 
HETATM    4  C15 UNL     1      24.504   3.029  52.197  1.00  0.00     0.134 C 
HETATM    5  C23 UNL     1      23.072   3.006  52.679  1.00  0.00     0.093 C 
ENDROOT
BRANCH   3   6
HETATM    6  C7  UNL     1      26.289   1.126  52.479  1.00  0.00     0.157 C 
HETATM    7  C8  UNL     1      25.975  -0.048  53.352  1.00  0.00     0.014 C 
HETATM    8  C9  UNL     1      26.052  -1.308  52.890  1.00  0.00    -0.031 C 
HETATM    9  C10 UNL     1      27.370  -1.576  52.656  1.00  0.00    -0.005 C 
HETATM   10  C11 UNL     1      28.173  -0.577  53.458  1.00  0.00     0.049 A 
HETATM   11  C12 UNL     1      29.029  -0.115  54.492  1.00  0.00     0.038 A 
HETATM   12  C13 UNL     1      28.655   0.922  53.721  1.00  0.00    -0.042 A 
HETATM   13  C14 UNL     1      28.315   1.801  53.058  1.00  0.00     0.049 A 
HETATM   14  N3  UNL     1      27.897   2.810  52.288  1.00  0.00    -0.220 NA
HETATM   15  O2  UNL     1      26.935   2.177  53.027  1.00  0.00     0.000 OA
HETATM   16  H11 UNL     1      28.878   2.969  51.948  1.00  0.00     0.147 HD
ENDBRANCH   3   6
BRANCH   4  17
HETATM   17  C16 UNL     1      24.563   3.391  50.775  1.00  0.00     0.004 C 
HETATM   18  C17 UNL     1      24.327   4.624  50.898  1.00  0.00    -0.066 A 
HETATM   19  C18 UNL     1      24.423   4.944  49.146  1.00  0.00     0.068 A 
HETATM   20  C22 UNL     1      23.953   6.394  51.473  1.00  0.00     0.070 A 
HETATM   21  C19 UNL     1      24.314   6.069  48.040  1.00  0.00     0.040 A 
HETATM   22  C21 UNL     1      24.079   6.307  50.218  1.00  0.00    -0.060 A 
HETATM   23  C20 UNL     1      24.179   6.216  49.270  1.00  0.00    -0.058 A 
ENDBRANCH   4  17
BRANCH   1  24
HETATM   24  C5  UNL     1      21.446   0.871  52.585  1.00  0.00    -0.010 A 
HETATM   25  C4  UNL     1      20.486   0.924  51.603  1.00  0.00     0.016 A 
HETATM   26  C3  UNL     1      19.306   0.189  51.771  1.00  0.00     0.037 A 
HETATM   27  C2  UNL     1      19.121  -0.573  52.906  1.00  0.00     0.068 A 
HETATM   28  C25 UNL     1      20.100  -0.606  53.875  1.00  0.00     0.037 A 
HETATM   29  C24 UNL     1      21.279   0.129  53.707  1.00  0.00     0.016 A 
BRANCH  27  30
HETATM   30  O1  UNL     1      17.925  -1.273  52.998  1.00  0.00    -0.356 OA
HETATM   31  C1  UNL     1      17.765  -2.534  53.573  1.00  0.00     0.210 C 
ENDBRANCH  27  30
ENDBRANCH   1  24
TORSDOF 4
ENDMDL
MODEL 2
REMARK VINA RESULT:      -9.7      2.121      7.701
REMARK  4 active torsions:
REMARK  status: ('A' for Active; 'I' for Inactive)
REMARK    1  A    between atoms: O1_2  and  C2_3 
REMARK    2  A    between atoms: C5_6  and  C6_7 
REMARK    3  A    between atoms: N2_9  and  C7_10 
REMARK    4  A    between atoms: C15_20  and  C16_21 
ROOT
HETATM    1  C6  UNL     1      25.309   2.674  51.611  1.00  0.00     0.067 C 
HETATM    2  N1  UNL     1      24.289   1.988  51.315  1.00  0.00    -0.180 NA
HETATM    3  N2  UNL     1      23.975   1.067  52.281  1.00  0.00    -0.286 N 
HETATM    4  C15 UNL     1      25.149   0.956  53.178  1.00  0.00     0.134 C 
HETATM    5  C23 UNL     1      25.848   2.272  52.925  1.00  0.00     0.093 C 
ENDROOT
BRANCH   3   6
HETATM    6  C7  UNL     1      22.730   0.289  52.412  1.00  0.00     0.157 C 
HETATM    7  C8  UNL     1      21.823   1.365  51.903  1.00  0.00     0.014 C 
HETATM    8  C9  UNL     1      21.217   1.267  50.708  1.00  0.00    -0.031 C 
HETATM    9  C10 UNL     1      20.303   0.257  50.796  1.00  0.00    -0.005 C 
HETATM   10  C11 UNL     1      20.023   0.042  52.265  1.00  0.00     0.049 A 
HETATM   11  C12 UNL     1      19.276   0.069  53.473  1.00  0.00     0.038 A 
HETATM   12  C13 UNL     1      20.500  -0.435  53.712  1.00  0.00    -0.042 A 
HETATM   13  C14 UNL     1      21.557  -0.851  53.903  1.00  0.00     0.049 A 
HETATM   14  N3  UNL     1      22.793  -1.317  54.108  1.00  0.00    -0.220 NA
HETATM   15  O2  UNL     1      22.699  -0.005  53.729  1.00  0.00     0.000 OA
HETATM   16  H11 UNL     1      22.406  -2.262  54.355  1.00  0.00     0.147 HD
ENDBRANCH   3   6
BRANCH   4  17
HETATM   17  C16 UNL     1      25.998  -0.167  52.759  1.00  0.00     0.004 C 
HETATM   18  C17 UNL     1      26.991   0.079  53.497  1.00  0.00    -0.066 A 
HETATM   19  C18 UNL     1      27.930  -1.319  52.912  1.00  0.00     0.068 A 
HETATM   20  C22 UNL     1      28.264   0.760  54.730  1.00  0.00     0.070 A 
HETATM   21  C19 UNL     1      29.302  -2.092  53.054  1.00  0.00     0.040 A 
HETATM   22  C21 UNL     1      28.670  -0.280  54.134  1.00  0.00    -0.060 A 
HETATM   23  C20 UNL     1      28.956  -1.067  53.671  1.00  0.00    -0.058 A 
ENDBRANCH   4  17
BRANCH   1  24
HETATM   24  C5  UNL     1      25.715   3.676  50.640  1.00  0.00    -0.010 A 
HETATM   25  C4  UNL     1      26.787   3.564  49.787  1.00  0.00     0.016 A 
HETATM   26  C3  UNL     1      27.061   4.616  48.904  1.00  0.00     0.037 A 
HETATM   27  C2  UNL     1      26.263   5.741  48.898  1.00  0.00     0.068 A 
HETATM   28  C25 UNL     1      25.195   5.826  49.765  1.00  0.00     0.037 A 
HETATM   29  C24 UNL     1      24.922   4.775  50.647  1.00  0.00     0.016 A 
BRANCH  27  30
HETATM   30  O1  UNL     1      26.600   6.739  47.993  1.00  0.00    -0.356 OA
HETATM   31  C1  UNL     1      27.880   7.259  47.800  1.00  0.00     0.210 C 
ENDBRANCH  27  30
ENDBRANCH   1  24
TORSDOF 4
ENDMDL
MODEL 3
REMARK VINA RESULT:      -9.6      2.715      6.893
REMARK  4 active torsions:
REMARK  status: ('A' for Active; 'I' for Inactive)
REMARK    1  A    between atoms: O1_2  and  C2_3 
REMARK    2  A    between atoms: C5_6  and  C6_7 
REMARK    3  A    between atoms: N2_9  and  C7_10 
REMARK    4  A    between atoms: C15_20  and  C16_21 
ROOT
HETATM    1  C6  UNL     1      26.229   3.431  50.012  1.00  0.00     0.067 C 
HETATM    2  N1  UNL     1      26.873   3.055  51.032  1.00  0.00    -0.180 NA
HETATM    3  N2  UNL     1      26.375   1.898  51.574  1.00  0.00    -0.286 N 
HETATM    4  C15 UNL     1      25.035   1.679  50.981  1.00  0.00     0.134 C 
HETATM    5  C23 UNL     1      25.130   2.492  49.710  1.00  0.00     0.093 C 
ENDROOT
BRANCH   3   6
HETATM    6  C7  UNL     1      27.010   1.031  52.584  1.00  0.00     0.157 C 
HETATM    7  C8  UNL     1      28.316   1.760  52.612  1.00  0.00     0.014 C 
HETATM    8  C9  UNL     1      28.689   2.493  53.675  1.00  0.00    -0.031 C 
HETATM    9  C10 UNL     1      28.918   1.628  54.706  1.00  0.00    -0.005 C 
HETATM   10  C11 UNL     1      29.138   0.263  54.097  1.00  0.00     0.049 A 
HETATM   11  C12 UNL     1      29.862  -0.894  53.705  1.00  0.00     0.038 A 
HETATM   12  C13 UNL     1      28.580  -1.014  53.317  1.00  0.00    -0.042 A 
HETATM   13  C14 UNL     1      27.481  -1.094  52.980  1.00  0.00     0.049 A 
HETATM   14  N3  UNL     1      26.206  -1.164  52.583  1.00  0.00    -0.220 NA
HETATM   15  O2  UNL     1      26.967  -0.186  52.001  1.00  0.00     0.000 OA
HETATM   16  H11 UNL     1      26.039  -1.973  53.230  1.00  0.00     0.147 HD
ENDBRANCH   3   6
BRANCH   4  17
HETATM   17  C16 UNL     1      23.998   2.224  51.865  1.00  0.00     0.004 C 
HETATM   18  C17 UNL     1      22.990   1.802  51.234  1.00  0.00    -0.066 A 
HETATM   19  C18 UNL     1      21.821   2.512  52.379  1.00  0.00     0.068 A 
HETATM   20  C22 UNL     1      21.746   1.012  50.037  1.00  0.00     0.070 A 
HETATM   21  C19 UNL     1      20.282   2.686  52.697  1.00  0.00     0.040 A 
HETATM   22  C21 UNL     1      21.184   1.615  50.996  1.00  0.00    -0.060 A 
HETATM   23  C20 UNL     1      20.780   2.078  51.731  1.00  0.00    -0.058 A 
ENDBRANCH   4  17
BRANCH   1  24
HETATM   24  C5  UNL     1      26.688   4.653  49.374  1.00  0.00    -0.010 A 
HETATM   25  C4  UNL     1      27.872   4.792  48.689  1.00  0.00     0.016 A 
HETATM   26  C3  UNL     1      28.184   6.036  48.127  1.00  0.00     0.037 A 
HETATM   27  C2  UNL     1      27.312   7.096  48.261  1.00  0.00     0.068 A 
HETATM   28  C25 UNL     1      26.133   6.928  48.954  1.00  0.00     0.037 A 
HETATM   29  C24 UNL     1      25.821   5.685  49.516  1.00  0.00     0.016 A 
BRANCH  27  30
HETATM   30  O1  UNL     1      27.695   8.296  47.675  1.00  0.00    -0.356 OA
HETATM   31  C1  UNL     1      28.540   9.245  48.248  1.00  0.00     0.210 C 
ENDBRANCH  27  30
ENDBRANCH   1  24
TORSDOF 4
ENDMDL
MODEL 4
REMARK VINA RESULT:      -9.5      2.392      6.838
REMARK  4 active torsions:
REMARK  status: ('A' for Active; 'I' for Inactive)
REMARK    1  A    between atoms: O1_2  and  C2_3 
REMARK    2  A    between atoms: C5_6  and  C6_7 
REMARK    3  A    between atoms: N2_9  and  C7_10 
REMARK    4  A    between atoms: C15_20  and  C16_21 
ROOT
HETATM    1  C6  UNL     1      25.426   3.220  50.611  1.00  0.00     0.067 C 
HETATM    2  N1  UNL     1      26.231   2.875  51.522  1.00  0.00    -0.180 NA
HETATM    3  N2  UNL     1      25.965   1.624  52.016  1.00  0.00    -0.286 N 
HETATM    4  C15 UNL     1      24.608   1.250  51.551  1.00  0.00     0.134 C 
HETATM    5  C23 UNL     1      24.440   2.152  50.350  1.00  0.00     0.093 C 
ENDROOT
BRANCH   3   6
HETATM    6  C7  UNL     1      26.827   0.793  52.877  1.00  0.00     0.157 C 
HETATM    7  C8  UNL     1      28.048   1.648  52.740  1.00  0.00     0.014 C 
HETATM    8  C9  UNL     1      28.510   2.381  53.767  1.00  0.00    -0.031 C 
HETATM    9  C10 UNL     1      28.976   1.511  54.711  1.00  0.00    -0.005 C 
HETATM   10  C11 UNL     1      29.227   0.195  54.013  1.00  0.00     0.049 A 
HETATM   11  C12 UNL     1      29.987  -0.871  53.463  1.00  0.00     0.038 A 
HETATM   12  C13 UNL     1      28.677  -1.106  53.268  1.00  0.00    -0.042 A 
HETATM   13  C14 UNL     1      27.552  -1.286  53.097  1.00  0.00     0.049 A 
HETATM   14  N3  UNL     1      26.243  -1.470  52.895  1.00  0.00    -0.220 NA
HETATM   15  O2  UNL     1      26.810  -0.403  52.251  1.00  0.00     0.000 OA
HETATM   16  H11 UNL     1      26.255  -2.312  53.522  1.00  0.00     0.147 HD
ENDBRANCH   3   6
BRANCH   4  17
HETATM   17  C16 UNL     1      23.616   1.577  52.584  1.00  0.00     0.004 C 
HETATM   18  C17 UNL     1      23.100   0.432  52.699  1.00  0.00    -0.066 A 
HETATM   19  C18 UNL     1      21.938   0.945  53.951  1.00  0.00     0.068 A 
HETATM   20  C22 UNL     1      22.590  -1.394  52.593  1.00  0.00     0.070 A 
HETATM   21  C19 UNL     1      20.764   0.454  54.890  1.00  0.00     0.040 A 
HETATM   22  C21 UNL     1      21.907  -0.746  53.438  1.00  0.00    -0.060 A 
HETATM   23  C20 UNL     1      21.404  -0.235  54.072  1.00  0.00    -0.058 A 
ENDBRANCH   4  17
BRANCH   1  24
HETATM   24  C5  UNL     1      25.634   4.536  50.031  1.00  0.00    -0.010 A 
HETATM   25  C4  UNL     1      24.843   5.637  50.261  1.00  0.00     0.016 A 
HETATM   26  C3  UNL     1      25.164   6.844  49.628  1.00  0.00     0.037 A 
HETATM   27  C2  UNL     1      26.259   6.917  48.791  1.00  0.00     0.068 A 
HETATM   28  C25 UNL     1      27.034   5.797  48.579  1.00  0.00     0.037 A 
HETATM   29  C24 UNL     1      26.712   4.591  49.212  1.00  0.00     0.016 A 
BRANCH  27  30
HETATM   30  O1  UNL     1      26.510   8.149  48.202  1.00  0.00    -0.356 OA
HETATM   31  C1  UNL     1      26.813   8.358  46.857  1.00  0.00     0.210 C 
ENDBRANCH  27  30
ENDBRANCH   1  24
TORSDOF 4
ENDMDL
MODEL 5
REMARK VINA RESULT:      -9.5      2.571      6.788
REMARK  4 active torsions:
REMARK  status: ('A' for Active; 'I' for Inactive)
REMARK    1  A    between atoms: O1_2  and  C2_3 
REMARK    2  A    between atoms: C5_6  and  C6_7 
REMARK    3  A    between atoms: N2_9  and  C7_10 
REMARK    4  A    between atoms: C15_20  and  C16_21 
ROOT
HETATM    1  C6  UNL     1      25.967   2.377  50.897  1.00  0.00     0.067 C 
HETATM    2  N1  UNL     1      24.716   2.287  51.057  1.00  0.00    -0.180 NA
HETATM    3  N2  UNL     1      24.012   3.005  50.125  1.00  0.00    -0.286 N 
HETATM    4  C15 UNL     1      24.970   3.922  49.464  1.00  0.00     0.134 C 
HETATM    5  C23 UNL     1      26.287   3.231  49.736  1.00  0.00     0.093 C 
ENDROOT
BRANCH   3   6
HETATM    6  C7  UNL     1      22.569   2.930  49.833  1.00  0.00     0.157 C 
HETATM    7  C8  UNL     1      22.130   2.814  51.259  1.00  0.00     0.014 C 
HETATM    8  C9  UNL     1      21.485   3.817  51.879  1.00  0.00    -0.031 C 
HETATM    9  C10 UNL     1      20.255   3.932  51.297  1.00  0.00    -0.005 C 
HETATM   10  C11 UNL     1      19.975   2.622  50.597  1.00  0.00     0.049 A 
HETATM   11  C12 UNL     1      19.347   1.369  50.367  1.00  0.00     0.038 A 
HETATM   12  C13 UNL     1      20.289   1.579  49.430  1.00  0.00    -0.042 A 
HETATM   13  C14 UNL     1      21.109   1.767  48.644  1.00  0.00     0.049 A 
HETATM   14  N3  UNL     1      22.075   1.997  47.748  1.00  0.00    -0.220 NA
HETATM   15  O2  UNL     1      22.481   1.837  49.046  1.00  0.00     0.000 OA
HETATM   16  H11 UNL     1      21.362   2.046  46.978  1.00  0.00     0.147 HD
ENDBRANCH   3   6
BRANCH   4  17
HETATM   17  C16 UNL     1      24.935   5.239  50.114  1.00  0.00     0.004 C 
HETATM   18  C17 UNL     1      25.847   5.791  49.439  1.00  0.00    -0.066 A 
HETATM   19  C18 UNL     1      25.713   7.347  50.301  1.00  0.00     0.068 A 
HETATM   20  C22 UNL     1      27.238   6.268  48.238  1.00  0.00     0.070 A 
HETATM   21  C19 UNL     1      26.293   8.815  50.393  1.00  0.00     0.040 A 
HETATM   22  C21 UNL     1      26.915   7.216  49.011  1.00  0.00    -0.060 A 
HETATM   23  C20 UNL     1      26.653   7.919  49.606  1.00  0.00    -0.058 A 
ENDBRANCH   4  17
BRANCH   1  24
HETATM   24  C5  UNL     1      26.792   1.647  51.845  1.00  0.00    -0.010 A 
HETATM   25  C4  UNL     1      27.732   2.211  52.675  1.00  0.00     0.016 A 
HETATM   26  C3  UNL     1      28.457   1.379  53.537  1.00  0.00     0.037 A 
HETATM   27  C2  UNL     1      28.225   0.019  53.546  1.00  0.00     0.068 A 
HETATM   28  C25 UNL     1      27.277  -0.518  52.702  1.00  0.00     0.037 A 
HETATM   29  C24 UNL     1      26.553   0.313  51.840  1.00  0.00     0.016 A 
BRANCH  27  30
HETATM   30  O1  UNL     1      28.985  -0.736  54.429  1.00  0.00    -0.356 OA
HETATM   31  C1  UNL     1      30.117  -1.480  54.094  1.00  0.00     0.210 C 
ENDBRANCH  27  30
ENDBRANCH   1  24
TORSDOF 4
ENDMDL
MODEL 6
REMARK VINA RESULT:      -9.1      2.187      7.721
REMARK  4 active torsions:
REMARK  status: ('A' for Active; 'I' for Inactive)
REMARK    1  A    between atoms: O1_2  and  C2_3 
REMARK    2  A    between atoms: C5_6  and  C6_7 
REMARK    3  A    between atoms: N2_9  and  C7_10 
REMARK    4  A    between atoms: C15_20  and  C16_21 
ROOT
HETATM    1  C6  UNL     1      24.763   3.262  51.589  1.00  0.00     0.067 C 
HETATM    2  N1  UNL     1      23.568   2.894  51.403  1.00  0.00    -0.180 NA
HETATM    3  N2  UNL     1      23.109   2.071  52.399  1.00  0.00    -0.286 N 
HETATM    4  C15 UNL     1      24.290   1.615  53.169  1.00  0.00     0.134 C 
HETATM    5  C23 UNL     1      25.299   2.691  52.841  1.00  0.00     0.093 C 
ENDROOT
BRANCH   3   6
HETATM    6  C7  UNL     1      21.716   1.666  52.661  1.00  0.00     0.157 C 
HETATM    7  C8  UNL     1      21.888   0.241  52.240  1.00  0.00     0.014 C 
HETATM    8  C9  UNL     1      21.864  -0.763  53.133  1.00  0.00    -0.031 C 
HETATM    9  C10 UNL     1      20.590  -0.848  53.616  1.00  0.00    -0.005 C 
HETATM   10  C11 UNL     1      19.692  -0.154  52.618  1.00  0.00     0.049 A 
HETATM   11  C12 UNL     1      18.703  -0.039  51.606  1.00  0.00     0.038 A 
HETATM   12  C13 UNL     1      19.194   1.179  51.895  1.00  0.00    -0.042 A 
HETATM   13  C14 UNL     1      19.635   2.214  52.144  1.00  0.00     0.049 A 
HETATM   14  N3  UNL     1      20.169   3.404  52.435  1.00  0.00    -0.220 NA
HETATM   15  O2  UNL     1      21.009   2.490  51.858  1.00  0.00     0.000 OA
HETATM   16  H11 UNL     1      19.249   3.734  52.818  1.00  0.00     0.147 HD
ENDBRANCH   3   6
BRANCH   4  17
HETATM   17  C16 UNL     1      24.745   0.312  52.667  1.00  0.00     0.004 C 
HETATM   18  C17 UNL     1      25.872   0.290  53.233  1.00  0.00    -0.066 A 
HETATM   19  C18 UNL     1      26.316  -1.302  52.563  1.00  0.00     0.068 A 
HETATM   20  C22 UNL     1      27.456   0.613  54.229  1.00  0.00     0.070 A 
HETATM   21  C19 UNL     1      27.448  -2.405  52.521  1.00  0.00     0.040 A 
HETATM   22  C21 UNL     1      27.482  -0.494  53.617  1.00  0.00    -0.060 A 
HETATM   23  C20 UNL     1      27.479  -1.327  53.145  1.00  0.00    -0.058 A 
ENDBRANCH   4  17
BRANCH   1  24
HETATM   24  C5  UNL     1      25.332   4.138  50.579  1.00  0.00    -0.010 A 
HETATM   25  C4  UNL     1      26.453   3.861  49.832  1.00  0.00     0.016 A 
HETATM   26  C3  UNL     1      26.889   4.805  48.893  1.00  0.00     0.037 A 
HETATM   27  C2  UNL     1      26.198   5.988  48.728  1.00  0.00     0.068 A 
HETATM   28  C25 UNL     1      25.079   6.238  49.491  1.00  0.00     0.037 A 
HETATM   29  C24 UNL     1      24.644   5.295  50.429  1.00  0.00     0.016 A 
BRANCH  27  30
HETATM   30  O1  UNL     1      26.694   6.870  47.778  1.00  0.00    -0.356 OA
HETATM   31  C1  UNL     1      26.073   8.047  47.362  1.00  0.00     0.210 C 
ENDBRANCH  27  30
ENDBRANCH   1  24
TORSDOF 4
ENDMDL
MODEL 7
REMARK VINA RESULT:      -9.0      2.555      6.923
REMARK  4 active torsions:
REMARK  status: ('A' for Active; 'I' for Inactive)
REMARK    1  A    between atoms: O1_2  and  C2_3 
REMARK    2  A    between atoms: C5_6  and  C6_7 
REMARK    3  A    between atoms: N2_9  and  C7_10 
REMARK    4  A    between atoms: C15_20  and  C16_21 
ROOT
HETATM    1  C6  UNL     1      24.567   2.322  52.285  1.00  0.00     0.067 C 
HETATM    2  N1  UNL     1      24.804   3.157  51.367  1.00  0.00    -0.180 NA
HETATM    3  N2  UNL     1      23.779   4.050  51.188  1.00  0.00    -0.286 N 
HETATM    4  C15 UNL     1      22.597   3.507  51.899  1.00  0.00     0.134 C 
HETATM    5  C23 UNL     1      23.246   2.575  52.896  1.00  0.00     0.093 C 
ENDROOT
BRANCH   3   6
HETATM    6  C7  UNL     1      23.802   5.303  50.412  1.00  0.00     0.157 C 
HETATM    7  C8  UNL     1      24.055   4.658  49.086  1.00  0.00     0.014 C 
HETATM    8  C9  UNL     1      23.110   4.622  48.131  1.00  0.00    -0.031 C 
HETATM    9  C10 UNL     1      22.919   5.903  47.699  1.00  0.00    -0.005 C 
HETATM   10  C11 UNL     1      24.146   6.690  48.096  1.00  0.00     0.049 A 
HETATM   11  C12 UNL     1      25.360   7.404  47.910  1.00  0.00     0.038 A 
HETATM   12  C13 UNL     1      25.070   7.343  49.222  1.00  0.00    -0.042 A 
HETATM   13  C14 UNL     1      24.816   7.269  50.343  1.00  0.00     0.049 A 
HETATM   14  N3  UNL     1      24.511   7.161  51.640  1.00  0.00    -0.220 NA
HETATM   15  O2  UNL     1      24.808   5.993  50.990  1.00  0.00     0.000 OA
HETATM   16  H11 UNL     1      24.373   8.200  51.705  1.00  0.00     0.147 HD
ENDBRANCH   3   6
BRANCH   4  17
HETATM   17  C16 UNL     1      21.750   2.755  50.965  1.00  0.00     0.004 C 
HETATM   18  C17 UNL     1      21.064   2.128  51.818  1.00  0.00    -0.066 A 
HETATM   19  C18 UNL     1      20.095   1.270  50.590  1.00  0.00     0.068 A 
HETATM   20  C22 UNL     1      20.255   1.383  53.366  1.00  0.00     0.070 A 
HETATM   21  C19 UNL     1      18.929   0.223  50.380  1.00  0.00     0.040 A 
HETATM   22  C21 UNL     1      19.751   0.942  52.293  1.00  0.00    -0.060 A 
HETATM   23  C20 UNL     1      19.386   0.622  51.468  1.00  0.00    -0.058 A 
ENDBRANCH   4  17
BRANCH   1  24
HETATM   24  C5  UNL     1      25.601   1.334  52.542  1.00  0.00    -0.010 A 
HETATM   25  C4  UNL     1      26.953   1.585  52.542  1.00  0.00     0.016 A 
HETATM   26  C3  UNL     1      27.836   0.530  52.804  1.00  0.00     0.037 A 
HETATM   27  C2  UNL     1      27.348  -0.735  53.059  1.00  0.00     0.068 A 
HETATM   28  C25 UNL     1      25.987  -0.957  53.052  1.00  0.00     0.037 A 
HETATM   29  C24 UNL     1      25.106   0.098  52.790  1.00  0.00     0.016 A 
BRANCH  27  30
HETATM   30  O1  UNL     1      28.287  -1.726  53.310  1.00  0.00    -0.356 OA
HETATM   31  C1  UNL     1      29.656  -1.520  53.484  1.00  0.00     0.210 C 
ENDBRANCH  27  30
ENDBRANCH   1  24
TORSDOF 4
ENDMDL
MODEL 8
REMARK VINA RESULT:      -9.0      7.803     10.321
REMARK  4 active torsions:
REMARK  status: ('A' for Active; 'I' for Inactive)
REMARK    1  A    between atoms: O1_2  and  C2_3 
REMARK    2  A    between atoms: C5_6  and  C6_7 
REMARK    3  A    between atoms: N2_9  and  C7_10 
REMARK    4  A    between atoms: C15_20  and  C16_21 
ROOT
HETATM    1  C6  UNL     1      29.973   6.980  48.099  1.00  0.00     0.067 C 
HETATM    2  N1  UNL     1      30.763   6.123  47.610  1.00  0.00    -0.180 NA
HETATM    3  N2  UNL     1      32.028   6.618  47.424  1.00  0.00    -0.286 N 
HETATM    4  C15 UNL     1      31.941   8.093  47.534  1.00  0.00     0.134 C 
HETATM    5  C23 UNL     1      30.667   8.263  48.329  1.00  0.00     0.093 C 
ENDROOT
BRANCH   3   6
HETATM    6  C7  UNL     1      33.257   5.859  47.131  1.00  0.00     0.157 C 
HETATM    7  C8  UNL     1      32.696   5.099  45.971  1.00  0.00     0.014 C 
HETATM    8  C9  UNL     1      33.096   5.343  44.712  1.00  0.00    -0.031 C 
HETATM    9  C10 UNL     1      34.395   4.936  44.611  1.00  0.00    -0.005 C 
HETATM   10  C11 UNL     1      34.644   3.970  45.746  1.00  0.00     0.049 A 
HETATM   11  C12 UNL     1      34.887   2.718  46.370  1.00  0.00     0.038 A 
HETATM   12  C13 UNL     1      34.807   3.679  47.307  1.00  0.00    -0.042 A 
HETATM   13  C14 UNL     1      34.722   4.511  48.099  1.00  0.00     0.049 A 
HETATM   14  N3  UNL     1      34.606   5.488  49.004  1.00  0.00    -0.220 NA
HETATM   15  O2  UNL     1      33.478   5.194  48.285  1.00  0.00     0.000 OA
HETATM   16  H11 UNL     1      35.613   5.370  49.276  1.00  0.00     0.147 HD
ENDBRANCH   3   6
BRANCH   4  17
HETATM   17  C16 UNL     1      31.799   8.690  46.200  1.00  0.00     0.004 C 
HETATM   18  C17 UNL     1      32.280   9.826  46.464  1.00  0.00    -0.066 A 
HETATM   19  C18 UNL     1      32.058  10.443  44.806  1.00  0.00     0.068 A 
HETATM   20  C22 UNL     1      33.048  11.385  47.230  1.00  0.00     0.070 A 
HETATM   21  C19 UNL     1      32.260  11.700  43.868  1.00  0.00     0.040 A 
HETATM   22  C21 UNL     1      32.771  11.530  46.004  1.00  0.00    -0.060 A 
HETATM   23  C20 UNL     1      32.553  11.616  45.076  1.00  0.00    -0.058 A 
ENDBRANCH   4  17
BRANCH   1  24
HETATM   24  C5  UNL     1      28.607   6.541  48.329  1.00  0.00    -0.010 A 
HETATM   25  C4  UNL     1      27.502   7.360  48.339  1.00  0.00     0.016 A 
HETATM   26  C3  UNL     1      26.244   6.794  48.578  1.00  0.00     0.037 A 
HETATM   27  C2  UNL     1      26.125   5.437  48.797  1.00  0.00     0.068 A 
HETATM   28  C25 UNL     1      27.249   4.640  48.781  1.00  0.00     0.037 A 
HETATM   29  C24 UNL     1      28.507   5.206  48.543  1.00  0.00     0.016 A 
BRANCH  27  30
HETATM   30  O1  UNL     1      24.843   4.953  49.026  1.00  0.00    -0.356 OA
HETATM   31  C1  UNL     1      24.336   4.554  50.262  1.00  0.00     0.210 C 
ENDBRANCH  27  30
ENDBRANCH   1  24
TORSDOF 4
ENDMDL
MODEL 9
REMARK VINA RESULT:      -8.7      8.517     13.090
REMARK  4 active torsions:
REMARK  status: ('A' for Active; 'I' for Inactive)
REMARK    1  A    between atoms: O1_2  and  C2_3 
REMARK    2  A    between atoms: C5_6  and  C6_7 
REMARK    3  A    between atoms: N2_9  and  C7_10 
REMARK    4  A    between atoms: C15_20  and  C16_21 
ROOT
HETATM    1  C6  UNL     1      29.121  12.936  48.195  1.00  0.00     0.067 C 
HETATM    2  N1  UNL     1      28.448  11.872  48.086  1.00  0.00    -0.180 NA
HETATM    3  N2  UNL     1      29.036  10.809  48.720  1.00  0.00    -0.286 N 
HETATM    4  C15 UNL     1      30.434  11.196  49.018  1.00  0.00     0.134 C 
HETATM    5  C23 UNL     1      30.344  12.704  48.989  1.00  0.00     0.093 C 
ENDROOT
BRANCH   3   6
HETATM    6  C7  UNL     1      28.431   9.500  49.032  1.00  0.00     0.157 C 
HETATM    7  C8  UNL     1      28.130   9.129  47.614  1.00  0.00     0.014 C 
HETATM    8  C9  UNL     1      28.805   8.152  46.985  1.00  0.00    -0.031 C 
HETATM    9  C10 UNL     1      28.463   6.972  47.580  1.00  0.00    -0.005 C 
HETATM   10  C11 UNL     1      27.159   7.206  48.307  1.00  0.00     0.049 A 
HETATM   11  C12 UNL     1      25.767   7.095  48.566  1.00  0.00     0.038 A 
HETATM   12  C13 UNL     1      26.334   7.895  49.488  1.00  0.00    -0.042 A 
HETATM   13  C14 UNL     1      26.833   8.588  50.260  1.00  0.00     0.049 A 
HETATM   14  N3  UNL     1      27.426   9.402  51.140  1.00  0.00    -0.220 NA
HETATM   15  O2  UNL     1      27.402   9.832  49.840  1.00  0.00     0.000 OA
HETATM   16  H11 UNL     1      27.222   8.727  51.917  1.00  0.00     0.147 HD
ENDBRANCH   3   6
BRANCH   4  17
HETATM   17  C16 UNL     1      31.327  10.713  47.956  1.00  0.00     0.004 C 
HETATM   18  C17 UNL     1      31.633   9.605  48.475  1.00  0.00    -0.066 A 
HETATM   19  C18 UNL     1      32.694   9.125  47.125  1.00  0.00     0.068 A 
HETATM   20  C22 UNL     1      31.854   8.057  49.553  1.00  0.00     0.070 A 
HETATM   21  C19 UNL     1      33.644   7.982  46.585  1.00  0.00     0.040 A 
HETATM   22  C21 UNL     1      32.518   8.001  48.478  1.00  0.00    -0.060 A 
HETATM   23  C20 UNL     1      33.012   7.981  47.658  1.00  0.00    -0.058 A 
ENDBRANCH   4  17
BRANCH   1  24
HETATM   24  C5  UNL     1      28.571  14.116  47.549  1.00  0.00    -0.010 A 
HETATM   25  C4  UNL     1      29.300  15.048  46.849  1.00  0.00     0.016 A 
HETATM   26  C3  UNL     1      28.632  16.140  46.281  1.00  0.00     0.037 A 
HETATM   27  C2  UNL     1      27.266  16.269  46.427  1.00  0.00     0.068 A 
HETATM   28  C25 UNL     1      26.561  15.320  47.135  1.00  0.00     0.037 A 
HETATM   29  C24 UNL     1      27.229  14.229  47.702  1.00  0.00     0.016 A 
BRANCH  27  30
HETATM   30  O1  UNL     1      26.679  17.380  45.834  1.00  0.00    -0.356 OA
HETATM   31  C1  UNL     1      25.509  17.370  45.075  1.00  0.00     0.210 C 
ENDBRANCH  27  30
ENDBRANCH   1  24
TORSDOF 4
ENDMDL
