MODEL 1
REMARK VINA RESULT:      -7.0      0.000      0.000
REMARK  1 active torsions:
REMARK  status: ('A' for Active; 'I' for Inactive)
REMARK    1  A    between atoms: N1_1  and  C1_2 
ROOT
HETATM    1  C1  UNL     1      31.405   6.560  49.082  1.00  0.00     0.135 C 
HETATM    2  N2  UNL     1      29.958   6.559  49.064  1.00  0.00    -0.368 N 
HETATM    3  C2  UNL     1      29.066   6.744  47.893  1.00  0.00     0.103 C 
HETATM    4  C3  UNL     1      29.533   7.497  46.802  1.00  0.00     0.113 C 
HETATM    5  N3  UNL     1      31.070   7.494  46.707  1.00  0.00    -0.331 N 
HETATM    6  C4  UNL     1      31.139   8.940  47.042  1.00  0.00     0.093 C 
HETATM    7  C5  UNL     1      31.795   8.987  48.255  1.00  0.00     0.000 C 
HETATM    8  C6  UNL     1      32.171   7.802  49.106  1.00  0.00     0.063 C 
HETATM    9  C7  UNL     1      33.629   7.682  48.844  1.00  0.00     0.018 C 
HETATM   10  C8  UNL     1      34.207   7.311  47.565  1.00  0.00     0.051 C 
HETATM   11  C9  UNL     1      33.865   8.059  46.325  1.00  0.00     0.008 C 
HETATM   12 CL1  UNL     1      34.425   9.771  46.379  1.00  0.00    -0.089 Cl
HETATM   13  C10 UNL     1      33.234   7.861  45.098  1.00  0.00    -0.003 C 
HETATM   14  C11 UNL     1      32.565   6.618  44.512  1.00  0.00     0.069 C 
HETATM   15  C12 UNL     1      32.515   5.588  45.570  1.00  0.00    -0.027 A 
HETATM   16  C13 UNL     1      33.046   4.366  45.834  1.00  0.00     0.010 A 
HETATM   17  C14 UNL     1      32.971   3.836  47.104  1.00  0.00     0.001 A 
HETATM   18  C15 UNL     1      32.371   4.514  48.143  1.00  0.00     0.014 A 
HETATM   19  C16 UNL     1      31.843   5.750  47.832  1.00  0.00     0.018 A 
HETATM   20  C17 UNL     1      31.897   6.313  46.513  1.00  0.00     0.055 A 
HETATM   21  H3  UNL     1      29.230   6.418  49.857  1.00  0.00     0.161 HD
ENDROOT
BRANCH   1  22
HETATM   22  N1  UNL     1      31.826   5.743  50.186  1.00  0.00    -0.401 N 
HETATM   23  H1  UNL     1      32.751   5.309  50.079  1.00  0.00     0.152 HD
HETATM   24  H2  UNL     1      31.098   5.246  50.673  1.00  0.00     0.152 HD
ENDBRANCH   1  22
TORSDOF 1
ENDMDL
MODEL 2
REMARK VINA RESULT:      -7.0      2.330      4.159
REMARK  1 active torsions:
REMARK  status: ('A' for Active; 'I' for Inactive)
REMARK    1  A    between atoms: N1_1  and  C1_2 
ROOT
HETATM    1  C1  UNL     1      34.420   4.627  48.071  1.00  0.00     0.135 C 
HETATM    2  N2  UNL     1      35.125   3.796  47.119  1.00  0.00    -0.368 N 
HETATM    3  C2  UNL     1      35.154   3.936  45.641  1.00  0.00     0.103 C 
HETATM    4  C3  UNL     1      34.054   4.532  44.999  1.00  0.00     0.113 C 
HETATM    5  N3  UNL     1      33.284   5.489  45.928  1.00  0.00    -0.331 N 
HETATM    6  C4  UNL     1      32.101   4.591  45.947  1.00  0.00     0.093 C 
HETATM    7  C5  UNL     1      32.000   4.171  47.257  1.00  0.00     0.000 C 
HETATM    8  C6  UNL     1      33.001   4.436  48.352  1.00  0.00     0.063 C 
HETATM    9  C7  UNL     1      32.332   5.513  49.129  1.00  0.00     0.018 C 
HETATM   10  C8  UNL     1      32.088   6.855  48.632  1.00  0.00     0.051 C 
HETATM   11  C9  UNL     1      31.357   7.078  47.356  1.00  0.00     0.008 C 
HETATM   12 CL1  UNL     1      29.647   6.513  47.437  1.00  0.00    -0.089 Cl
HETATM   13  C10 UNL     1      31.569   7.596  46.080  1.00  0.00    -0.003 C 
HETATM   14  C11 UNL     1      32.822   8.204  45.448  1.00  0.00     0.069 C 
HETATM   15  C12 UNL     1      33.944   8.012  46.390  1.00  0.00    -0.027 A 
HETATM   16  C13 UNL     1      34.774   8.762  47.160  1.00  0.00     0.010 A 
HETATM   17  C14 UNL     1      35.531   8.168  48.147  1.00  0.00     0.001 A 
HETATM   18  C15 UNL     1      35.475   6.814  48.393  1.00  0.00     0.014 A 
HETATM   19  C16 UNL     1      34.622   6.088  47.588  1.00  0.00     0.018 A 
HETATM   20  C17 UNL     1      33.836   6.685  46.546  1.00  0.00     0.055 A 
HETATM   21  H3  UNL     1      35.771   2.935  47.256  1.00  0.00     0.161 HD
ENDROOT
BRANCH   1  22
HETATM   22  N1  UNL     1      35.142   4.571  49.312  1.00  0.00    -0.401 N 
HETATM   23  H1  UNL     1      34.647   4.965  50.121  1.00  0.00     0.152 HD
HETATM   24  H2  UNL     1      36.142   4.666  49.248  1.00  0.00     0.152 HD
ENDBRANCH   1  22
TORSDOF 1
ENDMDL
MODEL 3
REMARK VINA RESULT:      -6.9      1.891      3.421
REMARK  1 active torsions:
REMARK  status: ('A' for Active; 'I' for Inactive)
REMARK    1  A    between atoms: N1_1  and  C1_2 
ROOT
HETATM    1  C1  UNL     1      32.541   4.810  47.414  1.00  0.00     0.135 C 
HETATM    2  N2  UNL     1      32.655   4.359  46.043  1.00  0.00    -0.368 N 
HETATM    3  C2  UNL     1      32.956   5.178  44.842  1.00  0.00     0.103 C 
HETATM    4  C3  UNL     1      32.598   6.537  44.846  1.00  0.00     0.113 C 
HETATM    5  N3  UNL     1      32.520   7.116  46.271  1.00  0.00    -0.331 N 
HETATM    6  C4  UNL     1      31.047   7.283  46.171  1.00  0.00     0.093 C 
HETATM    7  C5  UNL     1      30.532   6.424  47.119  1.00  0.00     0.000 C 
HETATM    8  C6  UNL     1      31.316   5.417  47.922  1.00  0.00     0.063 C 
HETATM    9  C7  UNL     1      31.411   6.084  49.247  1.00  0.00     0.018 C 
HETATM   10  C8  UNL     1      32.161   7.301  49.503  1.00  0.00     0.051 C 
HETATM   11  C9  UNL     1      31.919   8.531  48.703  1.00  0.00     0.008 C 
HETATM   12 CL1  UNL     1      30.259   9.191  48.941  1.00  0.00    -0.089 Cl
HETATM   13  C10 UNL     1      32.578   9.365  47.801  1.00  0.00    -0.003 C 
HETATM   14  C11 UNL     1      33.993   9.291  47.228  1.00  0.00     0.069 C 
HETATM   15  C12 UNL     1      34.591   8.011  47.659  1.00  0.00    -0.027 A 
HETATM   16  C13 UNL     1      35.602   7.569  48.451  1.00  0.00     0.010 A 
HETATM   17  C14 UNL     1      35.659   6.244  48.828  1.00  0.00     0.001 A 
HETATM   18  C15 UNL     1      34.709   5.330  48.428  1.00  0.00     0.014 A 
HETATM   19  C16 UNL     1      33.701   5.819  47.623  1.00  0.00     0.018 A 
HETATM   20  C17 UNL     1      33.630   7.191  47.208  1.00  0.00     0.055 A 
HETATM   21  H3  UNL     1      32.564   3.372  45.601  1.00  0.00     0.161 HD
ENDROOT
BRANCH   1  22
HETATM   22  N1  UNL     1      32.888   3.704  48.263  1.00  0.00    -0.401 N 
HETATM   23  H1  UNL     1      33.893   3.601  48.454  1.00  0.00     0.152 HD
HETATM   24  H2  UNL     1      32.313   2.882  48.179  1.00  0.00     0.152 HD
ENDBRANCH   1  22
TORSDOF 1
ENDMDL
MODEL 4
REMARK VINA RESULT:      -6.8      8.037     10.230
REMARK  1 active torsions:
REMARK  status: ('A' for Active; 'I' for Inactive)
REMARK    1  A    between atoms: N1_1  and  C1_2 
ROOT
HETATM    1  C1  UNL     1      21.944   2.188  51.128  1.00  0.00     0.135 C 
HETATM    2  N2  UNL     1      21.436   1.409  50.018  1.00  0.00    -0.368 N 
HETATM    3  C2  UNL     1      21.901   1.430  48.609  1.00  0.00     0.103 C 
HETATM    4  C3  UNL     1      22.485   2.608  48.110  1.00  0.00     0.113 C 
HETATM    5  N3  UNL     1      23.113   3.466  49.224  1.00  0.00    -0.331 N 
HETATM    6  C4  UNL     1      22.095   4.532  49.037  1.00  0.00     0.093 C 
HETATM    7  C5  UNL     1      21.387   4.553  50.220  1.00  0.00     0.000 C 
HETATM    8  C6  UNL     1      21.525   3.567  51.352  1.00  0.00     0.063 C 
HETATM    9  C7  UNL     1      22.313   4.342  52.345  1.00  0.00     0.018 C 
HETATM   10  C8  UNL     1      23.692   4.757  52.158  1.00  0.00     0.051 C 
HETATM   11  C9  UNL     1      24.100   5.537  50.959  1.00  0.00     0.008 C 
HETATM   12 CL1  UNL     1      23.327   7.165  50.903  1.00  0.00    -0.089 Cl
HETATM   13  C10 UNL     1      24.909   5.417  49.830  1.00  0.00    -0.003 C 
HETATM   14  C11 UNL     1      25.790   4.260  49.356  1.00  0.00     0.069 C 
HETATM   15  C12 UNL     1      25.533   3.103  50.236  1.00  0.00    -0.027 A 
HETATM   16  C13 UNL     1      26.190   2.352  51.158  1.00  0.00     0.010 A 
HETATM   17  C14 UNL     1      25.490   1.508  51.992  1.00  0.00     0.001 A 
HETATM   18  C15 UNL     1      24.118   1.395  51.932  1.00  0.00     0.014 A 
HETATM   19  C16 UNL     1      23.489   2.173  50.982  1.00  0.00     0.018 A 
HETATM   20  C17 UNL     1      24.201   3.048  50.094  1.00  0.00     0.055 A 
HETATM   21  H3  UNL     1      20.651   0.662  49.964  1.00  0.00     0.161 HD
ENDROOT
BRANCH   1  22
HETATM   22  N1  UNL     1      21.704   1.437  52.329  1.00  0.00    -0.401 N 
HETATM   23  H1  UNL     1      21.720   0.416  52.214  1.00  0.00     0.152 HD
HETATM   24  H2  UNL     1      21.070   1.851  52.993  1.00  0.00     0.152 HD
ENDBRANCH   1  22
TORSDOF 1
ENDMDL
MODEL 5
REMARK VINA RESULT:      -6.7      8.326     10.766
REMARK  1 active torsions:
REMARK  status: ('A' for Active; 'I' for Inactive)
REMARK    1  A    between atoms: N1_1  and  C1_2 
ROOT
HETATM    1  C1  UNL     1      24.364   5.210  50.641  1.00  0.00     0.135 C 
HETATM    2  N2  UNL     1      25.751   4.796  50.617  1.00  0.00    -0.368 N 
HETATM    3  C2  UNL     1      26.285   3.429  50.398  1.00  0.00     0.103 C 
HETATM    4  C3  UNL     1      25.488   2.328  50.759  1.00  0.00     0.113 C 
HETATM    5  N3  UNL     1      23.986   2.666  50.742  1.00  0.00    -0.331 N 
HETATM    6  C4  UNL     1      23.894   2.530  52.219  1.00  0.00     0.093 C 
HETATM    7  C5  UNL     1      23.579   3.796  52.668  1.00  0.00     0.000 C 
HETATM    8  C6  UNL     1      23.536   5.048  51.831  1.00  0.00     0.063 C 
HETATM    9  C7  UNL     1      22.075   5.250  51.649  1.00  0.00     0.018 C 
HETATM   10  C8  UNL     1      21.211   4.366  50.887  1.00  0.00     0.051 C 
HETATM   11  C9  UNL     1      21.153   2.909  51.183  1.00  0.00     0.008 C 
HETATM   12 CL1  UNL     1      20.493   2.569  52.826  1.00  0.00    -0.089 Cl
HETATM   13  C10 UNL     1      21.453   1.685  50.588  1.00  0.00    -0.003 C 
HETATM   14  C11 UNL     1      22.040   1.364  49.214  1.00  0.00     0.069 C 
HETATM   15  C12 UNL     1      22.448   2.637  48.586  1.00  0.00    -0.027 A 
HETATM   16  C13 UNL     1      22.105   3.411  47.524  1.00  0.00     0.010 A 
HETATM   17  C14 UNL     1      22.554   4.711  47.439  1.00  0.00     0.001 A 
HETATM   18  C15 UNL     1      23.352   5.273  48.411  1.00  0.00     0.014 A 
HETATM   19  C16 UNL     1      23.679   4.453  49.472  1.00  0.00     0.018 A 
HETATM   20  C17 UNL     1      23.234   3.093  49.573  1.00  0.00     0.055 A 
HETATM   21  H3  UNL     1      26.671   5.359  50.735  1.00  0.00     0.161 HD
ENDROOT
BRANCH   1  22
HETATM   22  N1  UNL     1      24.317   6.587  50.235  1.00  0.00    -0.401 N 
HETATM   23  H1  UNL     1      24.499   6.753  49.238  1.00  0.00     0.152 HD
HETATM   24  H2  UNL     1      24.629   7.261  50.916  1.00  0.00     0.152 HD
ENDBRANCH   1  22
TORSDOF 1
ENDMDL
MODEL 6
REMARK VINA RESULT:      -6.5      8.582     10.298
REMARK  1 active torsions:
REMARK  status: ('A' for Active; 'I' for Inactive)
REMARK    1  A    between atoms: N1_1  and  C1_2 
ROOT
HETATM    1  C1  UNL     1      22.358   2.627  51.421  1.00  0.00     0.135 C 
HETATM    2  N2  UNL     1      21.086   2.964  52.024  1.00  0.00    -0.368 N 
HETATM    3  C2  UNL     1      20.159   4.056  51.635  1.00  0.00     0.103 C 
HETATM    4  C3  UNL     1      20.691   5.204  51.023  1.00  0.00     0.113 C 
HETATM    5  N3  UNL     1      22.017   4.917  50.295  1.00  0.00    -0.331 N 
HETATM    6  C4  UNL     1      22.781   5.740  51.268  1.00  0.00     0.093 C 
HETATM    7  C5  UNL     1      23.611   4.844  51.909  1.00  0.00     0.000 C 
HETATM    8  C6  UNL     1      23.581   3.345  51.760  1.00  0.00     0.063 C 
HETATM    9  C7  UNL     1      24.755   3.098  50.882  1.00  0.00     0.018 C 
HETATM   10  C8  UNL     1      24.850   3.522  49.497  1.00  0.00     0.051 C 
HETATM   11  C9  UNL     1      24.641   4.944  49.116  1.00  0.00     0.008 C 
HETATM   12 CL1  UNL     1      25.899   6.033  49.811  1.00  0.00    -0.089 Cl
HETATM   13  C10 UNL     1      23.763   5.734  48.376  1.00  0.00    -0.003 C 
HETATM   14  C11 UNL     1      22.514   5.356  47.579  1.00  0.00     0.069 C 
HETATM   15  C12 UNL     1      22.221   3.933  47.845  1.00  0.00    -0.027 A 
HETATM   16  C13 UNL     1      22.197   2.751  47.176  1.00  0.00     0.010 A 
HETATM   17  C14 UNL     1      22.143   1.561  47.871  1.00  0.00     0.001 A 
HETATM   18  C15 UNL     1      22.117   1.522  49.248  1.00  0.00     0.014 A 
HETATM   19  C16 UNL     1      22.141   2.743  49.888  1.00  0.00     0.018 A 
HETATM   20  C17 UNL     1      22.182   3.993  49.184  1.00  0.00     0.055 A 
HETATM   21  H3  UNL     1      20.539   2.514  52.847  1.00  0.00     0.161 HD
ENDROOT
BRANCH   1  22
HETATM   22  N1  UNL     1      22.579   1.223  51.632  1.00  0.00    -0.401 N 
HETATM   23  H1  UNL     1      22.127   0.604  50.947  1.00  0.00     0.152 HD
HETATM   24  H2  UNL     1      22.661   0.926  52.591  1.00  0.00     0.152 HD
ENDBRANCH   1  22
TORSDOF 1
ENDMDL
MODEL 7
REMARK VINA RESULT:      -6.4      2.271      4.017
REMARK  1 active torsions:
REMARK  status: ('A' for Active; 'I' for Inactive)
REMARK    1  A    between atoms: N1_1  and  C1_2 
ROOT
HETATM    1  C1  UNL     1      34.146   8.045  47.065  1.00  0.00     0.135 C 
HETATM    2  N2  UNL     1      35.334   7.763  47.843  1.00  0.00    -0.368 N 
HETATM    3  C2  UNL     1      35.651   6.523  48.595  1.00  0.00     0.103 C 
HETATM    4  C3  UNL     1      34.590   5.741  49.083  1.00  0.00     0.113 C 
HETATM    5  N3  UNL     1      33.300   5.931  48.264  1.00  0.00    -0.331 N 
HETATM    6  C4  UNL     1      32.621   6.598  49.405  1.00  0.00     0.093 C 
HETATM    7  C5  UNL     1      32.394   7.888  48.971  1.00  0.00     0.000 C 
HETATM    8  C6  UNL     1      32.908   8.496  47.691  1.00  0.00     0.063 C 
HETATM    9  C7  UNL     1      31.694   8.485  46.833  1.00  0.00     0.018 C 
HETATM   10  C8  UNL     1      31.046   7.283  46.339  1.00  0.00     0.051 C 
HETATM   11  C9  UNL     1      30.613   6.209  47.273  1.00  0.00     0.008 C 
HETATM   12 CL1  UNL     1      29.319   6.760  48.400  1.00  0.00    -0.089 Cl
HETATM   13  C10 UNL     1      30.890   4.876  47.570  1.00  0.00    -0.003 C 
HETATM   14  C11 UNL     1      31.894   3.905  46.946  1.00  0.00     0.069 C 
HETATM   15  C12 UNL     1      32.738   4.668  46.005  1.00  0.00    -0.027 A 
HETATM   16  C13 UNL     1      32.980   4.734  44.670  1.00  0.00     0.010 A 
HETATM   17  C14 UNL     1      33.656   5.812  44.140  1.00  0.00     0.001 A 
HETATM   18  C15 UNL     1      34.104   6.851  44.926  1.00  0.00     0.014 A 
HETATM   19  C16 UNL     1      33.840   6.744  46.276  1.00  0.00     0.018 A 
HETATM   20  C17 UNL     1      33.150   5.624  46.850  1.00  0.00     0.055 A 
HETATM   21  H3  UNL     1      36.223   8.354  48.037  1.00  0.00     0.161 HD
ENDROOT
BRANCH   1  22
HETATM   22  N1  UNL     1      34.512   8.988  46.045  1.00  0.00    -0.401 N 
HETATM   23  H1  UNL     1      35.347   8.738  45.501  1.00  0.00     0.152 HD
HETATM   24  H2  UNL     1      34.323   9.957  46.247  1.00  0.00     0.152 HD
ENDBRANCH   1  22
TORSDOF 1
ENDMDL
MODEL 8
REMARK VINA RESULT:      -6.3      8.072     10.621
REMARK  1 active torsions:
REMARK  status: ('A' for Active; 'I' for Inactive)
REMARK    1  A    between atoms: N1_1  and  C1_2 
ROOT
HETATM    1  C1  UNL     1      22.789   5.777  48.672  1.00  0.00     0.135 C 
HETATM    2  N2  UNL     1      22.425   6.889  49.524  1.00  0.00    -0.368 N 
HETATM    3  C2  UNL     1      22.206   6.872  50.991  1.00  0.00     0.103 C 
HETATM    4  C3  UNL     1      21.777   5.677  51.595  1.00  0.00     0.113 C 
HETATM    5  N3  UNL     1      22.185   4.434  50.783  1.00  0.00    -0.331 N 
HETATM    6  C4  UNL     1      20.770   4.137  50.441  1.00  0.00     0.093 C 
HETATM    7  C5  UNL     1      20.702   4.291  49.072  1.00  0.00     0.000 C 
HETATM    8  C6  UNL     1      21.795   4.828  48.184  1.00  0.00     0.063 C 
HETATM    9  C7  UNL     1      22.321   3.587  47.556  1.00  0.00     0.018 C 
HETATM   10  C8  UNL     1      23.023   2.536  48.271  1.00  0.00     0.051 C 
HETATM   11  C9  UNL     1      22.417   1.887  49.465  1.00  0.00     0.008 C 
HETATM   12 CL1  UNL     1      20.917   0.973  49.062  1.00  0.00    -0.089 Cl
HETATM   13  C10 UNL     1      22.637   1.752  50.834  1.00  0.00    -0.003 C 
HETATM   14  C11 UNL     1      23.746   2.314  51.724  1.00  0.00     0.069 C 
HETATM   15  C12 UNL     1      24.551   3.249  50.912  1.00  0.00    -0.027 A 
HETATM   16  C13 UNL     1      25.810   3.349  50.414  1.00  0.00     0.010 A 
HETATM   17  C14 UNL     1      26.097   4.273  49.432  1.00  0.00     0.001 A 
HETATM   18  C15 UNL     1      25.135   5.116  48.920  1.00  0.00     0.014 A 
HETATM   19  C16 UNL     1      23.870   4.983  49.454  1.00  0.00     0.018 A 
HETATM   20  C17 UNL     1      23.553   4.037  50.486  1.00  0.00     0.055 A 
HETATM   21  H3  UNL     1      22.250   7.937  49.302  1.00  0.00     0.161 HD
ENDROOT
BRANCH   1  22
HETATM   22  N1  UNL     1      23.502   6.311  47.544  1.00  0.00    -0.401 N 
HETATM   23  H1  UNL     1      23.556   5.688  46.729  1.00  0.00     0.152 HD
HETATM   24  H2  UNL     1      24.277   6.918  47.756  1.00  0.00     0.152 HD
ENDBRANCH   1  22
TORSDOF 1
ENDMDL
MODEL 9
REMARK VINA RESULT:      -6.3      2.728      4.689
REMARK  1 active torsions:
REMARK  status: ('A' for Active; 'I' for Inactive)
REMARK    1  A    between atoms: N1_1  and  C1_2 
ROOT
HETATM    1  C1  UNL     1      30.315   9.043  49.338  1.00  0.00     0.135 C 
HETATM    2  N2  UNL     1      31.165   7.973  49.815  1.00  0.00    -0.368 N 
HETATM    3  C2  UNL     1      31.769   6.873  49.022  1.00  0.00     0.103 C 
HETATM    4  C3  UNL     1      31.114   6.447  47.854  1.00  0.00     0.113 C 
HETATM    5  N3  UNL     1      30.237   7.554  47.240  1.00  0.00    -0.331 N 
HETATM    6  C4  UNL     1      28.993   6.809  47.562  1.00  0.00     0.093 C 
HETATM    7  C5  UNL     1      28.336   7.604  48.479  1.00  0.00     0.000 C 
HETATM    8  C6  UNL     1      28.886   8.849  49.126  1.00  0.00     0.063 C 
HETATM    9  C7  UNL     1      28.179   9.924  48.380  1.00  0.00     0.018 C 
HETATM   10  C8  UNL     1      28.382  10.218  46.972  1.00  0.00     0.051 C 
HETATM   11  C9  UNL     1      28.233   9.158  45.940  1.00  0.00     0.008 C 
HETATM   12 CL1  UNL     1      26.546   8.532  45.835  1.00  0.00    -0.089 Cl
HETATM   13  C10 UNL     1      28.996   8.470  44.998  1.00  0.00    -0.003 C 
HETATM   14  C11 UNL     1      30.481   8.577  44.649  1.00  0.00     0.069 C 
HETATM   15  C12 UNL     1      31.116   9.472  45.638  1.00  0.00    -0.027 A 
HETATM   16  C13 UNL     1      31.717  10.689  45.680  1.00  0.00     0.010 A 
HETATM   17  C14 UNL     1      31.931  11.317  46.888  1.00  0.00     0.001 A 
HETATM   18  C15 UNL     1      31.547  10.749  48.083  1.00  0.00     0.014 A 
HETATM   19  C16 UNL     1      30.942   9.512  47.997  1.00  0.00     0.018 A 
HETATM   20  C17 UNL     1      30.722   8.836  46.751  1.00  0.00     0.055 A 
HETATM   21  H3  UNL     1      31.548   7.746  50.805  1.00  0.00     0.161 HD
ENDROOT
BRANCH   1  22
HETATM   22  N1  UNL     1      30.499  10.166  50.216  1.00  0.00    -0.401 N 
HETATM   23  H1  UNL     1      31.337  10.730  50.030  1.00  0.00     0.152 HD
HETATM   24  H2  UNL     1      30.183  10.044  51.164  1.00  0.00     0.152 HD
ENDBRANCH   1  22
TORSDOF 1
ENDMDL
