MODEL 1
REMARK VINA RESULT:      -7.4      0.000      0.000
REMARK  4 active torsions:
REMARK  status: ('A' for Active; 'I' for Inactive)
REMARK    1  A    between atoms: C2_2  and  O1_3 
REMARK    2  A    between atoms: O1_3  and  C3_4 
REMARK    3  A    between atoms: C8_12  and  N4_13 
REMARK    4  A    between atoms: N4_13  and  C9_14 
ROOT
HETATM    1  C3  UNL     1      22.469   0.904  52.894  1.00  0.00     0.092 C 
HETATM    2  C4  UNL     1      22.278   0.069  53.893  1.00  0.00     0.103 C 
HETATM    3  C5  UNL     1      22.418  -0.886  54.960  1.00  0.00     0.124 C 
HETATM    4  N1  UNL     1      23.122  -1.703  55.742  1.00  0.00    -0.190 NA
HETATM    5  N2  UNL     1      24.505  -1.705  55.443  1.00  0.00    -0.272 N 
HETATM    6  C6  UNL     1      25.344  -0.542  55.361  1.00  0.00     0.226 C 
HETATM    7  N3  UNL     1      25.882   0.419  54.679  1.00  0.00    -0.238 NA
HETATM    8  C7  UNL     1      25.611   0.543  53.260  1.00  0.00     0.109 C 
HETATM    9  C8  UNL     1      26.453  -0.349  52.697  1.00  0.00     0.123 C 
HETATM   10  C12 UNL     1      24.797   1.252  52.252  1.00  0.00     0.135 C 
HETATM   11  C13 UNL     1      23.529   1.429  52.058  1.00  0.00     0.134 C 
HETATM   12  O2  UNL     1      23.015   2.141  51.031  1.00  0.00    -0.344 OA
HETATM   13  C14 UNL     1      23.765   2.944  50.144  1.00  0.00     0.202 C 
HETATM   14  C15 UNL     1      25.235   2.943  50.492  1.00  0.00     0.202 C 
HETATM   15  O3  UNL     1      25.609   1.867  51.299  1.00  0.00    -0.344 OA
HETATM   16  H8  UNL     1      24.923  -2.656  55.269  1.00  0.00     0.190 HD
ENDROOT
BRANCH   9  17
HETATM   17  N4  UNL     1      27.353  -1.162  53.474  1.00  0.00    -0.363 N 
HETATM   18  H11 UNL     1      27.262  -2.027  54.085  1.00  0.00     0.165 HD
BRANCH  17  19
HETATM   19  C9  UNL     1      28.745  -0.891  53.562  1.00  0.00     0.044 A 
HETATM   20  C10 UNL     1      29.788  -0.032  53.529  1.00  0.00     0.005 A 
HETATM   21  C11 UNL     1      30.159  -1.264  53.758  1.00  0.00     0.045 A 
ENDBRANCH  17  19
ENDBRANCH   9  17
BRANCH   1  22
HETATM   22  O1  UNL     1      21.106   1.098  52.970  1.00  0.00    -0.352 OA
BRANCH  22  23
HETATM   23  C2  UNL     1      20.171   0.259  52.318  1.00  0.00     0.171 C 
HETATM   24  C1  UNL     1      19.791   0.697  50.946  1.00  0.00     0.034 C 
ENDBRANCH  22  23
ENDBRANCH   1  22
TORSDOF 4
ENDMDL
MODEL 2
REMARK VINA RESULT:      -7.0      2.940      6.562
REMARK  4 active torsions:
REMARK  status: ('A' for Active; 'I' for Inactive)
REMARK    1  A    between atoms: C2_2  and  O1_3 
REMARK    2  A    between atoms: O1_3  and  C3_4 
REMARK    3  A    between atoms: C8_12  and  N4_13 
REMARK    4  A    between atoms: N4_13  and  C9_14 
ROOT
HETATM    1  C3  UNL     1      25.329   0.336  53.196  1.00  0.00     0.092 C 
HETATM    2  C4  UNL     1      26.164   1.021  52.443  1.00  0.00     0.103 C 
HETATM    3  C5  UNL     1      26.781   1.918  51.502  1.00  0.00     0.124 C 
HETATM    4  N1  UNL     1      26.752   2.866  50.567  1.00  0.00    -0.190 NA
HETATM    5  N2  UNL     1      25.442   3.303  50.257  1.00  0.00    -0.272 N 
HETATM    6  C6  UNL     1      24.468   3.764  51.207  1.00  0.00     0.226 C 
HETATM    7  N3  UNL     1      23.480   3.539  52.014  1.00  0.00    -0.238 NA
HETATM    8  C7  UNL     1      22.958   2.194  52.166  1.00  0.00     0.109 C 
HETATM    9  C8  UNL     1      22.142   2.049  51.100  1.00  0.00     0.123 C 
HETATM   10  C12 UNL     1      22.985   0.986  53.015  1.00  0.00     0.135 C 
HETATM   11  C13 UNL     1      23.911   0.200  53.460  1.00  0.00     0.134 C 
HETATM   12  O2  UNL     1      23.677  -0.874  54.246  1.00  0.00    -0.344 OA
HETATM   13  C14 UNL     1      22.438  -1.184  54.849  1.00  0.00     0.202 C 
HETATM   14  C15 UNL     1      21.385  -0.147  54.534  1.00  0.00     0.202 C 
HETATM   15  O3  UNL     1      21.697   0.633  53.418  1.00  0.00    -0.344 OA
HETATM   16  H8  UNL     1      25.191   3.274  49.235  1.00  0.00     0.190 HD
ENDROOT
BRANCH   9  17
HETATM   17  N4  UNL     1      21.946   3.092  50.126  1.00  0.00    -0.363 N 
HETATM   18  H11 UNL     1      21.687   4.121  50.156  1.00  0.00     0.165 HD
BRANCH  17  19
HETATM   19  C9  UNL     1      22.096   2.872  48.731  1.00  0.00     0.044 A 
HETATM   20  C10 UNL     1      22.428   2.080  47.686  1.00  0.00     0.005 A 
HETATM   21  C11 UNL     1      22.021   3.264  47.311  1.00  0.00     0.045 A 
ENDBRANCH  17  19
ENDBRANCH   9  17
BRANCH   1  22
HETATM   22  O1  UNL     1      26.471  -0.264  53.684  1.00  0.00    -0.352 OA
BRANCH  22  23
HETATM   23  C2  UNL     1      27.148   0.196  54.839  1.00  0.00     0.171 C 
HETATM   24  C1  UNL     1      28.632   0.080  54.778  1.00  0.00     0.034 C 
ENDBRANCH  22  23
ENDBRANCH   1  22
TORSDOF 4
ENDMDL
MODEL 3
REMARK VINA RESULT:      -7.0      2.175      3.913
REMARK  4 active torsions:
REMARK  status: ('A' for Active; 'I' for Inactive)
REMARK    1  A    between atoms: C2_2  and  O1_3 
REMARK    2  A    between atoms: O1_3  and  C3_4 
REMARK    3  A    between atoms: C8_12  and  N4_13 
REMARK    4  A    between atoms: N4_13  and  C9_14 
ROOT
HETATM    1  C3  UNL     1      22.756   1.880  52.335  1.00  0.00     0.092 C 
HETATM    2  C4  UNL     1      23.367   2.742  51.550  1.00  0.00     0.103 C 
HETATM    3  C5  UNL     1      24.324   3.540  50.832  1.00  0.00     0.124 C 
HETATM    4  N1  UNL     1      25.563   3.913  50.513  1.00  0.00    -0.190 NA
HETATM    5  N2  UNL     1      26.559   3.187  51.206  1.00  0.00    -0.272 N 
HETATM    6  C6  UNL     1      26.664   1.755  51.260  1.00  0.00     0.226 C 
HETATM    7  N3  UNL     1      26.393   0.621  51.825  1.00  0.00    -0.238 NA
HETATM    8  C7  UNL     1      25.581   0.584  53.025  1.00  0.00     0.109 C 
HETATM    9  C8  UNL     1      26.456   0.884  54.009  1.00  0.00     0.123 C 
HETATM   10  C12 UNL     1      24.219   0.348  53.545  1.00  0.00     0.135 C 
HETATM   11  C13 UNL     1      23.048   0.841  53.302  1.00  0.00     0.134 C 
HETATM   12  O2  UNL     1      21.917   0.447  53.929  1.00  0.00    -0.344 OA
HETATM   13  C14 UNL     1      21.811  -0.672  54.785  1.00  0.00     0.202 C 
HETATM   14  C15 UNL     1      23.123  -1.413  54.905  1.00  0.00     0.202 C 
HETATM   15  O3  UNL     1      24.226  -0.645  54.525  1.00  0.00    -0.344 OA
HETATM   16  H8  UNL     1      27.269   3.775  51.716  1.00  0.00     0.190 HD
ENDROOT
BRANCH   9  17
HETATM   17  N4  UNL     1      27.847   1.153  53.753  1.00  0.00    -0.363 N 
HETATM   18  H11 UNL     1      28.436   2.022  53.589  1.00  0.00     0.165 HD
BRANCH  17  19
HETATM   19  C9  UNL     1      28.821   0.123  53.663  1.00  0.00     0.044 A 
HETATM   20  C10 UNL     1      30.102  -0.304  53.728  1.00  0.00     0.005 A 
HETATM   21  C11 UNL     1      29.265  -1.268  53.450  1.00  0.00     0.045 A 
ENDBRANCH  17  19
ENDBRANCH   9  17
BRANCH   1  22
HETATM   22  O1  UNL     1      21.602   2.421  51.809  1.00  0.00    -0.352 OA
BRANCH  22  23
HETATM   23  C2  UNL     1      20.980   1.920  50.640  1.00  0.00     0.171 C 
HETATM   24  C1  UNL     1      20.033   0.795  50.873  1.00  0.00     0.034 C 
ENDBRANCH  22  23
ENDBRANCH   1  22
TORSDOF 4
ENDMDL
MODEL 4
REMARK VINA RESULT:      -6.8      2.045      5.895
REMARK  4 active torsions:
REMARK  status: ('A' for Active; 'I' for Inactive)
REMARK    1  A    between atoms: C2_2  and  O1_3 
REMARK    2  A    between atoms: O1_3  and  C3_4 
REMARK    3  A    between atoms: C8_12  and  N4_13 
REMARK    4  A    between atoms: N4_13  and  C9_14 
ROOT
HETATM    1  C3  UNL     1      25.778   0.181  53.628  1.00  0.00     0.092 C 
HETATM    2  C4  UNL     1      25.145  -0.606  54.472  1.00  0.00     0.103 C 
HETATM    3  C5  UNL     1      24.167  -1.319  55.250  1.00  0.00     0.124 C 
HETATM    4  N1  UNL     1      22.920  -1.620  55.609  1.00  0.00    -0.190 NA
HETATM    5  N2  UNL     1      21.943  -0.895  54.888  1.00  0.00    -0.272 N 
HETATM    6  C6  UNL     1      21.850  -0.813  53.457  1.00  0.00     0.226 C 
HETATM    7  N3  UNL     1      22.141  -0.234  52.335  1.00  0.00    -0.238 NA
HETATM    8  C7  UNL     1      22.977   0.951  52.325  1.00  0.00     0.109 C 
HETATM    9  C8  UNL     1      22.120   1.946  52.636  1.00  0.00     0.123 C 
HETATM   10  C12 UNL     1      24.350   1.447  52.108  1.00  0.00     0.135 C 
HETATM   11  C13 UNL     1      25.513   1.172  52.605  1.00  0.00     0.134 C 
HETATM   12  O2  UNL     1      26.659   1.783  52.230  1.00  0.00    -0.344 OA
HETATM   13  C14 UNL     1      26.790   2.656  51.127  1.00  0.00     0.202 C 
HETATM   14  C15 UNL     1      25.487   2.816  50.380  1.00  0.00     0.202 C 
HETATM   15  O3  UNL     1      24.371   2.444  51.133  1.00  0.00    -0.344 OA
HETATM   16  H8  UNL     1      21.240  -0.380  55.480  1.00  0.00     0.190 HD
ENDROOT
BRANCH   9  17
HETATM   17  N4  UNL     1      20.721   1.713  52.891  1.00  0.00    -0.363 N 
HETATM   18  H11 UNL     1      20.161   1.088  53.542  1.00  0.00     0.165 HD
BRANCH  17  19
HETATM   19  C9  UNL     1      19.693   2.401  52.193  1.00  0.00     0.044 A 
HETATM   20  C10 UNL     1      19.206   3.512  51.596  1.00  0.00     0.005 A 
HETATM   21  C11 UNL     1      18.370   2.508  51.549  1.00  0.00     0.045 A 
ENDBRANCH  17  19
ENDBRANCH   9  17
BRANCH   1  22
HETATM   22  O1  UNL     1      26.917  -0.377  54.168  1.00  0.00    -0.352 OA
BRANCH  22  23
HETATM   23  C2  UNL     1      27.886  -1.054  53.389  1.00  0.00     0.171 C 
HETATM   24  C1  UNL     1      29.296  -0.678  53.687  1.00  0.00     0.034 C 
ENDBRANCH  22  23
ENDBRANCH   1  22
TORSDOF 4
ENDMDL
MODEL 5
REMARK VINA RESULT:      -6.8      3.497      5.299
REMARK  4 active torsions:
REMARK  status: ('A' for Active; 'I' for Inactive)
REMARK    1  A    between atoms: C2_2  and  O1_3 
REMARK    2  A    between atoms: O1_3  and  C3_4 
REMARK    3  A    between atoms: C8_12  and  N4_13 
REMARK    4  A    between atoms: N4_13  and  C9_14 
ROOT
HETATM    1  C3  UNL     1      22.650   1.215  53.043  1.00  0.00     0.092 C 
HETATM    2  C4  UNL     1      21.691   2.062  52.733  1.00  0.00     0.103 C 
HETATM    3  C5  UNL     1      20.892   3.125  52.185  1.00  0.00     0.124 C 
HETATM    4  N1  UNL     1      20.696   4.186  51.404  1.00  0.00    -0.190 NA
HETATM    5  N2  UNL     1      21.844   4.549  50.661  1.00  0.00    -0.272 N 
HETATM    6  C6  UNL     1      22.606   3.672  49.818  1.00  0.00     0.226 C 
HETATM    7  N3  UNL     1      23.580   2.836  49.641  1.00  0.00    -0.238 NA
HETATM    8  C7  UNL     1      24.450   2.490  50.748  1.00  0.00     0.109 C 
HETATM    9  C8  UNL     1      25.321   3.520  50.800  1.00  0.00     0.123 C 
HETATM   10  C12 UNL     1      24.724   1.477  51.787  1.00  0.00     0.135 C 
HETATM   11  C13 UNL     1      24.036   0.927  52.735  1.00  0.00     0.134 C 
HETATM   12  O2  UNL     1      24.525  -0.006  53.581  1.00  0.00    -0.344 OA
HETATM   13  C14 UNL     1      25.774  -0.653  53.441  1.00  0.00     0.202 C 
HETATM   14  C15 UNL     1      26.507  -0.197  52.201  1.00  0.00     0.202 C 
HETATM   15  O3  UNL     1      26.040   1.021  51.702  1.00  0.00    -0.344 OA
HETATM   16  H8  UNL     1      22.139   5.556  50.757  1.00  0.00     0.190 HD
ENDROOT
BRANCH   9  17
HETATM   17  N4  UNL     1      25.261   4.633  49.888  1.00  0.00    -0.363 N 
HETATM   18  H11 UNL     1      24.504   5.294  49.544  1.00  0.00     0.165 HD
BRANCH  17  19
HETATM   19  C9  UNL     1      26.400   5.105  49.183  1.00  0.00     0.044 A 
HETATM   20  C10 UNL     1      27.076   6.089  48.549  1.00  0.00     0.005 A 
HETATM   21  C11 UNL     1      27.738   4.963  48.577  1.00  0.00     0.045 A 
ENDBRANCH  17  19
ENDBRANCH   9  17
BRANCH   1  22
HETATM   22  O1  UNL     1      21.701   0.650  53.870  1.00  0.00    -0.352 OA
BRANCH  22  23
HETATM   23  C2  UNL     1      20.944  -0.490  53.507  1.00  0.00     0.171 C 
HETATM   24  C1  UNL     1      21.239  -1.713  54.305  1.00  0.00     0.034 C 
ENDBRANCH  22  23
ENDBRANCH   1  22
TORSDOF 4
ENDMDL
MODEL 6
REMARK VINA RESULT:      -6.7      3.104      6.307
REMARK  4 active torsions:
REMARK  status: ('A' for Active; 'I' for Inactive)
REMARK    1  A    between atoms: C2_2  and  O1_3 
REMARK    2  A    between atoms: O1_3  and  C3_4 
REMARK    3  A    between atoms: C8_12  and  N4_13 
REMARK    4  A    between atoms: N4_13  and  C9_14 
ROOT
HETATM    1  C3  UNL     1      26.001   3.121  50.319  1.00  0.00     0.092 C 
HETATM    2  C4  UNL     1      24.972   3.295  49.516  1.00  0.00     0.103 C 
HETATM    3  C5  UNL     1      23.671   3.340  48.906  1.00  0.00     0.124 C 
HETATM    4  N1  UNL     1      22.356   3.127  48.889  1.00  0.00    -0.190 NA
HETATM    5  N2  UNL     1      21.873   2.534  50.079  1.00  0.00    -0.272 N 
HETATM    6  C6  UNL     1      22.097   3.028  51.409  1.00  0.00     0.226 C 
HETATM    7  N3  UNL     1      22.792   3.060  52.502  1.00  0.00    -0.238 NA
HETATM    8  C7  UNL     1      23.988   2.250  52.626  1.00  0.00     0.109 C 
HETATM    9  C8  UNL     1      23.511   1.028  52.946  1.00  0.00     0.123 C 
HETATM   10  C12 UNL     1      25.462   2.267  52.539  1.00  0.00     0.135 C 
HETATM   11  C13 UNL     1      26.323   2.608  51.635  1.00  0.00     0.134 C 
HETATM   12  O2  UNL     1      27.662   2.530  51.799  1.00  0.00    -0.344 OA
HETATM   13  C14 UNL     1      28.316   2.256  53.021  1.00  0.00     0.202 C 
HETATM   14  C15 UNL     1      27.333   2.082  54.156  1.00  0.00     0.202 C 
HETATM   15  O3  UNL     1      26.035   1.803  53.723  1.00  0.00    -0.344 OA
HETATM   16  H8  UNL     1      21.305   1.657  49.944  1.00  0.00     0.190 HD
ENDROOT
BRANCH   9  17
HETATM   17  N4  UNL     1      22.104   0.759  53.092  1.00  0.00    -0.363 N 
HETATM   18  H11 UNL     1      21.203   1.247  52.810  1.00  0.00     0.165 HD
BRANCH  17  19
HETATM   19  C9  UNL     1      21.612  -0.400  53.750  1.00  0.00     0.044 A 
HETATM   20  C10 UNL     1      21.794  -1.473  54.551  1.00  0.00     0.005 A 
HETATM   21  C11 UNL     1      20.564  -1.371  54.120  1.00  0.00     0.045 A 
ENDBRANCH  17  19
ENDBRANCH   9  17
BRANCH   1  22
HETATM   22  O1  UNL     1      26.728   3.685  49.292  1.00  0.00    -0.352 OA
BRANCH  22  23
HETATM   23  C2  UNL     1      26.800   5.083  49.077  1.00  0.00     0.171 C 
HETATM   24  C1  UNL     1      28.050   5.547  48.414  1.00  0.00     0.034 C 
ENDBRANCH  22  23
ENDBRANCH   1  22
TORSDOF 4
ENDMDL
MODEL 7
REMARK VINA RESULT:      -6.7      3.523      5.716
REMARK  4 active torsions:
REMARK  status: ('A' for Active; 'I' for Inactive)
REMARK    1  A    between atoms: C2_2  and  O1_3 
REMARK    2  A    between atoms: O1_3  and  C3_4 
REMARK    3  A    between atoms: C8_12  and  N4_13 
REMARK    4  A    between atoms: N4_13  and  C9_14 
ROOT
HETATM    1  C3  UNL     1      22.692   0.488  52.735  1.00  0.00     0.092 C 
HETATM    2  C4  UNL     1      21.442   0.903  52.738  1.00  0.00     0.103 C 
HETATM    3  C5  UNL     1      20.224   1.663  52.646  1.00  0.00     0.124 C 
HETATM    4  N1  UNL     1      19.530   2.776  52.414  1.00  0.00    -0.190 NA
HETATM    5  N2  UNL     1      20.343   3.874  52.049  1.00  0.00    -0.272 N 
HETATM    6  C6  UNL     1      21.314   3.879  50.990  1.00  0.00     0.226 C 
HETATM    7  N3  UNL     1      22.524   3.702  50.564  1.00  0.00    -0.238 NA
HETATM    8  C7  UNL     1      23.564   3.282  51.484  1.00  0.00     0.109 C 
HETATM    9  C8  UNL     1      23.929   4.430  52.093  1.00  0.00     0.123 C 
HETATM   10  C12 UNL     1      24.335   2.122  51.973  1.00  0.00     0.135 C 
HETATM   11  C13 UNL     1      24.034   0.973  52.486  1.00  0.00     0.134 C 
HETATM   12  O2  UNL     1      24.948   0.052  52.866  1.00  0.00    -0.344 OA
HETATM   13  C14 UNL     1      26.331   0.119  52.589  1.00  0.00     0.202 C 
HETATM   14  C15 UNL     1      26.683   1.347  51.780  1.00  0.00     0.202 C 
HETATM   15  O3  UNL     1      25.705   2.343  51.838  1.00  0.00    -0.344 OA
HETATM   16  H8  UNL     1      20.202   4.746  52.623  1.00  0.00     0.190 HD
ENDROOT
BRANCH   9  17
HETATM   17  N4  UNL     1      23.323   5.699  51.784  1.00  0.00    -0.363 N 
HETATM   18  H11 UNL     1      22.368   6.142  51.930  1.00  0.00     0.165 HD
BRANCH  17  19
HETATM   19  C9  UNL     1      24.026   6.740  51.121  1.00  0.00     0.044 A 
HETATM   20  C10 UNL     1      25.151   7.240  50.562  1.00  0.00     0.005 A 
HETATM   21  C11 UNL     1      24.147   8.073  50.501  1.00  0.00     0.045 A 
ENDBRANCH  17  19
ENDBRANCH   9  17
BRANCH   1  22
HETATM   22  O1  UNL     1      22.150  -0.725  53.105  1.00  0.00    -0.352 OA
BRANCH  22  23
HETATM   23  C2  UNL     1      21.778  -1.028  54.437  1.00  0.00     0.171 C 
HETATM   24  C1  UNL     1      22.912  -1.394  55.331  1.00  0.00     0.034 C 
ENDBRANCH  22  23
ENDBRANCH   1  22
TORSDOF 4
ENDMDL
MODEL 8
REMARK VINA RESULT:      -6.4      8.915     11.957
REMARK  4 active torsions:
REMARK  status: ('A' for Active; 'I' for Inactive)
REMARK    1  A    between atoms: C2_2  and  O1_3 
REMARK    2  A    between atoms: O1_3  and  C3_4 
REMARK    3  A    between atoms: C8_12  and  N4_13 
REMARK    4  A    between atoms: N4_13  and  C9_14 
ROOT
HETATM    1  C3  UNL     1      30.990   9.291  48.463  1.00  0.00     0.092 C 
HETATM    2  C4  UNL     1      31.086   7.980  48.386  1.00  0.00     0.103 C 
HETATM    3  C5  UNL     1      30.856   6.560  48.408  1.00  0.00     0.124 C 
HETATM    4  N1  UNL     1      30.104   5.479  48.609  1.00  0.00    -0.190 NA
HETATM    5  N2  UNL     1      28.791   5.786  49.037  1.00  0.00    -0.272 N 
HETATM    6  C6  UNL     1      27.885   6.684  48.377  1.00  0.00     0.226 C 
HETATM    7  N3  UNL     1      27.387   7.869  48.209  1.00  0.00    -0.238 NA
HETATM    8  C7  UNL     1      27.869   8.979  49.007  1.00  0.00     0.109 C 
HETATM    9  C8  UNL     1      27.201   8.845  50.172  1.00  0.00     0.123 C 
HETATM   10  C12 UNL     1      28.774  10.146  49.015  1.00  0.00     0.135 C 
HETATM   11  C13 UNL     1      30.038  10.327  48.803  1.00  0.00     0.134 C 
HETATM   12  O2  UNL     1      30.650  11.530  48.872  1.00  0.00    -0.344 OA
HETATM   13  C14 UNL     1      29.989  12.773  48.990  1.00  0.00     0.202 C 
HETATM   14  C15 UNL     1      28.487  12.609  49.005  1.00  0.00     0.202 C 
HETATM   15  O3  UNL     1      28.077  11.314  49.326  1.00  0.00    -0.344 OA
HETATM   16  H8  UNL     1      28.482   5.300  49.919  1.00  0.00     0.190 HD
ENDROOT
BRANCH   9  17
HETATM   17  N4  UNL     1      26.257   7.783  50.406  1.00  0.00    -0.363 N 
HETATM   18  H11 UNL     1      26.318   6.758  50.681  1.00  0.00     0.165 HD
BRANCH  17  19
HETATM   19  C9  UNL     1      24.853   7.968  50.288  1.00  0.00     0.044 A 
HETATM   20  C10 UNL     1      23.758   8.280  49.560  1.00  0.00     0.005 A 
HETATM   21  C11 UNL     1      23.469   7.976  50.798  1.00  0.00     0.045 A 
ENDBRANCH  17  19
ENDBRANCH   9  17
BRANCH   1  22
HETATM   22  O1  UNL     1      32.304   9.278  48.044  1.00  0.00    -0.352 OA
BRANCH  22  23
HETATM   23  C2  UNL     1      32.696   9.623  46.728  1.00  0.00     0.171 C 
HETATM   24  C1  UNL     1      33.170  11.026  46.567  1.00  0.00     0.034 C 
ENDBRANCH  22  23
ENDBRANCH   1  22
TORSDOF 4
ENDMDL
MODEL 9
REMARK VINA RESULT:      -6.3      2.655      4.458
REMARK  4 active torsions:
REMARK  status: ('A' for Active; 'I' for Inactive)
REMARK    1  A    between atoms: C2_2  and  O1_3 
REMARK    2  A    between atoms: O1_3  and  C3_4 
REMARK    3  A    between atoms: C8_12  and  N4_13 
REMARK    4  A    between atoms: N4_13  and  C9_14 
ROOT
HETATM    1  C3  UNL     1      22.610   2.321  50.590  1.00  0.00     0.092 C 
HETATM    2  C4  UNL     1      23.286   3.256  49.956  1.00  0.00     0.103 C 
HETATM    3  C5  UNL     1      24.280   4.183  49.485  1.00  0.00     0.124 C 
HETATM    4  N1  UNL     1      25.488   4.743  49.503  1.00  0.00    -0.190 NA
HETATM    5  N2  UNL     1      26.341   4.195  50.489  1.00  0.00    -0.272 N 
HETATM    6  C6  UNL     1      26.636   2.800  50.659  1.00  0.00     0.226 C 
HETATM    7  N3  UNL     1      26.385   1.647  51.194  1.00  0.00    -0.238 NA
HETATM    8  C7  UNL     1      25.278   1.502  52.121  1.00  0.00     0.109 C 
HETATM    9  C8  UNL     1      25.782   1.954  53.288  1.00  0.00     0.123 C 
HETATM   10  C12 UNL     1      23.875   1.062  52.253  1.00  0.00     0.135 C 
HETATM   11  C13 UNL     1      22.762   1.359  51.662  1.00  0.00     0.134 C 
HETATM   12  O2  UNL     1      21.570   0.802  51.972  1.00  0.00    -0.344 OA
HETATM   13  C14 UNL     1      21.391  -0.305  52.831  1.00  0.00     0.202 C 
HETATM   14  C15 UNL     1      22.708  -0.826  53.359  1.00  0.00     0.202 C 
HETATM   15  O3  UNL     1      23.748   0.100  53.255  1.00  0.00    -0.344 OA
HETATM   16  H8  UNL     1      26.781   4.897  51.140  1.00  0.00     0.190 HD
ENDROOT
BRANCH   9  17
HETATM   17  N4  UNL     1      27.133   2.436  53.415  1.00  0.00    -0.363 N 
HETATM   18  H11 UNL     1      27.617   3.377  53.321  1.00  0.00     0.165 HD
BRANCH  17  19
HETATM   19  C9  UNL     1      28.221   1.583  53.743  1.00  0.00     0.044 A 
HETATM   20  C10 UNL     1      29.084   1.059  54.642  1.00  0.00     0.005 A 
HETATM   21  C11 UNL     1      29.274   0.597  53.433  1.00  0.00     0.045 A 
ENDBRANCH  17  19
ENDBRANCH   9  17
BRANCH   1  22
HETATM   22  O1  UNL     1      21.587   2.664  49.731  1.00  0.00    -0.352 OA
BRANCH  22  23
HETATM   23  C2  UNL     1      20.715   3.754  49.967  1.00  0.00     0.171 C 
HETATM   24  C1  UNL     1      20.327   3.942  51.393  1.00  0.00     0.034 C 
ENDBRANCH  22  23
ENDBRANCH   1  22
TORSDOF 4
ENDMDL
