MODEL 1
REMARK VINA RESULT:      -7.6      0.000      0.000
REMARK  4 active torsions:
REMARK  status: ('A' for Active; 'I' for Inactive)
REMARK    1  A    between atoms: C2_3  and  N2_4 
REMARK    2  A    between atoms: C3_5  and  N3_6 
REMARK    3  A    between atoms: N3_6  and  C4_7 
REMARK    4  A    between atoms: C15_20  and  O1_21 
ROOT
HETATM    1  C4  UNL     1      23.403  -0.153  53.304  1.00  0.00     0.059 C 
HETATM    2  C5  UNL     1      22.325  -0.825  53.762  1.00  0.00     0.030 C 
HETATM    3  C6  UNL     1      20.905  -1.252  53.889  1.00  0.00     0.010 C 
HETATM    4  C7  UNL     1      19.713  -1.020  53.350  1.00  0.00    -0.051 C 
HETATM    5  C8  UNL     1      18.474  -1.683  53.805  1.00  0.00     0.049 C 
HETATM    6  C9  UNL     1      19.214  -0.278  52.175  1.00  0.00    -0.020 A 
HETATM    7  C10 UNL     1      18.258   0.027  51.284  1.00  0.00     0.014 A 
HETATM    8  C11 UNL     1      18.628   0.812  50.242  1.00  0.00     0.021 A 
HETATM    9  C12 UNL     1      20.050   1.002  50.583  1.00  0.00     0.022 A 
HETATM   10  S1  UNL     1      21.657   1.807  50.038  1.00  0.00    -0.061 SA
HETATM   11  N4  UNL     1      22.678   1.191  51.449  1.00  0.00    -0.306 N 
HETATM   12  C13 UNL     1      21.562   0.715  51.697  1.00  0.00     0.205 A 
HETATM   13  C14 UNL     1      20.308   0.352  51.703  1.00  0.00     0.005 A 
HETATM   14  C15 UNL     1      23.804   0.911  52.358  1.00  0.00     0.280 C 
ENDROOT
BRANCH   1  15
HETATM   15  N3  UNL     1      24.590  -0.551  53.961  1.00  0.00    -0.351 N 
HETATM   16  H6  UNL     1      24.420  -0.812  55.002  1.00  0.00     0.166 HD
BRANCH  15  17
HETATM   17  C3  UNL     1      26.004  -0.728  53.750  1.00  0.00     0.208 C 
HETATM   18  N2  UNL     1      26.500  -0.042  54.790  1.00  0.00    -0.238 NA
BRANCH  18  19
HETATM   19  C2  UNL     1      27.918  -0.022  54.863  1.00  0.00     0.227 C 
HETATM   20  N1  UNL     1      28.251  -0.826  53.927  1.00  0.00    -0.287 NA
HETATM   21  C1  UNL     1      29.632  -1.103  53.645  1.00  0.00     0.179 C 
ENDBRANCH  18  19
ENDBRANCH  15  17
ENDBRANCH   1  15
BRANCH  14  22
HETATM   22  O1  UNL     1      24.187   2.080  52.998  1.00  0.00    -0.365 OA
HETATM   23  C16 UNL     1      24.522   3.117  52.174  1.00  0.00     0.204 C 
ENDBRANCH  14  22
TORSDOF 4
ENDMDL
MODEL 2
REMARK VINA RESULT:      -7.5      4.021      6.072
REMARK  4 active torsions:
REMARK  status: ('A' for Active; 'I' for Inactive)
REMARK    1  A    between atoms: C2_3  and  N2_4 
REMARK    2  A    between atoms: C3_5  and  N3_6 
REMARK    3  A    between atoms: N3_6  and  C4_7 
REMARK    4  A    between atoms: C15_20  and  O1_21 
ROOT
HETATM    1  C4  UNL     1      25.688   3.268  50.219  1.00  0.00     0.059 C 
HETATM    2  C5  UNL     1      26.401   2.254  50.756  1.00  0.00     0.030 C 
HETATM    3  C6  UNL     1      26.723   1.089  51.623  1.00  0.00     0.010 C 
HETATM    4  C7  UNL     1      26.165   0.316  52.549  1.00  0.00    -0.051 C 
HETATM    5  C8  UNL     1      26.877  -0.795  53.215  1.00  0.00     0.049 C 
HETATM    6  C9  UNL     1      24.806   0.141  53.097  1.00  0.00    -0.020 A 
HETATM    7  C10 UNL     1      23.891  -0.542  53.802  1.00  0.00     0.014 A 
HETATM    8  C11 UNL     1      22.615  -0.089  53.739  1.00  0.00     0.021 A 
HETATM    9  C12 UNL     1      22.817   1.061  52.840  1.00  0.00     0.022 A 
HETATM   10  S1  UNL     1      21.957   2.479  51.955  1.00  0.00    -0.061 SA
HETATM   11  N4  UNL     1      23.471   3.151  51.137  1.00  0.00    -0.306 N 
HETATM   12  C13 UNL     1      23.915   2.184  51.770  1.00  0.00     0.205 A 
HETATM   13  C14 UNL     1      24.096   1.130  52.519  1.00  0.00     0.005 A 
HETATM   14  C15 UNL     1      24.388   3.966  50.320  1.00  0.00     0.280 C 
ENDROOT
BRANCH   1  15
HETATM   15  N3  UNL     1      26.419   3.959  49.226  1.00  0.00    -0.351 N 
HETATM   16  H6  UNL     1      26.600   3.348  48.345  1.00  0.00     0.166 HD
BRANCH  15  17
HETATM   17  C3  UNL     1      27.053   5.222  48.950  1.00  0.00     0.208 C 
HETATM   18  N2  UNL     1      28.271   4.813  48.566  1.00  0.00    -0.238 NA
BRANCH  18  19
HETATM   19  C2  UNL     1      29.164   5.862  48.221  1.00  0.00     0.227 C 
HETATM   20  N1  UNL     1      30.276   5.438  48.686  1.00  0.00    -0.287 NA
HETATM   21  C1  UNL     1      31.480   6.211  48.549  1.00  0.00     0.179 C 
ENDBRANCH  18  19
ENDBRANCH  15  17
ENDBRANCH   1  15
BRANCH  14  22
HETATM   22  O1  UNL     1      24.503   5.233  50.873  1.00  0.00    -0.365 OA
HETATM   23  C16 UNL     1      23.365   5.988  50.848  1.00  0.00     0.204 C 
ENDBRANCH  14  22
TORSDOF 4
ENDMDL
MODEL 3
REMARK VINA RESULT:      -7.4      3.154      5.151
REMARK  4 active torsions:
REMARK  status: ('A' for Active; 'I' for Inactive)
REMARK    1  A    between atoms: C2_3  and  N2_4 
REMARK    2  A    between atoms: C3_5  and  N3_6 
REMARK    3  A    between atoms: N3_6  and  C4_7 
REMARK    4  A    between atoms: C15_20  and  O1_21 
ROOT
HETATM    1  C4  UNL     1      25.085   1.723  51.703  1.00  0.00     0.059 C 
HETATM    2  C5  UNL     1      23.811   1.745  51.254  1.00  0.00     0.030 C 
HETATM    3  C6  UNL     1      22.374   1.379  51.136  1.00  0.00     0.010 C 
HETATM    4  C7  UNL     1      21.476   0.564  51.679  1.00  0.00    -0.051 C 
HETATM    5  C8  UNL     1      20.068   0.495  51.234  1.00  0.00     0.049 C 
HETATM    6  C9  UNL     1      21.439  -0.333  52.850  1.00  0.00    -0.020 A 
HETATM    7  C10 UNL     1      20.783  -1.091  53.744  1.00  0.00     0.014 A 
HETATM    8  C11 UNL     1      21.513  -1.576  54.778  1.00  0.00     0.021 A 
HETATM    9  C12 UNL     1      22.826  -1.005  54.430  1.00  0.00     0.022 A 
HETATM   10  S1  UNL     1      24.623  -0.869  54.962  1.00  0.00    -0.061 SA
HETATM   11  N4  UNL     1      25.170   0.191  53.551  1.00  0.00    -0.306 N 
HETATM   12  C13 UNL     1      23.967   0.024  53.312  1.00  0.00     0.205 A 
HETATM   13  C14 UNL     1      22.705  -0.310  53.314  1.00  0.00     0.005 A 
HETATM   14  C15 UNL     1      25.984   1.014  52.639  1.00  0.00     0.280 C 
ENDROOT
BRANCH   1  15
HETATM   15  N3  UNL     1      25.892   2.678  51.044  1.00  0.00    -0.351 N 
HETATM   16  H6  UNL     1      26.932   2.627  51.354  1.00  0.00     0.166 HD
BRANCH  15  17
HETATM   17  C3  UNL     1      25.835   3.750  50.083  1.00  0.00     0.208 C 
HETATM   18  N2  UNL     1      27.116   3.803  49.689  1.00  0.00    -0.238 NA
BRANCH  18  19
HETATM   19  C2  UNL     1      27.394   4.798  48.716  1.00  0.00     0.227 C 
HETATM   20  N1  UNL     1      26.518   5.690  48.978  1.00  0.00    -0.287 NA
HETATM   21  C1  UNL     1      26.443   6.903  48.212  1.00  0.00     0.179 C 
ENDBRANCH  18  19
ENDBRANCH  15  17
ENDBRANCH   1  15
BRANCH  14  22
HETATM   22  O1  UNL     1      26.910   0.212  51.990  1.00  0.00    -0.365 OA
HETATM   23  C16 UNL     1      27.691  -0.558  52.803  1.00  0.00     0.204 C 
ENDBRANCH  14  22
TORSDOF 4
ENDMDL
MODEL 4
REMARK VINA RESULT:      -7.4      1.743      2.362
REMARK  4 active torsions:
REMARK  status: ('A' for Active; 'I' for Inactive)
REMARK    1  A    between atoms: C2_3  and  N2_4 
REMARK    2  A    between atoms: C3_5  and  N3_6 
REMARK    3  A    between atoms: N3_6  and  C4_7 
REMARK    4  A    between atoms: C15_20  and  O1_21 
ROOT
HETATM    1  C4  UNL     1      24.436   2.351  52.437  1.00  0.00     0.059 C 
HETATM    2  C5  UNL     1      24.169   1.198  53.088  1.00  0.00     0.030 C 
HETATM    3  C6  UNL     1      23.379   0.062  53.634  1.00  0.00     0.010 C 
HETATM    4  C7  UNL     1      22.133  -0.400  53.662  1.00  0.00    -0.051 C 
HETATM    5  C8  UNL     1      21.742  -1.634  54.374  1.00  0.00     0.049 C 
HETATM    6  C9  UNL     1      20.866  -0.056  52.988  1.00  0.00    -0.020 A 
HETATM    7  C10 UNL     1      19.601  -0.328  52.631  1.00  0.00     0.014 A 
HETATM    8  C11 UNL     1      19.020   0.529  51.756  1.00  0.00     0.021 A 
HETATM    9  C12 UNL     1      20.140   1.469  51.568  1.00  0.00     0.022 A 
HETATM   10  S1  UNL     1      20.695   3.024  50.672  1.00  0.00    -0.061 SA
HETATM   11  N4  UNL     1      22.397   3.072  51.390  1.00  0.00    -0.306 N 
HETATM   12  C13 UNL     1      21.911   2.063  51.916  1.00  0.00     0.205 A 
HETATM   13  C14 UNL     1      21.158   1.070  52.307  1.00  0.00     0.005 A 
HETATM   14  C15 UNL     1      23.784   3.459  51.704  1.00  0.00     0.280 C 
ENDROOT
BRANCH   1  15
HETATM   15  N3  UNL     1      25.811   2.672  52.474  1.00  0.00    -0.351 N 
HETATM   16  H6  UNL     1      25.985   3.737  52.603  1.00  0.00     0.166 HD
BRANCH  15  17
HETATM   17  C3  UNL     1      27.122   2.081  52.382  1.00  0.00     0.208 C 
HETATM   18  N2  UNL     1      27.506   2.123  53.666  1.00  0.00    -0.238 NA
BRANCH  18  19
HETATM   19  C2  UNL     1      28.803   1.599  53.912  1.00  0.00     0.227 C 
HETATM   20  N1  UNL     1      28.657   0.362  53.627  1.00  0.00    -0.287 NA
HETATM   21  C1  UNL     1      29.755  -0.558  53.738  1.00  0.00     0.179 C 
ENDBRANCH  18  19
ENDBRANCH  15  17
ENDBRANCH   1  15
BRANCH  14  22
HETATM   22  O1  UNL     1      23.785   4.647  52.419  1.00  0.00    -0.365 OA
HETATM   23  C16 UNL     1      23.602   5.779  51.676  1.00  0.00     0.204 C 
ENDBRANCH  14  22
TORSDOF 4
ENDMDL
MODEL 5
REMARK VINA RESULT:      -7.2      2.421      5.236
REMARK  4 active torsions:
REMARK  status: ('A' for Active; 'I' for Inactive)
REMARK    1  A    between atoms: C2_3  and  N2_4 
REMARK    2  A    between atoms: C3_5  and  N3_6 
REMARK    3  A    between atoms: N3_6  and  C4_7 
REMARK    4  A    between atoms: C15_20  and  O1_21 
ROOT
HETATM    1  C4  UNL     1      24.851   1.702  52.539  1.00  0.00     0.059 C 
HETATM    2  C5  UNL     1      25.853   2.217  51.795  1.00  0.00     0.030 C 
HETATM    3  C6  UNL     1      26.529   3.022  50.743  1.00  0.00     0.010 C 
HETATM    4  C7  UNL     1      26.247   3.888  49.775  1.00  0.00    -0.051 C 
HETATM    5  C8  UNL     1      27.272   4.480  48.890  1.00  0.00     0.049 C 
HETATM    6  C9  UNL     1      25.048   4.635  49.346  1.00  0.00    -0.020 A 
HETATM    7  C10 UNL     1      24.445   5.608  48.644  1.00  0.00     0.014 A 
HETATM    8  C11 UNL     1      23.129   5.811  48.898  1.00  0.00     0.021 A 
HETATM    9  C12 UNL     1      22.924   4.776  49.928  1.00  0.00     0.022 A 
HETATM   10  S1  UNL     1      21.664   4.003  51.087  1.00  0.00    -0.061 SA
HETATM   11  N4  UNL     1      22.815   2.768  51.838  1.00  0.00    -0.306 N 
HETATM   12  C13 UNL     1      23.544   3.361  51.032  1.00  0.00     0.205 A 
HETATM   13  C14 UNL     1      24.065   4.143  50.127  1.00  0.00     0.005 A 
HETATM   14  C15 UNL     1      23.377   1.688  52.668  1.00  0.00     0.280 C 
ENDROOT
BRANCH   1  15
HETATM   15  N3  UNL     1      25.333   0.832  53.544  1.00  0.00    -0.351 N 
HETATM   16  H6  UNL     1      24.701   0.830  54.428  1.00  0.00     0.166 HD
BRANCH  15  17
HETATM   17  C3  UNL     1      26.409  -0.077  53.843  1.00  0.00     0.208 C 
HETATM   18  N2  UNL     1      27.268   0.747  54.461  1.00  0.00    -0.238 NA
BRANCH  18  19
HETATM   19  C2  UNL     1      28.474   0.130  54.888  1.00  0.00     0.227 C 
HETATM   20  N1  UNL     1      28.882  -0.441  53.820  1.00  0.00    -0.287 NA
HETATM   21  C1  UNL     1      30.104  -1.197  53.805  1.00  0.00     0.179 C 
ENDBRANCH  18  19
ENDBRANCH  15  17
ENDBRANCH   1  15
BRANCH  14  22
HETATM   22  O1  UNL     1      22.818   0.475  52.294  1.00  0.00    -0.365 OA
HETATM   23  C16 UNL     1      21.571   0.226  52.790  1.00  0.00     0.204 C 
ENDBRANCH  14  22
TORSDOF 4
ENDMDL
MODEL 6
REMARK VINA RESULT:      -7.1      3.461      5.688
REMARK  4 active torsions:
REMARK  status: ('A' for Active; 'I' for Inactive)
REMARK    1  A    between atoms: C2_3  and  N2_4 
REMARK    2  A    between atoms: C3_5  and  N3_6 
REMARK    3  A    between atoms: N3_6  and  C4_7 
REMARK    4  A    between atoms: C15_20  and  O1_21 
ROOT
HETATM    1  C4  UNL     1      24.438   3.159  50.715  1.00  0.00     0.059 C 
HETATM    2  C5  UNL     1      25.227   2.179  51.205  1.00  0.00     0.030 C 
HETATM    3  C6  UNL     1      25.643   1.012  52.028  1.00  0.00     0.010 C 
HETATM    4  C7  UNL     1      25.159   0.180  52.944  1.00  0.00    -0.051 C 
HETATM    5  C8  UNL     1      25.956  -0.903  53.559  1.00  0.00     0.049 C 
HETATM    6  C9  UNL     1      23.828  -0.098  53.518  1.00  0.00    -0.020 A 
HETATM    7  C10 UNL     1      22.975  -0.858  54.224  1.00  0.00     0.014 A 
HETATM    8  C11 UNL     1      21.672  -0.485  54.204  1.00  0.00     0.021 A 
HETATM    9  C12 UNL     1      21.778   0.701  53.335  1.00  0.00     0.022 A 
HETATM   10  S1  UNL     1      20.809   2.085  52.514  1.00  0.00    -0.061 SA
HETATM   11  N4  UNL     1      22.257   2.876  51.681  1.00  0.00    -0.306 N 
HETATM   12  C13 UNL     1      22.776   1.921  52.274  1.00  0.00     0.205 A 
HETATM   13  C14 UNL     1      23.042   0.860  52.986  1.00  0.00     0.005 A 
HETATM   14  C15 UNL     1      23.100   3.770  50.867  1.00  0.00     0.280 C 
ENDROOT
BRANCH   1  15
HETATM   15  N3  UNL     1      25.099   3.923  49.726  1.00  0.00    -0.351 N 
HETATM   16  H6  UNL     1      24.835   3.613  48.718  1.00  0.00     0.166 HD
BRANCH  15  17
HETATM   17  C3  UNL     1      26.046   4.996  49.558  1.00  0.00     0.208 C 
HETATM   18  N2  UNL     1      27.007   4.374  48.861  1.00  0.00    -0.238 NA
BRANCH  18  19
HETATM   19  C2  UNL     1      28.122   5.191  48.533  1.00  0.00     0.227 C 
HETATM   20  N1  UNL     1      27.603   6.358  48.491  1.00  0.00    -0.287 NA
HETATM   21  C1  UNL     1      28.400   7.513  48.187  1.00  0.00     0.179 C 
ENDBRANCH  18  19
ENDBRANCH  15  17
ENDBRANCH   1  15
BRANCH  14  22
HETATM   22  O1  UNL     1      23.148   5.025  51.455  1.00  0.00    -0.365 OA
HETATM   23  C16 UNL     1      22.377   5.982  50.858  1.00  0.00     0.204 C 
ENDBRANCH  14  22
TORSDOF 4
ENDMDL
MODEL 7
REMARK VINA RESULT:      -6.9      3.239      7.192
REMARK  4 active torsions:
REMARK  status: ('A' for Active; 'I' for Inactive)
REMARK    1  A    between atoms: C2_3  and  N2_4 
REMARK    2  A    between atoms: C3_5  and  N3_6 
REMARK    3  A    between atoms: N3_6  and  C4_7 
REMARK    4  A    between atoms: C15_20  and  O1_21 
ROOT
HETATM    1  C4  UNL     1      20.710   2.397  51.937  1.00  0.00     0.059 C 
HETATM    2  C5  UNL     1      20.722   1.445  52.894  1.00  0.00     0.030 C 
HETATM    3  C6  UNL     1      21.243   0.357  53.765  1.00  0.00     0.010 C 
HETATM    4  C7  UNL     1      22.361  -0.324  53.996  1.00  0.00    -0.051 C 
HETATM    5  C8  UNL     1      22.460  -1.404  55.001  1.00  0.00     0.049 C 
HETATM    6  C9  UNL     1      23.768  -0.216  53.567  1.00  0.00    -0.020 A 
HETATM    7  C10 UNL     1      25.070  -0.527  53.679  1.00  0.00     0.014 A 
HETATM    8  C11 UNL     1      25.930   0.177  52.903  1.00  0.00     0.021 A 
HETATM    9  C12 UNL     1      24.965   1.054  52.216  1.00  0.00     0.022 A 
HETATM   10  S1  UNL     1      24.785   2.440  50.960  1.00  0.00    -0.061 SA
HETATM   11  N4  UNL     1      22.946   2.577  51.076  1.00  0.00    -0.306 N 
HETATM   12  C13 UNL     1      23.199   1.670  51.879  1.00  0.00     0.205 A 
HETATM   13  C14 UNL     1      23.750   0.767  52.645  1.00  0.00     0.005 A 
HETATM   14  C15 UNL     1      21.550   3.005  50.882  1.00  0.00     0.280 C 
ENDROOT
BRANCH   1  15
HETATM   15  N3  UNL     1      19.457   3.045  51.853  1.00  0.00    -0.351 N 
HETATM   16  H6  UNL     1      19.531   4.114  52.037  1.00  0.00     0.166 HD
BRANCH  15  17
HETATM   17  C3  UNL     1      18.058   2.794  51.620  1.00  0.00     0.208 C 
HETATM   18  N2  UNL     1      17.536   3.993  51.918  1.00  0.00    -0.238 NA
BRANCH  18  19
HETATM   19  C2  UNL     1      16.124   4.071  51.787  1.00  0.00     0.227 C 
HETATM   20  N1  UNL     1      15.741   4.156  53.003  1.00  0.00    -0.287 NA
HETATM   21  C1  UNL     1      14.347   4.258  53.335  1.00  0.00     0.179 C 
ENDBRANCH  18  19
ENDBRANCH  15  17
ENDBRANCH   1  15
BRANCH  14  22
HETATM   22  O1  UNL     1      21.133   2.666  49.603  1.00  0.00    -0.365 OA
HETATM   23  C16 UNL     1      21.309   1.357  49.257  1.00  0.00     0.204 C 
ENDBRANCH  14  22
TORSDOF 4
ENDMDL
MODEL 8
REMARK VINA RESULT:      -6.9      3.272      6.929
REMARK  4 active torsions:
REMARK  status: ('A' for Active; 'I' for Inactive)
REMARK    1  A    between atoms: C2_3  and  N2_4 
REMARK    2  A    between atoms: C3_5  and  N3_6 
REMARK    3  A    between atoms: N3_6  and  C4_7 
REMARK    4  A    between atoms: C15_20  and  O1_21 
ROOT
HETATM    1  C4  UNL     1      19.818  -0.514  53.391  1.00  0.00     0.059 C 
HETATM    2  C5  UNL     1      20.953  -0.958  53.972  1.00  0.00     0.030 C 
HETATM    3  C6  UNL     1      22.400  -1.050  54.302  1.00  0.00     0.010 C 
HETATM    4  C7  UNL     1      23.555  -0.456  54.021  1.00  0.00    -0.051 C 
HETATM    5  C8  UNL     1      24.850  -0.892  54.584  1.00  0.00     0.049 C 
HETATM    6  C9  UNL     1      23.964   0.767  53.303  1.00  0.00    -0.020 A 
HETATM    7  C10 UNL     1      24.866   1.707  52.980  1.00  0.00     0.014 A 
HETATM    8  C11 UNL     1      24.410   2.766  52.268  1.00  0.00     0.021 A 
HETATM    9  C12 UNL     1      22.992   2.380  52.152  1.00  0.00     0.022 A 
HETATM   10  S1  UNL     1      21.318   2.898  51.475  1.00  0.00    -0.061 SA
HETATM   11  N4  UNL     1      20.389   1.424  52.090  1.00  0.00    -0.306 N 
HETATM   12  C13 UNL     1      21.541   1.198  52.482  1.00  0.00     0.205 A 
HETATM   13  C14 UNL     1      22.815   1.224  52.766  1.00  0.00     0.005 A 
HETATM   14  C15 UNL     1      19.316   0.461  52.398  1.00  0.00     0.280 C 
ENDROOT
BRANCH   1  15
HETATM   15  N3  UNL     1      18.683  -1.231  53.832  1.00  0.00    -0.351 N 
HETATM   16  H6  UNL     1      18.627  -1.293  54.915  1.00  0.00     0.166 HD
BRANCH  15  17
HETATM   17  C3  UNL     1      17.535  -1.956  53.350  1.00  0.00     0.208 C 
HETATM   18  N2  UNL     1      17.793  -3.182  53.827  1.00  0.00    -0.238 NA
BRANCH  18  19
HETATM   19  C2  UNL     1      16.815  -4.160  53.506  1.00  0.00     0.227 C 
HETATM   20  N1  UNL     1      15.983  -3.493  52.802  1.00  0.00    -0.287 NA
HETATM   21  C1  UNL     1      14.810  -4.116  52.255  1.00  0.00     0.179 C 
ENDBRANCH  18  19
ENDBRANCH  15  17
ENDBRANCH   1  15
BRANCH  14  22
HETATM   22  O1  UNL     1      18.881  -0.142  51.227  1.00  0.00    -0.365 OA
HETATM   23  C16 UNL     1      18.068   0.623  50.441  1.00  0.00     0.204 C 
ENDBRANCH  14  22
TORSDOF 4
ENDMDL
MODEL 9
REMARK VINA RESULT:      -6.8      4.115      5.970
REMARK  4 active torsions:
REMARK  status: ('A' for Active; 'I' for Inactive)
REMARK    1  A    between atoms: C2_3  and  N2_4 
REMARK    2  A    between atoms: C3_5  and  N3_6 
REMARK    3  A    between atoms: N3_6  and  C4_7 
REMARK    4  A    between atoms: C15_20  and  O1_21 
ROOT
HETATM    1  C4  UNL     1      25.547   3.342  50.394  1.00  0.00     0.059 C 
HETATM    2  C5  UNL     1      24.549   3.319  49.484  1.00  0.00     0.030 C 
HETATM    3  C6  UNL     1      23.273   2.920  48.832  1.00  0.00     0.010 C 
HETATM    4  C7  UNL     1      22.236   2.111  49.019  1.00  0.00    -0.051 C 
HETATM    5  C8  UNL     1      21.114   1.995  48.064  1.00  0.00     0.049 C 
HETATM    6  C9  UNL     1      21.746   1.264  50.124  1.00  0.00    -0.020 A 
HETATM    7  C10 UNL     1      20.795   0.532  50.725  1.00  0.00     0.014 A 
HETATM    8  C11 UNL     1      21.064   0.104  51.984  1.00  0.00     0.021 A 
HETATM    9  C12 UNL     1      22.408   0.687  52.149  1.00  0.00     0.022 A 
HETATM   10  S1  UNL     1      23.854   0.882  53.333  1.00  0.00    -0.061 SA
HETATM   11  N4  UNL     1      24.906   1.892  52.199  1.00  0.00    -0.306 N 
HETATM   12  C13 UNL     1      23.892   1.691  51.517  1.00  0.00     0.205 A 
HETATM   13  C14 UNL     1      22.731   1.331  51.043  1.00  0.00     0.005 A 
HETATM   14  C15 UNL     1      26.010   2.692  51.639  1.00  0.00     0.280 C 
ENDROOT
BRANCH   1  15
HETATM   15  N3  UNL     1      26.546   4.284  50.058  1.00  0.00    -0.351 N 
HETATM   16  H6  UNL     1      26.974   4.764  50.934  1.00  0.00     0.166 HD
BRANCH  15  17
HETATM   17  C3  UNL     1      27.219   4.878  48.932  1.00  0.00     0.208 C 
HETATM   18  N2  UNL     1      26.763   6.137  49.002  1.00  0.00    -0.238 NA
BRANCH  18  19
HETATM   19  C2  UNL     1      27.255   7.002  47.989  1.00  0.00     0.227 C 
HETATM   20  N1  UNL     1      28.499   6.711  47.962  1.00  0.00    -0.287 NA
HETATM   21  C1  UNL     1      29.395   7.369  47.052  1.00  0.00     0.179 C 
ENDBRANCH  18  19
ENDBRANCH  15  17
ENDBRANCH   1  15
BRANCH  14  22
HETATM   22  O1  UNL     1      27.118   1.882  51.440  1.00  0.00    -0.365 OA
HETATM   23  C16 UNL     1      27.584   1.242  52.553  1.00  0.00     0.204 C 
ENDBRANCH  14  22
TORSDOF 4
ENDMDL
