MODEL 1
REMARK VINA RESULT:      -9.2      0.000      0.000
REMARK  4 active torsions:
REMARK  status: ('A' for Active; 'I' for Inactive)
REMARK    1  A    between atoms: N3_8  and  C6_9 
REMARK    2  A    between atoms: C9_12  and  O1_13 
REMARK    3  A    between atoms: O1_13  and  C10_14 
REMARK    4  A    between atoms: C10_14  and  C11_15 
ROOT
HETATM    1  N1  UNL     1      29.249   2.103  54.615  1.00  0.00    -0.190 NA
HETATM    2  C1  UNL     1      28.985   1.054  54.219  1.00  0.00     0.119 C 
HETATM    3  C2  UNL     1      28.664  -0.249  53.712  1.00  0.00     0.136 A 
HETATM    4  C3  UNL     1      29.525  -1.237  53.857  1.00  0.00     0.129 A 
HETATM    5  N2  UNL     1      29.245  -2.561  53.365  1.00  0.00    -0.371 N 
HETATM    6  C4  UNL     1      27.999  -2.790  52.707  1.00  0.00     0.105 A 
HETATM    7  C5  UNL     1      27.154  -1.776  52.577  1.00  0.00     0.115 A 
HETATM    8  N3  UNL     1      27.408  -0.461  53.054  1.00  0.00    -0.315 N 
HETATM    9  H2  UNL     1      29.990  -3.289  53.524  1.00  0.00     0.164 HD
ENDROOT
BRANCH   8  10
HETATM   10  C6  UNL     1      26.447   0.578  52.876  1.00  0.00     0.017 C 
HETATM   11  C7  UNL     1      26.788   1.434  51.914  1.00  0.00     0.028 C 
HETATM   12  C8  UNL     1      26.196   2.636  51.333  1.00  0.00     0.040 C 
HETATM   13  C9  UNL     1      25.056   3.284  51.443  1.00  0.00     0.090 C 
HETATM   14  C16 UNL     1      23.867   2.990  52.273  1.00  0.00     0.063 C 
HETATM   15 CL1  UNL     1      22.834   4.395  52.440  1.00  0.00    -0.082 Cl
HETATM   16  C17 UNL     1      23.423   1.900  52.909  1.00  0.00     0.000 C 
HETATM   17  C18 UNL     1      23.958   0.505  53.045  1.00  0.00     0.035 C 
HETATM   18  C19 UNL     1      25.267   0.481  53.805  1.00  0.00     0.061 C 
BRANCH  13  19
HETATM   19  O1  UNL     1      24.813   4.430  50.724  1.00  0.00    -0.344 OA
BRANCH  19  20
HETATM   20  C10 UNL     1      24.972   4.514  49.317  1.00  0.00     0.235 C 
BRANCH  20  21
HETATM   21  C11 UNL     1      26.183   5.267  48.922  1.00  0.00     0.058 A 
HETATM   22  C12 UNL     1      27.447   4.720  48.702  1.00  0.00     0.029 A 
HETATM   23  C13 UNL     1      28.508   5.535  48.333  1.00  0.00     0.003 A 
HETATM   24  C14 UNL     1      28.314   6.889  48.185  1.00  0.00     0.019 A 
HETATM   25  C15 UNL     1      27.049   7.396  48.412  1.00  0.00     0.117 A 
HETATM   26  N4  UNL     1      26.006   6.591  48.774  1.00  0.00    -0.263 NA
ENDBRANCH  20  21
ENDBRANCH  19  20
ENDBRANCH  13  19
ENDBRANCH   8  10
TORSDOF 4
ENDMDL
MODEL 2
REMARK VINA RESULT:      -8.5      3.353      6.278
REMARK  4 active torsions:
REMARK  status: ('A' for Active; 'I' for Inactive)
REMARK    1  A    between atoms: N3_8  and  C6_9 
REMARK    2  A    between atoms: C9_12  and  O1_13 
REMARK    3  A    between atoms: O1_13  and  C10_14 
REMARK    4  A    between atoms: C10_14  and  C11_15 
ROOT
HETATM    1  N1  UNL     1      28.471   2.508  54.048  1.00  0.00    -0.190 NA
HETATM    2  C1  UNL     1      28.509   1.373  53.854  1.00  0.00     0.119 C 
HETATM    3  C2  UNL     1      28.563  -0.037  53.599  1.00  0.00     0.136 A 
HETATM    4  C3  UNL     1      29.636  -0.722  53.941  1.00  0.00     0.129 A 
HETATM    5  N2  UNL     1      29.735  -2.139  53.704  1.00  0.00    -0.371 N 
HETATM    6  C4  UNL     1      28.632  -2.801  53.084  1.00  0.00     0.105 A 
HETATM    7  C5  UNL     1      27.567  -2.085  52.753  1.00  0.00     0.115 A 
HETATM    8  N3  UNL     1      27.446  -0.685  52.975  1.00  0.00    -0.315 N 
HETATM    9  H2  UNL     1      30.629  -2.605  54.009  1.00  0.00     0.164 HD
ENDROOT
BRANCH   8  10
HETATM   10  C6  UNL     1      26.266   0.015  52.590  1.00  0.00     0.017 C 
HETATM   11  C7  UNL     1      25.231  -0.243  53.389  1.00  0.00     0.028 C 
HETATM   12  C8  UNL     1      23.837   0.185  53.455  1.00  0.00     0.040 C 
HETATM   13  C9  UNL     1      23.080   1.066  52.836  1.00  0.00     0.090 C 
HETATM   14  C16 UNL     1      23.415   2.019  51.755  1.00  0.00     0.063 C 
HETATM   15 CL1  UNL     1      21.977   2.607  50.945  1.00  0.00    -0.082 Cl
HETATM   16  C17 UNL     1      24.560   2.516  51.275  1.00  0.00     0.000 C 
HETATM   17  C18 UNL     1      26.000   2.308  51.642  1.00  0.00     0.035 C 
HETATM   18  C19 UNL     1      26.445   0.886  51.376  1.00  0.00     0.061 C 
BRANCH  13  19
HETATM   19  O1  UNL     1      21.752   1.219  53.156  1.00  0.00    -0.344 OA
BRANCH  19  20
HETATM   20  C10 UNL     1      20.986   0.214  53.799  1.00  0.00     0.235 C 
BRANCH  20  21
HETATM   21  C11 UNL     1      19.746  -0.118  53.064  1.00  0.00     0.058 A 
HETATM   22  C12 UNL     1      19.352   0.426  51.842  1.00  0.00     0.029 A 
HETATM   23  C13 UNL     1      18.159   0.030  51.251  1.00  0.00     0.003 A 
HETATM   24  C14 UNL     1      17.361  -0.902  51.874  1.00  0.00     0.019 A 
HETATM   25  C15 UNL     1      17.783  -1.418  53.084  1.00  0.00     0.117 A 
HETATM   26  N4  UNL     1      18.957  -1.028  53.662  1.00  0.00    -0.263 NA
ENDBRANCH  20  21
ENDBRANCH  19  20
ENDBRANCH  13  19
ENDBRANCH   8  10
TORSDOF 4
ENDMDL
MODEL 3
REMARK VINA RESULT:      -8.3      1.290      1.670
REMARK  4 active torsions:
REMARK  status: ('A' for Active; 'I' for Inactive)
REMARK    1  A    between atoms: N3_8  and  C6_9 
REMARK    2  A    between atoms: C9_12  and  O1_13 
REMARK    3  A    between atoms: O1_13  and  C10_14 
REMARK    4  A    between atoms: C10_14  and  C11_15 
ROOT
HETATM    1  N1  UNL     1      29.058   2.434  54.269  1.00  0.00    -0.190 NA
HETATM    2  C1  UNL     1      28.736   1.379  53.934  1.00  0.00     0.119 C 
HETATM    3  C2  UNL     1      28.343   0.069  53.504  1.00  0.00     0.136 A 
HETATM    4  C3  UNL     1      29.126  -0.963  53.752  1.00  0.00     0.129 A 
HETATM    5  N2  UNL     1      28.772  -2.296  53.340  1.00  0.00    -0.371 N 
HETATM    6  C4  UNL     1      27.539  -2.486  52.646  1.00  0.00     0.105 A 
HETATM    7  C5  UNL     1      26.773  -1.429  52.412  1.00  0.00     0.115 A 
HETATM    8  N3  UNL     1      27.101  -0.103  52.809  1.00  0.00    -0.315 N 
HETATM    9  H2  UNL     1      29.458  -3.060  53.580  1.00  0.00     0.164 HD
ENDROOT
BRANCH   8  10
HETATM   10  C6  UNL     1      26.223   0.982  52.520  1.00  0.00     0.017 C 
HETATM   11  C7  UNL     1      26.600   1.676  51.446  1.00  0.00     0.028 C 
HETATM   12  C8  UNL     1      26.089   2.840  50.728  1.00  0.00     0.040 C 
HETATM   13  C9  UNL     1      25.010   3.593  50.780  1.00  0.00     0.090 C 
HETATM   14  C16 UNL     1      23.831   3.510  51.668  1.00  0.00     0.063 C 
HETATM   15 CL1  UNL     1      22.923   5.009  51.676  1.00  0.00    -0.082 Cl
HETATM   16  C17 UNL     1      23.322   2.553  52.452  1.00  0.00     0.000 C 
HETATM   17  C18 UNL     1      23.744   1.146  52.756  1.00  0.00     0.035 C 
HETATM   18  C19 UNL     1      25.072   1.107  53.481  1.00  0.00     0.061 C 
BRANCH  13  19
HETATM   19  O1  UNL     1      24.838   4.654  49.923  1.00  0.00    -0.344 OA
BRANCH  19  20
HETATM   20  C10 UNL     1      25.836   5.632  49.685  1.00  0.00     0.235 C 
BRANCH  20  21
HETATM   21  C11 UNL     1      25.511   6.516  48.544  1.00  0.00     0.058 A 
HETATM   22  C12 UNL     1      26.417   7.318  47.851  1.00  0.00     0.029 A 
HETATM   23  C13 UNL     1      25.987   8.108  46.793  1.00  0.00     0.003 A 
HETATM   24  C14 UNL     1      24.661   8.101  46.427  1.00  0.00     0.019 A 
HETATM   25  C15 UNL     1      23.792   7.294  47.137  1.00  0.00     0.117 A 
HETATM   26  N4  UNL     1      24.218   6.518  48.177  1.00  0.00    -0.263 NA
ENDBRANCH  20  21
ENDBRANCH  19  20
ENDBRANCH  13  19
ENDBRANCH   8  10
TORSDOF 4
ENDMDL
MODEL 4
REMARK VINA RESULT:      -8.2      3.648      7.172
REMARK  4 active torsions:
REMARK  status: ('A' for Active; 'I' for Inactive)
REMARK    1  A    between atoms: N3_8  and  C6_9 
REMARK    2  A    between atoms: C9_12  and  O1_13 
REMARK    3  A    between atoms: O1_13  and  C10_14 
REMARK    4  A    between atoms: C10_14  and  C11_15 
ROOT
HETATM    1  N1  UNL     1      22.465   5.008  52.266  1.00  0.00    -0.190 NA
HETATM    2  C1  UNL     1      22.413   4.512  51.226  1.00  0.00     0.119 C 
HETATM    3  C2  UNL     1      22.332   3.896  49.934  1.00  0.00     0.136 A 
HETATM    4  C3  UNL     1      22.230   4.648  48.856  1.00  0.00     0.129 A 
HETATM    5  N2  UNL     1      22.146   4.074  47.539  1.00  0.00    -0.371 N 
HETATM    6  C4  UNL     1      22.176   2.651  47.417  1.00  0.00     0.105 A 
HETATM    7  C5  UNL     1      22.279   1.922  48.519  1.00  0.00     0.115 A 
HETATM    8  N3  UNL     1      22.363   2.466  49.831  1.00  0.00    -0.315 N 
HETATM    9  H2  UNL     1      22.067   4.750  46.735  1.00  0.00     0.164 HD
ENDROOT
BRANCH   8  10
HETATM   10  C6  UNL     1      22.473   1.614  50.968  1.00  0.00     0.017 C 
HETATM   11  C7  UNL     1      23.732   1.455  51.372  1.00  0.00     0.028 C 
HETATM   12  C8  UNL     1      24.395   0.718  52.444  1.00  0.00     0.040 C 
HETATM   13  C9  UNL     1      24.018   0.017  53.493  1.00  0.00     0.090 C 
HETATM   14  C16 UNL     1      22.663  -0.294  53.995  1.00  0.00     0.063 C 
HETATM   15 CL1  UNL     1      22.682  -1.647  55.108  1.00  0.00    -0.082 Cl
HETATM   16  C17 UNL     1      21.450   0.228  53.784  1.00  0.00     0.000 C 
HETATM   17  C18 UNL     1      20.957   1.363  52.935  1.00  0.00     0.035 C 
HETATM   18  C19 UNL     1      21.152   1.084  51.461  1.00  0.00     0.061 C 
BRANCH  13  19
HETATM   19  O1  UNL     1      24.939  -0.567  54.331  1.00  0.00    -0.344 OA
BRANCH  19  20
HETATM   20  C10 UNL     1      25.913   0.170  55.051  1.00  0.00     0.235 C 
BRANCH  20  21
HETATM   21  C11 UNL     1      27.270   0.036  54.480  1.00  0.00     0.058 A 
HETATM   22  C12 UNL     1      27.706  -0.996  53.648  1.00  0.00     0.029 A 
HETATM   23  C13 UNL     1      29.012  -1.009  53.175  1.00  0.00     0.003 A 
HETATM   24  C14 UNL     1      29.880  -0.002  53.528  1.00  0.00     0.019 A 
HETATM   25  C15 UNL     1      29.413   1.002  54.354  1.00  0.00     0.117 A 
HETATM   26  N4  UNL     1      28.129   1.014  54.818  1.00  0.00    -0.263 NA
ENDBRANCH  20  21
ENDBRANCH  19  20
ENDBRANCH  13  19
ENDBRANCH   8  10
TORSDOF 4
ENDMDL
MODEL 5
REMARK VINA RESULT:      -8.0      3.663      6.740
REMARK  4 active torsions:
REMARK  status: ('A' for Active; 'I' for Inactive)
REMARK    1  A    between atoms: N3_8  and  C6_9 
REMARK    2  A    between atoms: C9_12  and  O1_13 
REMARK    3  A    between atoms: O1_13  and  C10_14 
REMARK    4  A    between atoms: C10_14  and  C11_15 
ROOT
HETATM    1  N1  UNL     1      26.772  -2.236  52.354  1.00  0.00    -0.190 NA
HETATM    2  C1  UNL     1      27.310  -1.285  52.719  1.00  0.00     0.119 C 
HETATM    3  C2  UNL     1      27.972  -0.103  53.189  1.00  0.00     0.136 A 
HETATM    4  C3  UNL     1      29.135  -0.205  53.801  1.00  0.00     0.129 A 
HETATM    5  N2  UNL     1      29.836   0.954  54.289  1.00  0.00    -0.371 N 
HETATM    6  C4  UNL     1      29.241   2.237  54.095  1.00  0.00     0.105 A 
HETATM    7  C5  UNL     1      28.071   2.307  53.475  1.00  0.00     0.115 A 
HETATM    8  N3  UNL     1      27.360   1.178  52.985  1.00  0.00    -0.315 N 
HETATM    9  H2  UNL     1      30.759   0.779  54.766  1.00  0.00     0.164 HD
ENDROOT
BRANCH   8  10
HETATM   10  C6  UNL     1      26.105   1.335  52.328  1.00  0.00     0.017 C 
HETATM   11  C7  UNL     1      25.072   1.037  53.115  1.00  0.00     0.028 C 
HETATM   12  C8  UNL     1      23.619   1.023  52.963  1.00  0.00     0.040 C 
HETATM   13  C9  UNL     1      22.753   1.400  52.046  1.00  0.00     0.090 C 
HETATM   14  C16 UNL     1      22.975   2.027  50.726  1.00  0.00     0.063 C 
HETATM   15 CL1  UNL     1      21.567   1.875  49.694  1.00  0.00    -0.082 Cl
HETATM   16  C17 UNL     1      24.002   2.673  50.164  1.00  0.00     0.000 C 
HETATM   17  C18 UNL     1      25.376   3.033  50.650  1.00  0.00     0.035 C 
HETATM   18  C19 UNL     1      26.219   1.801  50.901  1.00  0.00     0.061 C 
BRANCH  13  19
HETATM   19  O1  UNL     1      21.401   1.236  52.230  1.00  0.00    -0.344 OA
BRANCH  19  20
HETATM   20  C10 UNL     1      20.842   0.182  52.997  1.00  0.00     0.235 C 
BRANCH  20  21
HETATM   21  C11 UNL     1      19.472  -0.175  52.567  1.00  0.00     0.058 A 
HETATM   22  C12 UNL     1      18.866   0.212  51.372  1.00  0.00     0.029 A 
HETATM   23  C13 UNL     1      17.569  -0.191  51.082  1.00  0.00     0.003 A 
HETATM   24  C14 UNL     1      16.877  -0.973  51.977  1.00  0.00     0.019 A 
HETATM   25  C15 UNL     1      17.509  -1.336  53.151  1.00  0.00     0.117 A 
HETATM   26  N4  UNL     1      18.786  -0.940  53.434  1.00  0.00    -0.263 NA
ENDBRANCH  20  21
ENDBRANCH  19  20
ENDBRANCH  13  19
ENDBRANCH   8  10
TORSDOF 4
ENDMDL
MODEL 6
REMARK VINA RESULT:      -7.9      1.964      2.510
REMARK  4 active torsions:
REMARK  status: ('A' for Active; 'I' for Inactive)
REMARK    1  A    between atoms: N3_8  and  C6_9 
REMARK    2  A    between atoms: C9_12  and  O1_13 
REMARK    3  A    between atoms: O1_13  and  C10_14 
REMARK    4  A    between atoms: C10_14  and  C11_15 
ROOT
HETATM    1  N1  UNL     1      28.643   2.518  54.225  1.00  0.00    -0.190 NA
HETATM    2  C1  UNL     1      28.498   1.412  53.933  1.00  0.00     0.119 C 
HETATM    3  C2  UNL     1      28.324   0.039  53.557  1.00  0.00     0.136 A 
HETATM    4  C3  UNL     1      29.312  -0.817  53.733  1.00  0.00     0.129 A 
HETATM    5  N2  UNL     1      29.183  -2.204  53.370  1.00  0.00    -0.371 N 
HETATM    6  C4  UNL     1      27.947  -2.645  52.807  1.00  0.00     0.105 A 
HETATM    7  C5  UNL     1      26.973  -1.761  52.643  1.00  0.00     0.115 A 
HETATM    8  N3  UNL     1      27.077  -0.386  52.993  1.00  0.00    -0.315 N 
HETATM    9  H2  UNL     1      30.023  -2.816  53.545  1.00  0.00     0.164 HD
ENDROOT
BRANCH   8  10
HETATM   10  C6  UNL     1      25.982   0.504  52.786  1.00  0.00     0.017 C 
HETATM   11  C7  UNL     1      26.200   1.362  51.789  1.00  0.00     0.028 C 
HETATM   12  C8  UNL     1      25.446   2.449  51.171  1.00  0.00     0.040 C 
HETATM   13  C9  UNL     1      24.228   2.939  51.267  1.00  0.00     0.090 C 
HETATM   14  C16 UNL     1      23.094   2.516  52.117  1.00  0.00     0.063 C 
HETATM   15 CL1  UNL     1      21.879   3.772  52.243  1.00  0.00    -0.082 Cl
HETATM   16  C17 UNL     1      22.806   1.401  52.797  1.00  0.00     0.000 C 
HETATM   17  C18 UNL     1      23.527   0.098  52.980  1.00  0.00     0.035 C 
HETATM   18  C19 UNL     1      24.830   0.281  53.728  1.00  0.00     0.061 C 
BRANCH  13  19
HETATM   19  O1  UNL     1      23.828   4.013  50.508  1.00  0.00    -0.344 OA
BRANCH  19  20
HETATM   20  C10 UNL     1      24.649   5.143  50.265  1.00  0.00     0.235 C 
BRANCH  20  21
HETATM   21  C11 UNL     1      23.870   6.367  49.982  1.00  0.00     0.058 A 
HETATM   22  C12 UNL     1      24.268   7.413  49.149  1.00  0.00     0.029 A 
HETATM   23  C13 UNL     1      23.442   8.514  48.964  1.00  0.00     0.003 A 
HETATM   24  C14 UNL     1      22.226   8.576  49.604  1.00  0.00     0.019 A 
HETATM   25  C15 UNL     1      21.866   7.522  50.422  1.00  0.00     0.117 A 
HETATM   26  N4  UNL     1      22.679   6.440  50.602  1.00  0.00    -0.263 NA
ENDBRANCH  20  21
ENDBRANCH  19  20
ENDBRANCH  13  19
ENDBRANCH   8  10
TORSDOF 4
ENDMDL
MODEL 7
REMARK VINA RESULT:      -7.9      2.884      5.562
REMARK  4 active torsions:
REMARK  status: ('A' for Active; 'I' for Inactive)
REMARK    1  A    between atoms: N3_8  and  C6_9 
REMARK    2  A    between atoms: C9_12  and  O1_13 
REMARK    3  A    between atoms: O1_13  and  C10_14 
REMARK    4  A    between atoms: C10_14  and  C11_15 
ROOT
HETATM    1  N1  UNL     1      24.326  -0.618  53.753  1.00  0.00    -0.190 NA
HETATM    2  C1  UNL     1      25.349  -0.098  53.862  1.00  0.00     0.119 C 
HETATM    3  C2  UNL     1      26.616   0.557  54.010  1.00  0.00     0.136 A 
HETATM    4  C3  UNL     1      27.495   0.091  54.876  1.00  0.00     0.129 A 
HETATM    5  N2  UNL     1      28.779   0.716  55.058  1.00  0.00    -0.371 N 
HETATM    6  C4  UNL     1      29.091   1.867  54.273  1.00  0.00     0.105 A 
HETATM    7  C5  UNL     1      28.187   2.311  53.411  1.00  0.00     0.115 A 
HETATM    8  N3  UNL     1      26.912   1.711  53.213  1.00  0.00    -0.315 N 
HETATM    9  H2  UNL     1      29.419   0.277  55.772  1.00  0.00     0.164 HD
ENDROOT
BRANCH   8  10
HETATM   10  C6  UNL     1      25.993   2.248  52.265  1.00  0.00     0.017 C 
HETATM   11  C7  UNL     1      24.940   2.828  52.841  1.00  0.00     0.028 C 
HETATM   12  C8  UNL     1      23.741   3.513  52.367  1.00  0.00     0.040 C 
HETATM   13  C9  UNL     1      23.277   3.928  51.207  1.00  0.00     0.090 C 
HETATM   14  C16 UNL     1      23.868   3.833  49.854  1.00  0.00     0.063 C 
HETATM   15 CL1  UNL     1      22.663   4.075  48.606  1.00  0.00    -0.082 Cl
HETATM   16  C17 UNL     1      25.102   3.607  49.392  1.00  0.00     0.000 C 
HETATM   17  C18 UNL     1      26.418   3.352  50.067  1.00  0.00     0.035 C 
HETATM   18  C19 UNL     1      26.408   2.046  50.833  1.00  0.00     0.061 C 
BRANCH  13  19
HETATM   19  O1  UNL     1      22.062   4.563  51.109  1.00  0.00    -0.344 OA
BRANCH  19  20
HETATM   20  C10 UNL     1      20.944   4.233  51.916  1.00  0.00     0.235 C 
BRANCH  20  21
HETATM   21  C11 UNL     1      20.451   2.859  51.677  1.00  0.00     0.058 A 
HETATM   22  C12 UNL     1      20.014   2.351  50.454  1.00  0.00     0.029 A 
HETATM   23  C13 UNL     1      19.573   1.038  50.359  1.00  0.00     0.003 A 
HETATM   24  C14 UNL     1      19.566   0.233  51.475  1.00  0.00     0.019 A 
HETATM   25  C15 UNL     1      20.005   0.771  52.669  1.00  0.00     0.117 A 
HETATM   26  N4  UNL     1      20.440   2.062  52.761  1.00  0.00    -0.263 NA
ENDBRANCH  20  21
ENDBRANCH  19  20
ENDBRANCH  13  19
ENDBRANCH   8  10
TORSDOF 4
ENDMDL
MODEL 8
REMARK VINA RESULT:      -7.8      1.928      7.080
REMARK  4 active torsions:
REMARK  status: ('A' for Active; 'I' for Inactive)
REMARK    1  A    between atoms: N3_8  and  C6_9 
REMARK    2  A    between atoms: C9_12  and  O1_13 
REMARK    3  A    between atoms: O1_13  and  C10_14 
REMARK    4  A    between atoms: C10_14  and  C11_15 
ROOT
HETATM    1  N1  UNL     1      24.054   7.493  51.086  1.00  0.00    -0.190 NA
HETATM    2  C1  UNL     1      24.988   7.201  50.477  1.00  0.00     0.119 C 
HETATM    3  C2  UNL     1      26.141   6.840  49.705  1.00  0.00     0.136 A 
HETATM    4  C3  UNL     1      27.003   7.770  49.344  1.00  0.00     0.129 A 
HETATM    5  N2  UNL     1      28.175   7.454  48.570  1.00  0.00    -0.371 N 
HETATM    6  C4  UNL     1      28.392   6.094  48.194  1.00  0.00     0.105 A 
HETATM    7  C5  UNL     1      27.508   5.182  48.572  1.00  0.00     0.115 A 
HETATM    8  N3  UNL     1      26.344   5.469  49.336  1.00  0.00    -0.315 N 
HETATM    9  H2  UNL     1      28.809   8.260  48.326  1.00  0.00     0.164 HD
ENDROOT
BRANCH   8  10
HETATM   10  C6  UNL     1      25.439   4.431  49.705  1.00  0.00     0.017 C 
HETATM   11  C7  UNL     1      25.948   3.606  50.618  1.00  0.00     0.028 C 
HETATM   12  C8  UNL     1      25.476   2.418  51.325  1.00  0.00     0.040 C 
HETATM   13  C9  UNL     1      24.341   1.760  51.429  1.00  0.00     0.090 C 
HETATM   14  C16 UNL     1      23.026   2.022  50.806  1.00  0.00     0.063 C 
HETATM   15 CL1  UNL     1      21.994   0.606  50.856  1.00  0.00    -0.082 Cl
HETATM   16  C17 UNL     1      22.468   3.089  50.224  1.00  0.00     0.000 C 
HETATM   17  C18 UNL     1      22.957   4.483  49.959  1.00  0.00     0.035 C 
HETATM   18  C19 UNL     1      24.117   4.493  48.987  1.00  0.00     0.061 C 
BRANCH  13  19
HETATM   19  O1  UNL     1      24.237   0.634  52.211  1.00  0.00    -0.344 OA
BRANCH  19  20
HETATM   20  C10 UNL     1      24.704   0.570  53.548  1.00  0.00     0.235 C 
BRANCH  20  21
HETATM   21  C11 UNL     1      26.110   0.121  53.642  1.00  0.00     0.058 A 
HETATM   22  C12 UNL     1      26.687  -0.911  52.903  1.00  0.00     0.029 A 
HETATM   23  C13 UNL     1      28.025  -1.239  53.084  1.00  0.00     0.003 A 
HETATM   24  C14 UNL     1      28.785  -0.544  53.996  1.00  0.00     0.019 A 
HETATM   25  C15 UNL     1      28.179   0.471  54.711  1.00  0.00     0.117 A 
HETATM   26  N4  UNL     1      26.863   0.792  54.531  1.00  0.00    -0.263 NA
ENDBRANCH  20  21
ENDBRANCH  19  20
ENDBRANCH  13  19
ENDBRANCH   8  10
TORSDOF 4
ENDMDL
MODEL 9
REMARK VINA RESULT:      -7.7      3.276      7.688
REMARK  4 active torsions:
REMARK  status: ('A' for Active; 'I' for Inactive)
REMARK    1  A    between atoms: N3_8  and  C6_9 
REMARK    2  A    between atoms: C9_12  and  O1_13 
REMARK    3  A    between atoms: O1_13  and  C10_14 
REMARK    4  A    between atoms: C10_14  and  C11_15 
ROOT
HETATM    1  N1  UNL     1      22.507   2.251  47.558  1.00  0.00    -0.190 NA
HETATM    2  C1  UNL     1      22.536   3.222  48.178  1.00  0.00     0.119 C 
HETATM    3  C2  UNL     1      22.588   4.429  48.951  1.00  0.00     0.136 A 
HETATM    4  C3  UNL     1      22.704   5.591  48.340  1.00  0.00     0.129 A 
HETATM    5  N2  UNL     1      22.759   6.828  49.074  1.00  0.00    -0.371 N 
HETATM    6  C4  UNL     1      22.685   6.775  50.499  1.00  0.00     0.105 A 
HETATM    7  C5  UNL     1      22.568   5.591  51.084  1.00  0.00     0.115 A 
HETATM    8  N3  UNL     1      22.512   4.356  50.381  1.00  0.00    -0.315 N 
HETATM    9  H2  UNL     1      22.853   7.710  48.504  1.00  0.00     0.164 HD
ENDROOT
BRANCH   8  10
HETATM   10  C6  UNL     1      22.385   3.122  51.083  1.00  0.00     0.017 C 
HETATM   11  C7  UNL     1      23.564   2.602  51.424  1.00  0.00     0.028 C 
HETATM   12  C8  UNL     1      24.006   1.401  52.128  1.00  0.00     0.040 C 
HETATM   13  C9  UNL     1      23.432   0.424  52.797  1.00  0.00     0.090 C 
HETATM   14  C16 UNL     1      22.004   0.182  53.095  1.00  0.00     0.063 C 
HETATM   15 CL1  UNL     1      21.717  -1.480  53.572  1.00  0.00    -0.082 Cl
HETATM   16  C17 UNL     1      20.907   0.947  53.078  1.00  0.00     0.000 C 
HETATM   17  C18 UNL     1      20.671   2.390  52.743  1.00  0.00     0.035 C 
HETATM   18  C19 UNL     1      20.961   2.680  51.286  1.00  0.00     0.061 C 
BRANCH  13  19
HETATM   19  O1  UNL     1      24.172  -0.592  53.355  1.00  0.00    -0.344 OA
BRANCH  19  20
HETATM   20  C10 UNL     1      24.978  -0.423  54.509  1.00  0.00     0.235 C 
BRANCH  20  21
HETATM   21  C11 UNL     1      26.425  -0.488  54.212  1.00  0.00     0.058 A 
HETATM   22  C12 UNL     1      27.010  -1.183  53.153  1.00  0.00     0.029 A 
HETATM   23  C13 UNL     1      28.387  -1.166  52.979  1.00  0.00     0.003 A 
HETATM   24  C14 UNL     1      29.181  -0.462  53.855  1.00  0.00     0.019 A 
HETATM   25  C15 UNL     1      28.567   0.214  54.893  1.00  0.00     0.117 A 
HETATM   26  N4  UNL     1      27.212   0.196  55.061  1.00  0.00    -0.263 NA
ENDBRANCH  20  21
ENDBRANCH  19  20
ENDBRANCH  13  19
ENDBRANCH   8  10
TORSDOF 4
ENDMDL
