MODEL 1
REMARK VINA RESULT:      -7.8      0.000      0.000
REMARK  3 active torsions:
REMARK  status: ('A' for Active; 'I' for Inactive)
REMARK    1  A    between atoms: O1_2  and  C2_3 
REMARK    2  A    between atoms: C6_9  and  N3_10 
REMARK    3  A    between atoms: C17_22  and  O2_23 
ROOT
HETATM    1  C2  UNL     1      25.119   0.350  53.690  1.00  0.00     0.103 A 
HETATM    2  C3  UNL     1      23.962   0.107  52.947  1.00  0.00     0.072 A 
HETATM    3  C4  UNL     1      23.412   1.043  52.081  1.00  0.00     0.075 A 
HETATM    4  N1  UNL     1      22.316   0.871  51.356  1.00  0.00    -0.241 NA
HETATM    5  C5  UNL     1      21.905   1.899  50.558  1.00  0.00     0.236 A 
HETATM    6  N2  UNL     1      22.572   3.066  50.486  1.00  0.00    -0.223 NA
HETATM    7  C6  UNL     1      23.703   3.239  51.235  1.00  0.00     0.144 A 
HETATM    8  C15 UNL     1      24.112   2.215  52.032  1.00  0.00     0.042 A 
HETATM    9  C16 UNL     1      25.235   2.511  52.725  1.00  0.00     0.057 A 
HETATM   10  C17 UNL     1      25.773   1.578  53.579  1.00  0.00     0.102 A 
ENDROOT
BRANCH   7  11
HETATM   11  N3  UNL     1      24.201   4.573  50.924  1.00  0.00    -0.326 N 
HETATM   12  C7  UNL     1      23.607   5.706  51.626  1.00  0.00     0.140 C 
HETATM   13  C8  UNL     1      24.515   6.828  51.070  1.00  0.00     0.073 C 
HETATM   14  S1  UNL     1      24.813   6.456  49.471  1.00  0.00    -0.229 SA
HETATM   15  C9  UNL     1      23.610   5.874  48.490  1.00  0.00     0.067 C 
HETATM   16  C10 UNL     1      26.390   6.611  48.747  1.00  0.00     0.021 C 
HETATM   17  C14 UNL     1      25.309   4.956  50.012  1.00  0.00     0.050 C 
HETATM   18  H10 UNL     1      24.654   7.596  49.130  1.00  0.00     0.083 HD
HETATM   19  C11 UNL     1      27.444   5.673  48.383  1.00  0.00     0.005 C 
HETATM   20  C12 UNL     1      27.347   4.461  48.904  1.00  0.00     0.003 C 
HETATM   21  C13 UNL     1      26.253   4.078  49.766  1.00  0.00     0.035 C 
ENDBRANCH   7  11
BRANCH  10  22
HETATM   22  O2  UNL     1      26.910   1.765  54.335  1.00  0.00    -0.353 OA
HETATM   23  C18 UNL     1      28.160   2.093  53.787  1.00  0.00     0.210 C 
ENDBRANCH  10  22
BRANCH   1  24
HETATM   24  O1  UNL     1      25.636  -0.609  54.541  1.00  0.00    -0.353 OA
HETATM   25  C1  UNL     1      24.948  -1.122  55.649  1.00  0.00     0.210 C 
ENDBRANCH   1  24
TORSDOF 3
ENDMDL
MODEL 2
REMARK VINA RESULT:      -7.7      2.426      3.044
REMARK  3 active torsions:
REMARK  status: ('A' for Active; 'I' for Inactive)
REMARK    1  A    between atoms: O1_2  and  C2_3 
REMARK    2  A    between atoms: C6_9  and  N3_10 
REMARK    3  A    between atoms: C17_22  and  O2_23 
ROOT
HETATM    1  C2  UNL     1      26.850  -0.160  53.671  1.00  0.00     0.103 A 
HETATM    2  C3  UNL     1      25.607  -0.733  53.955  1.00  0.00     0.072 A 
HETATM    3  C4  UNL     1      24.403  -0.112  53.651  1.00  0.00     0.075 A 
HETATM    4  N1  UNL     1      23.199  -0.604  53.901  1.00  0.00    -0.241 NA
HETATM    5  C5  UNL     1      22.113   0.142  53.542  1.00  0.00     0.236 A 
HETATM    6  N2  UNL     1      22.230   1.344  52.948  1.00  0.00    -0.223 NA
HETATM    7  C6  UNL     1      23.475   1.848  52.691  1.00  0.00     0.144 A 
HETATM    8  C15 UNL     1      24.557   1.106  53.050  1.00  0.00     0.042 A 
HETATM    9  C16 UNL     1      25.728   1.713  52.750  1.00  0.00     0.057 A 
HETATM   10  C17 UNL     1      26.914   1.091  53.054  1.00  0.00     0.102 A 
ENDROOT
BRANCH   7  11
HETATM   11  N3  UNL     1      23.270   3.131  52.032  1.00  0.00    -0.326 N 
HETATM   12  C7  UNL     1      23.517   4.344  52.805  1.00  0.00     0.140 C 
HETATM   13  C8  UNL     1      23.294   5.386  51.682  1.00  0.00     0.073 C 
HETATM   14  S1  UNL     1      22.036   4.820  50.745  1.00  0.00    -0.229 SA
HETATM   15  C9  UNL     1      20.698   4.128  51.436  1.00  0.00     0.067 C 
HETATM   16  C10 UNL     1      22.060   4.878  49.003  1.00  0.00     0.021 C 
HETATM   17  C14 UNL     1      22.897   3.394  50.619  1.00  0.00     0.050 C 
HETATM   18  H10 UNL     1      21.540   5.911  50.674  1.00  0.00     0.083 HD
HETATM   19  C11 UNL     1      22.296   3.897  47.952  1.00  0.00     0.005 C 
HETATM   20  C12 UNL     1      22.849   2.758  48.334  1.00  0.00     0.003 C 
HETATM   21  C13 UNL     1      23.184   2.488  49.714  1.00  0.00     0.035 C 
ENDBRANCH   7  11
BRANCH  10  22
HETATM   22  O2  UNL     1      28.165   1.609  52.797  1.00  0.00    -0.353 OA
HETATM   23  C18 UNL     1      28.808   2.532  53.636  1.00  0.00     0.210 C 
ENDBRANCH  10  22
BRANCH   1  24
HETATM   24  O1  UNL     1      28.025  -0.811  53.990  1.00  0.00    -0.353 OA
HETATM   25  C1  UNL     1      28.632  -1.773  53.170  1.00  0.00     0.210 C 
ENDBRANCH   1  24
TORSDOF 3
ENDMDL
MODEL 3
REMARK VINA RESULT:      -7.4      2.323      4.652
REMARK  3 active torsions:
REMARK  status: ('A' for Active; 'I' for Inactive)
REMARK    1  A    between atoms: O1_2  and  C2_3 
REMARK    2  A    between atoms: C6_9  and  N3_10 
REMARK    3  A    between atoms: C17_22  and  O2_23 
ROOT
HETATM    1  C2  UNL     1      27.016   0.232  53.498  1.00  0.00     0.103 A 
HETATM    2  C3  UNL     1      27.540   1.112  52.549  1.00  0.00     0.072 A 
HETATM    3  C4  UNL     1      26.754   2.012  51.841  1.00  0.00     0.075 A 
HETATM    4  N1  UNL     1      27.195   2.865  50.927  1.00  0.00    -0.241 NA
HETATM    5  C5  UNL     1      26.285   3.680  50.317  1.00  0.00     0.236 A 
HETATM    6  N2  UNL     1      24.972   3.643  50.614  1.00  0.00    -0.223 NA
HETATM    7  C6  UNL     1      24.522   2.762  51.559  1.00  0.00     0.144 A 
HETATM    8  C15 UNL     1      25.429   1.949  52.165  1.00  0.00     0.042 A 
HETATM    9  C16 UNL     1      24.861   1.121  53.072  1.00  0.00     0.057 A 
HETATM   10  C17 UNL     1      25.646   0.234  53.769  1.00  0.00     0.102 A 
ENDROOT
BRANCH   7  11
HETATM   11  N3  UNL     1      23.086   2.978  51.671  1.00  0.00    -0.326 N 
HETATM   12  C7  UNL     1      22.623   4.070  52.521  1.00  0.00     0.140 C 
HETATM   13  C8  UNL     1      21.108   3.972  52.223  1.00  0.00     0.073 C 
HETATM   14  S1  UNL     1      20.749   2.348  52.088  1.00  0.00    -0.229 SA
HETATM   15  C9  UNL     1      21.408   1.238  53.128  1.00  0.00     0.067 C 
HETATM   16  C10 UNL     1      19.709   1.714  50.842  1.00  0.00     0.021 C 
HETATM   17  C14 UNL     1      21.987   2.265  50.971  1.00  0.00     0.050 C 
HETATM   18  H10 UNL     1      19.740   2.473  52.728  1.00  0.00     0.083 HD
HETATM   19  C11 UNL     1      19.931   1.002  49.591  1.00  0.00     0.005 C 
HETATM   20  C12 UNL     1      21.169   1.020  49.125  1.00  0.00     0.003 C 
HETATM   21  C13 UNL     1      22.245   1.686  49.821  1.00  0.00     0.035 C 
ENDBRANCH   7  11
BRANCH  10  22
HETATM   22  O2  UNL     1      25.182  -0.655  54.714  1.00  0.00    -0.353 OA
HETATM   23  C18 UNL     1      23.828  -0.993  54.861  1.00  0.00     0.210 C 
ENDBRANCH  10  22
BRANCH   1  24
HETATM   24  O1  UNL     1      27.831  -0.649  54.182  1.00  0.00    -0.353 OA
HETATM   25  C1  UNL     1      29.172  -0.888  53.852  1.00  0.00     0.210 C 
ENDBRANCH   1  24
TORSDOF 3
ENDMDL
MODEL 4
REMARK VINA RESULT:      -7.3      2.782      4.238
REMARK  3 active torsions:
REMARK  status: ('A' for Active; 'I' for Inactive)
REMARK    1  A    between atoms: O1_2  and  C2_3 
REMARK    2  A    between atoms: C6_9  and  N3_10 
REMARK    3  A    between atoms: C17_22  and  O2_23 
ROOT
HETATM    1  C2  UNL     1      25.904  -0.321  53.630  1.00  0.00     0.103 A 
HETATM    2  C3  UNL     1      24.906  -0.841  54.460  1.00  0.00     0.072 A 
HETATM    3  C4  UNL     1      23.554  -0.602  54.252  1.00  0.00     0.075 A 
HETATM    4  N1  UNL     1      22.566  -1.062  55.006  1.00  0.00    -0.241 NA
HETATM    5  C5  UNL     1      21.288  -0.727  54.666  1.00  0.00     0.236 A 
HETATM    6  N2  UNL     1      21.005   0.045  53.600  1.00  0.00    -0.223 NA
HETATM    7  C6  UNL     1      22.027   0.516  52.823  1.00  0.00     0.144 A 
HETATM    8  C15 UNL     1      23.301   0.184  53.163  1.00  0.00     0.042 A 
HETATM    9  C16 UNL     1      24.220   0.716  52.325  1.00  0.00     0.057 A 
HETATM   10  C17 UNL     1      25.556   0.474  52.537  1.00  0.00     0.102 A 
ENDROOT
BRANCH   7  11
HETATM   11  N3  UNL     1      21.407   1.286  51.752  1.00  0.00    -0.326 N 
HETATM   12  C7  UNL     1      20.464   0.600  50.875  1.00  0.00     0.140 C 
HETATM   13  C8  UNL     1      20.010   1.812  50.027  1.00  0.00     0.073 C 
HETATM   14  S1  UNL     1      21.358   2.766  49.793  1.00  0.00    -0.229 SA
HETATM   15  C9  UNL     1      22.834   2.092  49.454  1.00  0.00     0.067 C 
HETATM   16  C10 UNL     1      21.317   4.503  49.927  1.00  0.00     0.021 C 
HETATM   17  C14 UNL     1      21.552   2.733  51.451  1.00  0.00     0.050 C 
HETATM   18  H10 UNL     1      21.083   2.949  48.638  1.00  0.00     0.083 HD
HETATM   19  C11 UNL     1      21.740   5.459  50.942  1.00  0.00     0.005 C 
HETATM   20  C12 UNL     1      21.997   4.959  52.139  1.00  0.00     0.003 C 
HETATM   21  C13 UNL     1      21.888   3.547  52.425  1.00  0.00     0.035 C 
ENDBRANCH   7  11
BRANCH  10  22
HETATM   22  O2  UNL     1      26.580   0.960  51.752  1.00  0.00    -0.353 OA
HETATM   23  C18 UNL     1      26.839   2.328  51.579  1.00  0.00     0.210 C 
ENDBRANCH  10  22
BRANCH   1  24
HETATM   24  O1  UNL     1      27.239  -0.582  53.871  1.00  0.00    -0.353 OA
HETATM   25  C1  UNL     1      28.023   0.138  54.782  1.00  0.00     0.210 C 
ENDBRANCH   1  24
TORSDOF 3
ENDMDL
MODEL 5
REMARK VINA RESULT:      -6.8      2.442      3.873
REMARK  3 active torsions:
REMARK  status: ('A' for Active; 'I' for Inactive)
REMARK    1  A    between atoms: O1_2  and  C2_3 
REMARK    2  A    between atoms: C6_9  and  N3_10 
REMARK    3  A    between atoms: C17_22  and  O2_23 
ROOT
HETATM    1  C2  UNL     1      23.265  -0.173  53.619  1.00  0.00     0.103 A 
HETATM    2  C3  UNL     1      24.623  -0.041  53.316  1.00  0.00     0.072 A 
HETATM    3  C4  UNL     1      25.117   0.964  52.495  1.00  0.00     0.075 A 
HETATM    4  N1  UNL     1      26.390   1.135  52.169  1.00  0.00    -0.241 NA
HETATM    5  C5  UNL     1      26.707   2.174  51.342  1.00  0.00     0.236 A 
HETATM    6  N2  UNL     1      25.778   3.019  50.858  1.00  0.00    -0.223 NA
HETATM    7  C6  UNL     1      24.466   2.840  51.198  1.00  0.00     0.144 A 
HETATM    8  C15 UNL     1      24.149   1.804  52.020  1.00  0.00     0.042 A 
HETATM    9  C16 UNL     1      22.823   1.728  52.276  1.00  0.00     0.057 A 
HETATM   10  C17 UNL     1      22.342   0.730  53.090  1.00  0.00     0.102 A 
ENDROOT
BRANCH   7  11
HETATM   11  N3  UNL     1      23.723   3.911  50.547  1.00  0.00    -0.326 N 
HETATM   12  C7  UNL     1      23.896   5.269  51.053  1.00  0.00     0.140 C 
HETATM   13  C8  UNL     1      23.040   6.019  50.005  1.00  0.00     0.073 C 
HETATM   14  S1  UNL     1      21.729   5.045  49.668  1.00  0.00    -0.229 SA
HETATM   15  C9  UNL     1      20.937   4.230  50.875  1.00  0.00     0.067 C 
HETATM   16  C10 UNL     1      21.138   4.787  48.049  1.00  0.00     0.021 C 
HETATM   17  C14 UNL     1      22.832   3.829  49.362  1.00  0.00     0.050 C 
HETATM   18  H10 UNL     1      20.974   5.978  49.688  1.00  0.00     0.083 HD
HETATM   19  C11 UNL     1      21.243   3.701  47.084  1.00  0.00     0.005 C 
HETATM   20  C12 UNL     1      22.170   2.790  47.334  1.00  0.00     0.003 C 
HETATM   21  C13 UNL     1      23.015   2.852  48.504  1.00  0.00     0.035 C 
ENDBRANCH   7  11
BRANCH  10  22
HETATM   22  O2  UNL     1      21.016   0.554  53.422  1.00  0.00    -0.353 OA
HETATM   23  C18 UNL     1      20.033   0.163  52.499  1.00  0.00     0.210 C 
ENDBRANCH  10  22
BRANCH   1  24
HETATM   24  O1  UNL     1      22.813  -1.188  54.441  1.00  0.00    -0.353 OA
HETATM   25  C1  UNL     1      23.366  -1.482  55.695  1.00  0.00     0.210 C 
ENDBRANCH   1  24
TORSDOF 3
ENDMDL
MODEL 6
REMARK VINA RESULT:      -6.7      3.676      5.334
REMARK  3 active torsions:
REMARK  status: ('A' for Active; 'I' for Inactive)
REMARK    1  A    between atoms: O1_2  and  C2_3 
REMARK    2  A    between atoms: C6_9  and  N3_10 
REMARK    3  A    between atoms: C17_22  and  O2_23 
ROOT
HETATM    1  C2  UNL     1      19.180  -0.796  53.264  1.00  0.00     0.103 A 
HETATM    2  C3  UNL     1      20.339  -1.329  53.833  1.00  0.00     0.072 A 
HETATM    3  C4  UNL     1      21.589  -0.740  53.689  1.00  0.00     0.075 A 
HETATM    4  N1  UNL     1      22.721  -1.202  54.201  1.00  0.00    -0.241 NA
HETATM    5  C5  UNL     1      23.868  -0.502  53.958  1.00  0.00     0.236 A 
HETATM    6  N2  UNL     1      23.881   0.627  53.226  1.00  0.00    -0.223 NA
HETATM    7  C6  UNL     1      22.710   1.101  52.702  1.00  0.00     0.144 A 
HETATM    8  C15 UNL     1      21.568   0.404  52.942  1.00  0.00     0.042 A 
HETATM    9  C16 UNL     1      20.482   0.968  52.365  1.00  0.00     0.057 A 
HETATM   10  C17 UNL     1      19.249   0.379  52.513  1.00  0.00     0.102 A 
ENDROOT
BRANCH   7  11
HETATM   11  N3  UNL     1      23.045   2.331  51.995  1.00  0.00    -0.326 N 
HETATM   12  C7  UNL     1      23.826   3.337  52.707  1.00  0.00     0.140 C 
HETATM   13  C8  UNL     1      24.018   4.345  51.549  1.00  0.00     0.073 C 
HETATM   14  S1  UNL     1      22.594   4.355  50.680  1.00  0.00    -0.229 SA
HETATM   15  C9  UNL     1      21.124   4.325  51.446  1.00  0.00     0.067 C 
HETATM   16  C10 UNL     1      22.554   4.355  48.937  1.00  0.00     0.021 C 
HETATM   17  C14 UNL     1      22.751   2.695  50.586  1.00  0.00     0.050 C 
HETATM   18  H10 UNL     1      22.611   5.551  50.580  1.00  0.00     0.083 HD
HETATM   19  C11 UNL     1      22.293   3.344  47.922  1.00  0.00     0.005 C 
HETATM   20  C12 UNL     1      22.322   2.087  48.333  1.00  0.00     0.003 C 
HETATM   21  C13 UNL     1      22.576   1.732  49.711  1.00  0.00     0.035 C 
ENDBRANCH   7  11
BRANCH  10  22
HETATM   22  O2  UNL     1      18.076   0.860  51.974  1.00  0.00    -0.353 OA
HETATM   23  C18 UNL     1      17.885   1.073  50.600  1.00  0.00     0.210 C 
ENDBRANCH  10  22
BRANCH   1  24
HETATM   24  O1  UNL     1      17.955  -1.413  53.431  1.00  0.00    -0.353 OA
HETATM   25  C1  UNL     1      17.793  -2.795  53.600  1.00  0.00     0.210 C 
ENDBRANCH   1  24
TORSDOF 3
ENDMDL
MODEL 7
REMARK VINA RESULT:      -6.6      3.022      6.014
REMARK  3 active torsions:
REMARK  status: ('A' for Active; 'I' for Inactive)
REMARK    1  A    between atoms: O1_2  and  C2_3 
REMARK    2  A    between atoms: C6_9  and  N3_10 
REMARK    3  A    between atoms: C17_22  and  O2_23 
ROOT
HETATM    1  C2  UNL     1      27.279   5.186  48.791  1.00  0.00     0.103 A 
HETATM    2  C3  UNL     1      26.708   6.346  48.262  1.00  0.00     0.072 A 
HETATM    3  C4  UNL     1      25.352   6.630  48.359  1.00  0.00     0.075 A 
HETATM    4  N1  UNL     1      24.755   7.709  47.873  1.00  0.00    -0.241 NA
HETATM    5  C5  UNL     1      23.407   7.832  48.049  1.00  0.00     0.236 A 
HETATM    6  N2  UNL     1      22.677   6.903  48.694  1.00  0.00    -0.223 NA
HETATM    7  C6  UNL     1      23.297   5.792  49.195  1.00  0.00     0.144 A 
HETATM    8  C15 UNL     1      24.640   5.668  49.018  1.00  0.00     0.042 A 
HETATM    9  C16 UNL     1      25.134   4.527  49.551  1.00  0.00     0.057 A 
HETATM   10  C17 UNL     1      26.476   4.254  49.452  1.00  0.00     0.102 A 
ENDROOT
BRANCH   7  11
HETATM   11  N3  UNL     1      22.261   5.002  49.848  1.00  0.00    -0.326 N 
HETATM   12  C7  UNL     1      21.385   5.678  50.800  1.00  0.00     0.140 C 
HETATM   13  C8  UNL     1      20.425   4.504  51.107  1.00  0.00     0.073 C 
HETATM   14  S1  UNL     1      21.355   3.119  51.138  1.00  0.00    -0.229 SA
HETATM   15  C9  UNL     1      22.849   3.107  51.856  1.00  0.00     0.067 C 
HETATM   16  C10 UNL     1      20.847   1.627  50.394  1.00  0.00     0.021 C 
HETATM   17  C14 UNL     1      21.913   3.575  49.631  1.00  0.00     0.050 C 
HETATM   18  H10 UNL     1      20.790   2.708  52.114  1.00  0.00     0.083 HD
HETATM   19  C11 UNL     1      21.191   0.932  49.160  1.00  0.00     0.005 C 
HETATM   20  C12 UNL     1      21.840   1.645  48.254  1.00  0.00     0.003 C 
HETATM   21  C13 UNL     1      22.208   3.025  48.477  1.00  0.00     0.035 C 
ENDBRANCH   7  11
BRANCH  10  22
HETATM   22  O2  UNL     1      27.091   3.127  49.954  1.00  0.00    -0.353 OA
HETATM   23  C18 UNL     1      26.640   2.441  51.092  1.00  0.00     0.210 C 
ENDBRANCH  10  22
BRANCH   1  24
HETATM   24  O1  UNL     1      28.633   4.940  48.675  1.00  0.00    -0.353 OA
HETATM   25  C1  UNL     1      29.550   5.856  48.139  1.00  0.00     0.210 C 
ENDBRANCH   1  24
TORSDOF 3
ENDMDL
MODEL 8
REMARK VINA RESULT:      -6.3      7.459      9.509
REMARK  3 active torsions:
REMARK  status: ('A' for Active; 'I' for Inactive)
REMARK    1  A    between atoms: O1_2  and  C2_3 
REMARK    2  A    between atoms: C6_9  and  N3_10 
REMARK    3  A    between atoms: C17_22  and  O2_23 
ROOT
HETATM    1  C2  UNL     1      33.618   5.148  48.187  1.00  0.00     0.103 A 
HETATM    2  C3  UNL     1      32.304   4.676  48.131  1.00  0.00     0.072 A 
HETATM    3  C4  UNL     1      31.201   5.520  48.132  1.00  0.00     0.075 A 
HETATM    4  N1  UNL     1      29.935   5.130  48.086  1.00  0.00    -0.241 NA
HETATM    5  C5  UNL     1      28.966   6.092  48.102  1.00  0.00     0.236 A 
HETATM    6  N2  UNL     1      29.256   7.405  48.161  1.00  0.00    -0.223 NA
HETATM    7  C6  UNL     1      30.563   7.802  48.207  1.00  0.00     0.144 A 
HETATM    8  C15 UNL     1      31.529   6.845  48.193  1.00  0.00     0.042 A 
HETATM    9  C16 UNL     1      32.778   7.362  48.250  1.00  0.00     0.057 A 
HETATM   10  C17 UNL     1      33.864   6.521  48.247  1.00  0.00     0.102 A 
ENDROOT
BRANCH   7  11
HETATM   11  N3  UNL     1      30.549   9.259  48.239  1.00  0.00    -0.326 N 
HETATM   12  C7  UNL     1      30.550   9.914  49.543  1.00  0.00     0.140 C 
HETATM   13  C8  UNL     1      30.655  11.383  49.066  1.00  0.00     0.073 C 
HETATM   14  S1  UNL     1      29.729  11.507  47.685  1.00  0.00    -0.229 SA
HETATM   15  C9  UNL     1      28.252  10.760  47.575  1.00  0.00     0.067 C 
HETATM   16  C10 UNL     1      30.257  12.379  46.272  1.00  0.00     0.021 C 
HETATM   17  C14 UNL     1      30.600  10.208  47.098  1.00  0.00     0.050 C 
HETATM   18  H10 UNL     1      29.265  12.557  48.036  1.00  0.00     0.083 HD
HETATM   19  C11 UNL     1      30.796  11.991  44.974  1.00  0.00     0.005 C 
HETATM   20  C12 UNL     1      31.224  10.744  44.873  1.00  0.00     0.003 C 
HETATM   21  C13 UNL     1      31.145   9.810  45.973  1.00  0.00     0.035 C 
ENDBRANCH   7  11
BRANCH  10  22
HETATM   22  O2  UNL     1      35.178   6.930  48.301  1.00  0.00    -0.353 OA
HETATM   23  C18 UNL     1      35.578   8.270  48.177  1.00  0.00     0.210 C 
ENDBRANCH  10  22
BRANCH   1  24
HETATM   24  O1  UNL     1      34.690   4.276  48.183  1.00  0.00    -0.353 OA
HETATM   25  C1  UNL     1      34.929   3.337  47.170  1.00  0.00     0.210 C 
ENDBRANCH   1  24
TORSDOF 3
ENDMDL
MODEL 9
REMARK VINA RESULT:      -6.3      5.150      6.740
REMARK  3 active torsions:
REMARK  status: ('A' for Active; 'I' for Inactive)
REMARK    1  A    between atoms: O1_2  and  C2_3 
REMARK    2  A    between atoms: C6_9  and  N3_10 
REMARK    3  A    between atoms: C17_22  and  O2_23 
ROOT
HETATM    1  C2  UNL     1      17.497  -1.692  52.770  1.00  0.00     0.103 A 
HETATM    2  C3  UNL     1      18.609  -1.844  53.601  1.00  0.00     0.072 A 
HETATM    3  C4  UNL     1      19.688  -0.969  53.583  1.00  0.00     0.075 A 
HETATM    4  N1  UNL     1      20.770  -1.065  54.343  1.00  0.00    -0.241 NA
HETATM    5  C5  UNL     1      21.745  -0.122  54.195  1.00  0.00     0.236 A 
HETATM    6  N2  UNL     1      21.640   0.890  53.314  1.00  0.00    -0.223 NA
HETATM    7  C6  UNL     1      20.521   0.987  52.533  1.00  0.00     0.144 A 
HETATM    8  C15 UNL     1      19.550   0.046  52.679  1.00  0.00     0.042 A 
HETATM    9  C16 UNL     1      18.501   0.246  51.848  1.00  0.00     0.057 A 
HETATM   10  C17 UNL     1      17.438  -0.624  51.873  1.00  0.00     0.102 A 
ENDROOT
BRANCH   7  11
HETATM   11  N3  UNL     1      20.693   2.181  51.715  1.00  0.00    -0.326 N 
HETATM   12  C7  UNL     1      20.639   3.479  52.380  1.00  0.00     0.140 C 
HETATM   13  C8  UNL     1      20.985   4.377  51.168  1.00  0.00     0.073 C 
HETATM   14  S1  UNL     1      20.236   3.700  49.840  1.00  0.00    -0.229 SA
HETATM   15  C9  UNL     1      18.696   3.095  49.942  1.00  0.00     0.067 C 
HETATM   16  C10 UNL     1      21.022   3.547  48.293  1.00  0.00     0.021 C 
HETATM   17  C14 UNL     1      20.989   2.271  50.263  1.00  0.00     0.050 C 
HETATM   18  H10 UNL     1      19.877   4.774  49.440  1.00  0.00     0.083 HD
HETATM   19  C11 UNL     1      21.642   2.446  47.566  1.00  0.00     0.005 C 
HETATM   20  C12 UNL     1      21.913   1.363  48.275  1.00  0.00     0.003 C 
HETATM   21  C13 UNL     1      21.596   1.262  49.681  1.00  0.00     0.035 C 
ENDBRANCH   7  11
BRANCH  10  22
HETATM   22  O2  UNL     1      16.318  -0.522  51.077  1.00  0.00    -0.353 OA
HETATM   23  C18 UNL     1      16.370  -0.301  49.692  1.00  0.00     0.210 C 
ENDBRANCH  10  22
BRANCH   1  24
HETATM   24  O1  UNL     1      16.443  -2.584  52.818  1.00  0.00    -0.353 OA
HETATM   25  C1  UNL     1      16.543  -3.883  53.334  1.00  0.00     0.210 C 
ENDBRANCH   1  24
TORSDOF 3
ENDMDL
