MODEL 1
REMARK VINA RESULT:      -8.6      0.000      0.000
REMARK  4 active torsions:
REMARK  status: ('A' for Active; 'I' for Inactive)
REMARK    1  A    between atoms: C7_7  and  N1_8 
REMARK    2  A    between atoms: N1_8  and  C8_9 
REMARK    3  A    between atoms: C12_15  and  O1_16 
REMARK    4  A    between atoms: O1_16  and  C13_17 
ROOT
HETATM    1  C1  UNL     1      16.202   4.244  51.926  1.00  0.00     0.018 C 
HETATM    2  C2  UNL     1      17.093   3.454  51.684  1.00  0.00    -0.078 C 
HETATM    3  C3  UNL     1      18.146   2.530  51.379  1.00  0.00     0.019 A 
HETATM    4  C4  UNL     1      17.945   1.479  50.549  1.00  0.00     0.021 A 
HETATM    5  C5  UNL     1      18.997   0.632  50.298  1.00  0.00     0.004 A 
HETATM    6  C6  UNL     1      20.242   0.850  50.882  1.00  0.00     0.029 A 
HETATM    7  C7  UNL     1      20.484   1.912  51.733  1.00  0.00     0.035 A 
HETATM    8  C21 UNL     1      19.366   2.732  51.943  1.00  0.00     0.050 A 
ENDROOT
BRANCH   7   9
HETATM    9  N1  UNL     1      21.800   2.081  52.265  1.00  0.00    -0.340 N 
HETATM   10  H5  UNL     1      22.011   3.022  51.896  1.00  0.00     0.167 HD
BRANCH   9  11
HETATM   11  C8  UNL     1      22.370   1.051  53.051  1.00  0.00     0.144 A 
HETATM   12  N2  UNL     1      21.557   0.416  53.901  1.00  0.00    -0.223 NA
HETATM   13  C9  UNL     1      21.913  -0.581  54.715  1.00  0.00     0.236 A 
HETATM   14  N3  UNL     1      23.192  -0.969  54.668  1.00  0.00    -0.241 NA
HETATM   15  C10 UNL     1      24.063  -0.384  53.845  1.00  0.00     0.077 A 
HETATM   16  C11 UNL     1      25.370  -0.788  53.804  1.00  0.00     0.072 A 
HETATM   17  C18 UNL     1      23.680   0.641  53.014  1.00  0.00     0.075 A 
HETATM   18  C12 UNL     1      26.323  -0.230  52.980  1.00  0.00     0.107 A 
HETATM   19  C16 UNL     1      25.854   0.811  52.162  1.00  0.00     0.136 A 
HETATM   20  C17 UNL     1      24.538   1.261  52.164  1.00  0.00     0.121 A 
HETATM   21  O3  UNL     1      26.725   1.456  51.284  1.00  0.00    -0.344 OA
HETATM   22  O2  UNL     1      24.155   2.288  51.330  1.00  0.00    -0.345 OA
HETATM   23  C19 UNL     1      25.067   3.091  50.617  1.00  0.00     0.202 C 
HETATM   24  C20 UNL     1      26.493   2.828  51.000  1.00  0.00     0.202 C 
BRANCH  18  25
HETATM   25  O1  UNL     1      27.638  -0.579  52.884  1.00  0.00    -0.344 OA
BRANCH  25  26
HETATM   26  C13 UNL     1      28.591  -0.423  53.896  1.00  0.00     0.121 C 
HETATM   27  C14 UNL     1      28.969   1.059  54.011  1.00  0.00     0.040 C 
HETATM   28  C15 UNL     1      29.880  -1.171  53.528  1.00  0.00     0.040 C 
ENDBRANCH  25  26
ENDBRANCH  18  25
ENDBRANCH   9  11
ENDBRANCH   7   9
TORSDOF 4
ENDMDL
MODEL 2
REMARK VINA RESULT:      -8.6      2.456      7.922
REMARK  4 active torsions:
REMARK  status: ('A' for Active; 'I' for Inactive)
REMARK    1  A    between atoms: C7_7  and  N1_8 
REMARK    2  A    between atoms: N1_8  and  C8_9 
REMARK    3  A    between atoms: C12_15  and  O1_16 
REMARK    4  A    between atoms: O1_16  and  C13_17 
ROOT
HETATM    1  C1  UNL     1      29.711  -1.983  53.388  1.00  0.00     0.018 C 
HETATM    2  C2  UNL     1      28.881  -1.095  53.379  1.00  0.00    -0.078 C 
HETATM    3  C3  UNL     1      27.913  -0.039  53.353  1.00  0.00     0.019 A 
HETATM    4  C4  UNL     1      28.210   1.203  53.805  1.00  0.00     0.021 A 
HETATM    5  C5  UNL     1      27.235   2.171  53.750  1.00  0.00     0.004 A 
HETATM    6  C6  UNL     1      25.972   1.881  53.241  1.00  0.00     0.029 A 
HETATM    7  C7  UNL     1      25.634   0.627  52.770  1.00  0.00     0.035 A 
HETATM    8  C21 UNL     1      26.676  -0.308  52.858  1.00  0.00     0.050 A 
ENDROOT
BRANCH   7   9
HETATM    9  N1  UNL     1      24.325   0.423  52.234  1.00  0.00    -0.340 N 
HETATM   10  H5  UNL     1      24.490   0.736  51.264  1.00  0.00     0.167 HD
BRANCH   9  11
HETATM   11  C8  UNL     1      23.303  -0.089  53.069  1.00  0.00     0.144 A 
HETATM   12  N2  UNL     1      23.689  -0.713  54.187  1.00  0.00    -0.223 NA
HETATM   13  C9  UNL     1      22.871  -1.251  55.094  1.00  0.00     0.236 A 
HETATM   14  N3  UNL     1      21.559  -1.155  54.856  1.00  0.00    -0.241 NA
HETATM   15  C10 UNL     1      21.097  -0.547  53.762  1.00  0.00     0.077 A 
HETATM   16  C11 UNL     1      19.752  -0.453  53.528  1.00  0.00     0.072 A 
HETATM   17  C18 UNL     1      21.953   0.003  52.838  1.00  0.00     0.075 A 
HETATM   18  C12 UNL     1      19.205   0.160  52.421  1.00  0.00     0.107 A 
HETATM   19  C16 UNL     1      20.144   0.697  51.524  1.00  0.00     0.136 A 
HETATM   20  C17 UNL     1      21.520   0.628  51.714  1.00  0.00     0.121 A 
HETATM   21  O3  UNL     1      19.712   1.342  50.364  1.00  0.00    -0.344 OA
HETATM   22  O2  UNL     1      22.376   1.180  50.787  1.00  0.00    -0.345 OA
HETATM   23  C19 UNL     1      21.963   1.624  49.515  1.00  0.00     0.202 C 
HETATM   24  C20 UNL     1      20.538   1.267  49.212  1.00  0.00     0.202 C 
BRANCH  18  25
HETATM   25  O1  UNL     1      17.882   0.292  52.121  1.00  0.00    -0.344 OA
BRANCH  25  26
HETATM   26  C13 UNL     1      17.060  -0.725  51.625  1.00  0.00     0.121 C 
HETATM   27  C14 UNL     1      16.650  -0.390  50.186  1.00  0.00     0.040 C 
HETATM   28  C15 UNL     1      15.760  -0.798  52.440  1.00  0.00     0.040 C 
ENDBRANCH  25  26
ENDBRANCH  18  25
ENDBRANCH   9  11
ENDBRANCH   7   9
TORSDOF 4
ENDMDL
MODEL 3
REMARK VINA RESULT:      -8.4      3.321      6.860
REMARK  4 active torsions:
REMARK  status: ('A' for Active; 'I' for Inactive)
REMARK    1  A    between atoms: C7_7  and  N1_8 
REMARK    2  A    between atoms: N1_8  and  C8_9 
REMARK    3  A    between atoms: C12_15  and  O1_16 
REMARK    4  A    between atoms: O1_16  and  C13_17 
ROOT
HETATM    1  C1  UNL     1      24.863   8.946  49.911  1.00  0.00     0.018 C 
HETATM    2  C2  UNL     1      25.569   8.014  49.579  1.00  0.00    -0.078 C 
HETATM    3  C3  UNL     1      26.416   6.919  49.205  1.00  0.00     0.019 A 
HETATM    4  C4  UNL     1      27.624   7.126  48.629  1.00  0.00     0.021 A 
HETATM    5  C5  UNL     1      28.387   6.032  48.296  1.00  0.00     0.004 A 
HETATM    6  C6  UNL     1      27.927   4.741  48.546  1.00  0.00     0.029 A 
HETATM    7  C7  UNL     1      26.701   4.493  49.132  1.00  0.00     0.035 A 
HETATM    8  C21 UNL     1      25.980   5.655  49.443  1.00  0.00     0.050 A 
ENDROOT
BRANCH   7   9
HETATM    9  N1  UNL     1      26.320   3.138  49.383  1.00  0.00    -0.340 N 
HETATM   10  H5  UNL     1      26.218   2.809  48.410  1.00  0.00     0.167 HD
BRANCH   9  11
HETATM   11  C8  UNL     1      26.209   2.684  50.718  1.00  0.00     0.144 A 
HETATM   12  N2  UNL     1      27.330   2.661  51.447  1.00  0.00    -0.223 NA
HETATM   13  C9  UNL     1      27.417   2.271  52.721  1.00  0.00     0.236 A 
HETATM   14  N3  UNL     1      26.285   1.870  53.308  1.00  0.00    -0.241 NA
HETATM   15  C10 UNL     1      25.126   1.865  52.646  1.00  0.00     0.077 A 
HETATM   16  C11 UNL     1      23.972   1.454  53.256  1.00  0.00     0.072 A 
HETATM   17  C18 UNL     1      25.054   2.270  51.335  1.00  0.00     0.075 A 
HETATM   18  C12 UNL     1      22.743   1.422  52.634  1.00  0.00     0.107 A 
HETATM   19  C16 UNL     1      22.750   1.851  51.296  1.00  0.00     0.136 A 
HETATM   20  C17 UNL     1      23.894   2.278  50.629  1.00  0.00     0.121 A 
HETATM   21  O3  UNL     1      21.565   1.863  50.560  1.00  0.00    -0.344 OA
HETATM   22  O2  UNL     1      23.819   2.684  49.316  1.00  0.00    -0.345 OA
HETATM   23  C19 UNL     1      22.685   2.484  48.504  1.00  0.00     0.202 C 
HETATM   24  C20 UNL     1      21.646   1.627  49.162  1.00  0.00     0.202 C 
BRANCH  18  25
HETATM   25  O1  UNL     1      21.555   1.027  53.175  1.00  0.00    -0.344 OA
BRANCH  25  26
HETATM   26  C13 UNL     1      21.168  -0.299  53.394  1.00  0.00     0.121 C 
HETATM   27  C14 UNL     1      19.644  -0.410  53.265  1.00  0.00     0.040 C 
HETATM   28  C15 UNL     1      21.512  -0.720  54.830  1.00  0.00     0.040 C 
ENDBRANCH  25  26
ENDBRANCH  18  25
ENDBRANCH   9  11
ENDBRANCH   7   9
TORSDOF 4
ENDMDL
MODEL 4
REMARK VINA RESULT:      -8.2      2.085      7.907
REMARK  4 active torsions:
REMARK  status: ('A' for Active; 'I' for Inactive)
REMARK    1  A    between atoms: C7_7  and  N1_8 
REMARK    2  A    between atoms: N1_8  and  C8_9 
REMARK    3  A    between atoms: C12_15  and  O1_16 
REMARK    4  A    between atoms: O1_16  and  C13_17 
ROOT
HETATM    1  C1  UNL     1      29.025  -2.756  53.118  1.00  0.00     0.018 C 
HETATM    2  C2  UNL     1      28.736  -1.580  53.229  1.00  0.00    -0.078 C 
HETATM    3  C3  UNL     1      28.411  -0.189  53.345  1.00  0.00     0.019 A 
HETATM    4  C4  UNL     1      29.270   0.693  53.911  1.00  0.00     0.021 A 
HETATM    5  C5  UNL     1      28.896   2.013  53.991  1.00  0.00     0.004 A 
HETATM    6  C6  UNL     1      27.663   2.435  53.499  1.00  0.00     0.029 A 
HETATM    7  C7  UNL     1      26.763   1.564  52.915  1.00  0.00     0.035 A 
HETATM    8  C21 UNL     1      27.211   0.236  52.870  1.00  0.00     0.050 A 
ENDROOT
BRANCH   7   9
HETATM    9  N1  UNL     1      25.533   2.085  52.407  1.00  0.00    -0.340 N 
HETATM   10  H5  UNL     1      25.898   2.892  51.876  1.00  0.00     0.167 HD
BRANCH   9  11
HETATM   11  C8  UNL     1      24.318   1.434  52.725  1.00  0.00     0.144 A 
HETATM   12  N2  UNL     1      24.404   0.188  53.204  1.00  0.00    -0.223 NA
HETATM   13  C9  UNL     1      23.370  -0.576  53.564  1.00  0.00     0.236 A 
HETATM   14  N3  UNL     1      22.151  -0.045  53.428  1.00  0.00    -0.241 NA
HETATM   15  C10 UNL     1      21.984   1.192  52.957  1.00  0.00     0.077 A 
HETATM   16  C11 UNL     1      20.732   1.728  52.823  1.00  0.00     0.072 A 
HETATM   17  C18 UNL     1      23.059   1.967  52.592  1.00  0.00     0.075 A 
HETATM   18  C12 UNL     1      20.485   2.997  52.345  1.00  0.00     0.107 A 
HETATM   19  C16 UNL     1      21.634   3.725  51.993  1.00  0.00     0.136 A 
HETATM   20  C17 UNL     1      22.928   3.229  52.109  1.00  0.00     0.121 A 
HETATM   21  O3  UNL     1      21.513   5.023  51.495  1.00  0.00    -0.344 OA
HETATM   22  O2  UNL     1      24.004   4.006  51.743  1.00  0.00    -0.345 OA
HETATM   23  C19 UNL     1      23.883   5.215  51.031  1.00  0.00     0.202 C 
HETATM   24  C20 UNL     1      22.482   5.472  50.559  1.00  0.00     0.202 C 
BRANCH  18  25
HETATM   25  O1  UNL     1      19.271   3.597  52.184  1.00  0.00    -0.344 OA
BRANCH  25  26
HETATM   26  C13 UNL     1      18.381   3.350  51.134  1.00  0.00     0.121 C 
HETATM   27  C14 UNL     1      18.321   4.581  50.221  1.00  0.00     0.040 C 
HETATM   28  C15 UNL     1      16.961   3.148  51.681  1.00  0.00     0.040 C 
ENDBRANCH  25  26
ENDBRANCH  18  25
ENDBRANCH   9  11
ENDBRANCH   7   9
TORSDOF 4
ENDMDL
MODEL 5
REMARK VINA RESULT:      -7.7      3.553      6.978
REMARK  4 active torsions:
REMARK  status: ('A' for Active; 'I' for Inactive)
REMARK    1  A    between atoms: C7_7  and  N1_8 
REMARK    2  A    between atoms: N1_8  and  C8_9 
REMARK    3  A    between atoms: C12_15  and  O1_16 
REMARK    4  A    between atoms: O1_16  and  C13_17 
ROOT
HETATM    1  C1  UNL     1      21.492  -1.692  54.572  1.00  0.00     0.018 C 
HETATM    2  C2  UNL     1      22.398  -1.018  54.122  1.00  0.00    -0.078 C 
HETATM    3  C3  UNL     1      23.476  -0.242  53.583  1.00  0.00     0.019 A 
HETATM    4  C4  UNL     1      24.732  -0.335  54.081  1.00  0.00     0.021 A 
HETATM    5  C5  UNL     1      25.719   0.437  53.518  1.00  0.00     0.004 A 
HETATM    6  C6  UNL     1      25.434   1.295  52.458  1.00  0.00     0.029 A 
HETATM    7  C7  UNL     1      24.165   1.416  51.925  1.00  0.00     0.035 A 
HETATM    8  C21 UNL     1      23.211   0.600  52.550  1.00  0.00     0.050 A 
ENDROOT
BRANCH   7   9
HETATM    9  N1  UNL     1      23.966   2.297  50.817  1.00  0.00    -0.340 N 
HETATM   10  H5  UNL     1      24.432   1.746  50.078  1.00  0.00     0.167 HD
BRANCH   9  11
HETATM   11  C8  UNL     1      23.271   3.514  51.013  1.00  0.00     0.144 A 
HETATM   12  N2  UNL     1      22.039   3.434  51.526  1.00  0.00    -0.223 NA
HETATM   13  C9  UNL     1      21.240   4.472  51.785  1.00  0.00     0.236 A 
HETATM   14  N3  UNL     1      21.719   5.687  51.504  1.00  0.00    -0.241 NA
HETATM   15  C10 UNL     1      22.940   5.848  50.990  1.00  0.00     0.077 A 
HETATM   16  C11 UNL     1      23.423   7.097  50.707  1.00  0.00     0.072 A 
HETATM   17  C18 UNL     1      23.751   4.769  50.730  1.00  0.00     0.075 A 
HETATM   18  C12 UNL     1      24.672   7.337  50.176  1.00  0.00     0.107 A 
HETATM   19  C16 UNL     1      25.440   6.185  49.938  1.00  0.00     0.136 A 
HETATM   20  C17 UNL     1      24.998   4.893  50.207  1.00  0.00     0.121 A 
HETATM   21  O3  UNL     1      26.722   6.299  49.401  1.00  0.00    -0.344 OA
HETATM   22  O2  UNL     1      25.811   3.814  49.946  1.00  0.00    -0.345 OA
HETATM   23  C19 UNL     1      27.002   3.901  49.199  1.00  0.00     0.202 C 
HETATM   24  C20 UNL     1      27.193   5.249  48.569  1.00  0.00     0.202 C 
BRANCH  18  25
HETATM   25  O1  UNL     1      25.219   8.547  49.869  1.00  0.00    -0.344 OA
BRANCH  25  26
HETATM   26  C13 UNL     1      24.816   9.371  48.812  1.00  0.00     0.121 C 
HETATM   27  C14 UNL     1      24.830   8.565  47.508  1.00  0.00     0.040 C 
HETATM   28  C15 UNL     1      25.821  10.517  48.623  1.00  0.00     0.040 C 
ENDBRANCH  25  26
ENDBRANCH  18  25
ENDBRANCH   9  11
ENDBRANCH   7   9
TORSDOF 4
ENDMDL
MODEL 6
REMARK VINA RESULT:      -7.5      1.673      2.108
REMARK  4 active torsions:
REMARK  status: ('A' for Active; 'I' for Inactive)
REMARK    1  A    between atoms: C7_7  and  N1_8 
REMARK    2  A    between atoms: N1_8  and  C8_9 
REMARK    3  A    between atoms: C12_15  and  O1_16 
REMARK    4  A    between atoms: O1_16  and  C13_17 
ROOT
HETATM    1  C1  UNL     1      16.026   0.219  48.617  1.00  0.00     0.018 C 
HETATM    2  C2  UNL     1      16.648   0.035  49.645  1.00  0.00    -0.078 C 
HETATM    3  C3  UNL     1      17.385  -0.203  50.851  1.00  0.00     0.019 A 
HETATM    4  C4  UNL     1      16.884  -0.974  51.846  1.00  0.00     0.021 A 
HETATM    5  C5  UNL     1      17.643  -1.162  52.976  1.00  0.00     0.004 A 
HETATM    6  C6  UNL     1      18.900  -0.574  53.095  1.00  0.00     0.029 A 
HETATM    7  C7  UNL     1      19.443   0.218  52.101  1.00  0.00     0.035 A 
HETATM    8  C21 UNL     1      18.613   0.365  50.981  1.00  0.00     0.050 A 
ENDROOT
BRANCH   7   9
HETATM    9  N1  UNL     1      20.754   0.757  52.290  1.00  0.00    -0.340 N 
HETATM   10  H5  UNL     1      20.677   1.598  51.696  1.00  0.00     0.167 HD
BRANCH   9  11
HETATM   11  C8  UNL     1      21.668   0.081  53.132  1.00  0.00     0.144 A 
HETATM   12  N2  UNL     1      21.152  -0.716  54.074  1.00  0.00    -0.223 NA
HETATM   13  C9  UNL     1      21.856  -1.436  54.951  1.00  0.00     0.236 A 
HETATM   14  N3  UNL     1      23.187  -1.344  54.875  1.00  0.00    -0.241 NA
HETATM   15  C10 UNL     1      23.777  -0.570  53.962  1.00  0.00     0.077 A 
HETATM   16  C11 UNL     1      25.141  -0.483  53.891  1.00  0.00     0.072 A 
HETATM   17  C18 UNL     1      23.037   0.164  53.066  1.00  0.00     0.075 A 
HETATM   18  C12 UNL     1      25.816   0.295  52.976  1.00  0.00     0.107 A 
HETATM   19  C16 UNL     1      24.991   1.014  52.096  1.00  0.00     0.136 A 
HETATM   20  C17 UNL     1      23.601   0.963  52.124  1.00  0.00     0.121 A 
HETATM   21  O3  UNL     1      25.558   1.839  51.123  1.00  0.00    -0.344 OA
HETATM   22  O2  UNL     1      22.862   1.698  51.225  1.00  0.00    -0.345 OA
HETATM   23  C19 UNL     1      23.412   2.700  50.401  1.00  0.00     0.202 C 
HETATM   24  C20 UNL     1      24.843   3.002  50.735  1.00  0.00     0.202 C 
BRANCH  18  25
HETATM   25  O1  UNL     1      27.167   0.431  52.846  1.00  0.00    -0.344 OA
BRANCH  25  26
HETATM   26  C13 UNL     1      28.024   0.953  53.820  1.00  0.00     0.121 C 
HETATM   27  C14 UNL     1      28.346   2.414  53.481  1.00  0.00     0.040 C 
HETATM   28  C15 UNL     1      29.362   0.200  53.805  1.00  0.00     0.040 C 
ENDBRANCH  25  26
ENDBRANCH  18  25
ENDBRANCH   9  11
ENDBRANCH   7   9
TORSDOF 4
ENDMDL
MODEL 7
REMARK VINA RESULT:      -7.5      2.675      3.910
REMARK  4 active torsions:
REMARK  status: ('A' for Active; 'I' for Inactive)
REMARK    1  A    between atoms: C7_7  and  N1_8 
REMARK    2  A    between atoms: N1_8  and  C8_9 
REMARK    3  A    between atoms: C12_15  and  O1_16 
REMARK    4  A    between atoms: O1_16  and  C13_17 
ROOT
HETATM    1  C1  UNL     1      18.416   6.581  47.831  1.00  0.00     0.018 C 
HETATM    2  C2  UNL     1      19.110   5.623  48.109  1.00  0.00    -0.078 C 
HETATM    3  C3  UNL     1      19.941   4.496  48.419  1.00  0.00     0.019 A 
HETATM    4  C4  UNL     1      19.937   3.382  47.649  1.00  0.00     0.021 A 
HETATM    5  C5  UNL     1      20.759   2.338  48.003  1.00  0.00     0.004 A 
HETATM    6  C6  UNL     1      21.577   2.425  49.126  1.00  0.00     0.029 A 
HETATM    7  C7  UNL     1      21.607   3.546  49.934  1.00  0.00     0.035 A 
HETATM    8  C21 UNL     1      20.744   4.568  49.513  1.00  0.00     0.050 A 
ENDROOT
BRANCH   7   9
HETATM    9  N1  UNL     1      22.500   3.565  51.051  1.00  0.00    -0.340 N 
HETATM   10  H5  UNL     1      21.812   3.670  51.814  1.00  0.00     0.167 HD
BRANCH   9  11
HETATM   11  C8  UNL     1      23.892   3.445  50.829  1.00  0.00     0.144 A 
HETATM   12  N2  UNL     1      24.458   4.344  50.018  1.00  0.00    -0.223 NA
HETATM   13  C9  UNL     1      25.753   4.392  49.698  1.00  0.00     0.236 A 
HETATM   14  N3  UNL     1      26.542   3.458  50.238  1.00  0.00    -0.241 NA
HETATM   15  C10 UNL     1      26.052   2.527  51.058  1.00  0.00     0.077 A 
HETATM   16  C11 UNL     1      26.868   1.576  51.607  1.00  0.00     0.072 A 
HETATM   17  C18 UNL     1      24.715   2.492  51.377  1.00  0.00     0.075 A 
HETATM   18  C12 UNL     1      26.430   0.585  52.460  1.00  0.00     0.107 A 
HETATM   19  C16 UNL     1      25.053   0.617  52.737  1.00  0.00     0.136 A 
HETATM   20  C17 UNL     1      24.180   1.560  52.207  1.00  0.00     0.121 A 
HETATM   21  O3  UNL     1      24.491  -0.335  53.588  1.00  0.00    -0.344 OA
HETATM   22  O2  UNL     1      22.842   1.524  52.528  1.00  0.00    -0.345 OA
HETATM   23  C19 UNL     1      22.231   0.443  53.193  1.00  0.00     0.202 C 
HETATM   24  C20 UNL     1      23.148  -0.733  53.350  1.00  0.00     0.202 C 
BRANCH  18  25
HETATM   25  O1  UNL     1      27.180  -0.392  53.043  1.00  0.00    -0.344 OA
BRANCH  25  26
HETATM   26  C13 UNL     1      28.546  -0.299  53.330  1.00  0.00     0.121 C 
HETATM   27  C14 UNL     1      29.154  -1.707  53.364  1.00  0.00     0.040 C 
HETATM   28  C15 UNL     1      28.753   0.294  54.732  1.00  0.00     0.040 C 
ENDBRANCH  25  26
ENDBRANCH  18  25
ENDBRANCH   9  11
ENDBRANCH   7   9
TORSDOF 4
ENDMDL
MODEL 8
REMARK VINA RESULT:      -7.3      1.891      3.357
REMARK  4 active torsions:
REMARK  status: ('A' for Active; 'I' for Inactive)
REMARK    1  A    between atoms: C7_7  and  N1_8 
REMARK    2  A    between atoms: N1_8  and  C8_9 
REMARK    3  A    between atoms: C12_15  and  O1_16 
REMARK    4  A    between atoms: O1_16  and  C13_17 
ROOT
HETATM    1  C1  UNL     1      18.220   3.340  47.424  1.00  0.00     0.018 C 
HETATM    2  C2  UNL     1      18.614   2.778  48.428  1.00  0.00    -0.078 C 
HETATM    3  C3  UNL     1      19.087   2.099  49.599  1.00  0.00     0.019 A 
HETATM    4  C4  UNL     1      18.525   0.941  50.019  1.00  0.00     0.021 A 
HETATM    5  C5  UNL     1      19.027   0.342  51.149  1.00  0.00     0.004 A 
HETATM    6  C6  UNL     1      20.090   0.912  51.846  1.00  0.00     0.029 A 
HETATM    7  C7  UNL     1      20.687   2.092  51.446  1.00  0.00     0.035 A 
HETATM    8  C21 UNL     1      20.123   2.646  50.287  1.00  0.00     0.050 A 
ENDROOT
BRANCH   7   9
HETATM    9  N1  UNL     1      21.794   2.592  52.199  1.00  0.00    -0.340 N 
HETATM   10  H5  UNL     1      21.307   2.827  53.079  1.00  0.00     0.167 HD
BRANCH   9  11
HETATM   11  C8  UNL     1      23.081   2.617  51.611  1.00  0.00     0.144 A 
HETATM   12  N2  UNL     1      23.281   3.498  50.625  1.00  0.00    -0.223 NA
HETATM   13  C9  UNL     1      24.425   3.669  49.959  1.00  0.00     0.236 A 
HETATM   14  N3  UNL     1      25.451   2.889  50.314  1.00  0.00    -0.241 NA
HETATM   15  C10 UNL     1      25.330   1.986  51.289  1.00  0.00     0.077 A 
HETATM   16  C11 UNL     1      26.386   1.194  51.647  1.00  0.00     0.072 A 
HETATM   17  C18 UNL     1      24.144   1.824  51.965  1.00  0.00     0.075 A 
HETATM   18  C12 UNL     1      26.333   0.243  52.643  1.00  0.00     0.107 A 
HETATM   19  C16 UNL     1      25.088   0.136  53.286  1.00  0.00     0.136 A 
HETATM   20  C17 UNL     1      23.983   0.917  52.962  1.00  0.00     0.121 A 
HETATM   21  O3  UNL     1      24.909  -0.792  54.312  1.00  0.00    -0.344 OA
HETATM   22  O2  UNL     1      22.796   0.753  53.641  1.00  0.00    -0.345 OA
HETATM   23  C19 UNL     1      22.540  -0.327  54.509  1.00  0.00     0.202 C 
HETATM   24  C20 UNL     1      23.621  -1.366  54.475  1.00  0.00     0.202 C 
BRANCH  18  25
HETATM   25  O1  UNL     1      27.339  -0.581  53.053  1.00  0.00    -0.344 OA
BRANCH  25  26
HETATM   26  C13 UNL     1      28.595  -0.160  53.501  1.00  0.00     0.121 C 
HETATM   27  C14 UNL     1      29.565  -1.348  53.481  1.00  0.00     0.040 C 
HETATM   28  C15 UNL     1      28.507   0.302  54.963  1.00  0.00     0.040 C 
ENDBRANCH  25  26
ENDBRANCH  18  25
ENDBRANCH   9  11
ENDBRANCH   7   9
TORSDOF 4
ENDMDL
MODEL 9
REMARK VINA RESULT:      -7.3      3.534      7.438
REMARK  4 active torsions:
REMARK  status: ('A' for Active; 'I' for Inactive)
REMARK    1  A    between atoms: C7_7  and  N1_8 
REMARK    2  A    between atoms: N1_8  and  C8_9 
REMARK    3  A    between atoms: C12_15  and  O1_16 
REMARK    4  A    between atoms: O1_16  and  C13_17 
ROOT
HETATM    1  C1  UNL     1      27.178  10.296  48.950  1.00  0.00     0.018 C 
HETATM    2  C2  UNL     1      26.874   9.126  49.076  1.00  0.00    -0.078 C 
HETATM    3  C3  UNL     1      26.537   7.741  49.232  1.00  0.00     0.019 A 
HETATM    4  C4  UNL     1      27.041   6.794  48.405  1.00  0.00     0.021 A 
HETATM    5  C5  UNL     1      26.677   5.484  48.610  1.00  0.00     0.004 A 
HETATM    6  C6  UNL     1      25.811   5.140  49.645  1.00  0.00     0.029 A 
HETATM    7  C7  UNL     1      25.279   6.079  50.508  1.00  0.00     0.035 A 
HETATM    8  C21 UNL     1      25.693   7.391  50.238  1.00  0.00     0.050 A 
ENDROOT
BRANCH   7   9
HETATM    9  N1  UNL     1      24.424   5.636  51.564  1.00  0.00    -0.340 N 
HETATM   10  H5  UNL     1      25.098   5.652  52.345  1.00  0.00     0.167 HD
BRANCH   9  11
HETATM   11  C8  UNL     1      23.068   5.343  51.283  1.00  0.00     0.144 A 
HETATM   12  N2  UNL     1      22.312   6.347  50.826  1.00  0.00    -0.223 NA
HETATM   13  C9  UNL     1      21.019   6.258  50.503  1.00  0.00     0.236 A 
HETATM   14  N3  UNL     1      20.441   5.062  50.654  1.00  0.00    -0.241 NA
HETATM   15  C10 UNL     1      21.130   4.012  51.105  1.00  0.00     0.077 A 
HETATM   16  C11 UNL     1      20.529   2.792  51.254  1.00  0.00     0.072 A 
HETATM   17  C18 UNL     1      22.460   4.121  51.432  1.00  0.00     0.075 A 
HETATM   18  C12 UNL     1      21.178   1.666  51.714  1.00  0.00     0.107 A 
HETATM   19  C16 UNL     1      22.534   1.857  52.027  1.00  0.00     0.136 A 
HETATM   20  C17 UNL     1      23.193   3.075  51.894  1.00  0.00     0.121 A 
HETATM   21  O3  UNL     1      23.298   0.791  52.503  1.00  0.00    -0.344 OA
HETATM   22  O2  UNL     1      24.526   3.182  52.222  1.00  0.00    -0.345 OA
HETATM   23  C19 UNL     1      25.238   2.182  52.913  1.00  0.00     0.202 C 
HETATM   24  C20 UNL     1      24.353   1.078  53.409  1.00  0.00     0.202 C 
BRANCH  18  25
HETATM   25  O1  UNL     1      20.648   0.422  51.888  1.00  0.00    -0.344 OA
BRANCH  25  26
HETATM   26  C13 UNL     1      19.756   0.059  52.901  1.00  0.00     0.121 C 
HETATM   27  C14 UNL     1      20.354  -1.097  53.714  1.00  0.00     0.040 C 
HETATM   28  C15 UNL     1      18.451  -0.472  52.291  1.00  0.00     0.040 C 
ENDBRANCH  25  26
ENDBRANCH  18  25
ENDBRANCH   9  11
ENDBRANCH   7   9
TORSDOF 4
ENDMDL
