MODEL 1
REMARK VINA RESULT:      -7.6      0.000      0.000
REMARK  4 active torsions:
REMARK  status: ('A' for Active; 'I' for Inactive)
REMARK    1  A    between atoms: C3_3  and  C4_4 
REMARK    2  A    between atoms: C7_7  and  C8_8 
REMARK       I    between atoms: C8_8  and  N1_10 
REMARK    3  A    between atoms: N1_10  and  C9_11 
REMARK    4  A    between atoms: C13_15  and  C14_16 
ROOT
HETATM    1  C8  UNL     1      24.235   0.924  52.682  1.00  0.00     0.272 C 
HETATM    2  O1  UNL     1      24.714   0.448  53.765  1.00  0.00    -0.266 OA
HETATM    3  N1  UNL     1      25.265   1.336  51.781  1.00  0.00    -0.322 N 
HETATM    4  H8  UNL     1      24.992   1.743  50.858  1.00  0.00     0.169 HD
ENDROOT
BRANCH   1   5
HETATM    5  C7  UNL     1      22.803   1.044  52.377  1.00  0.00     0.097 C 
HETATM    6  C6  UNL     1      21.843   0.132  52.469  1.00  0.00     0.043 C 
HETATM    7  C5  UNL     1      20.604   0.777  52.043  1.00  0.00    -0.038 C 
HETATM    8  C4  UNL     1      19.372   0.362  52.295  1.00  0.00     0.008 C 
HETATM    9  C17 UNL     1      20.976   1.992  51.269  1.00  0.00     0.158 C 
HETATM   10  N2  UNL     1      22.269   2.279  51.908  1.00  0.00    -0.381 N 
HETATM   11  H16 UNL     1      22.621   3.278  51.941  1.00  0.00     0.160 HD
BRANCH   8  12
HETATM   12  C3  UNL     1      19.167  -0.856  53.073  1.00  0.00    -0.004 C 
HETATM   13  C2  UNL     1      18.004  -1.490  53.031  1.00  0.00    -0.031 C 
HETATM   14  C1  UNL     1      17.702  -2.737  53.787  1.00  0.00     0.036 C 
ENDBRANCH   8  12
ENDBRANCH   1   5
BRANCH   3  15
HETATM   15  C9  UNL     1      26.540   1.073  52.404  1.00  0.00     0.035 A 
HETATM   16  C10 UNL     1      27.183   2.210  52.848  1.00  0.00     0.029 A 
HETATM   17  C11 UNL     1      28.423   2.090  53.468  1.00  0.00     0.003 A 
HETATM   18  C12 UNL     1      28.953   0.824  53.610  1.00  0.00     0.015 A 
HETATM   19  C13 UNL     1      28.307  -0.307  53.166  1.00  0.00     0.011 A 
HETATM   20  C16 UNL     1      27.076  -0.192  52.550  1.00  0.00     0.044 A 
BRANCH  19  21
HETATM   21  C14 UNL     1      28.859  -1.657  53.310  1.00  0.00     0.155 C 
HETATM   22  C15 UNL     1      30.227  -1.940  53.770  1.00  0.00     0.096 C 
HETATM   23  O2  UNL     1      28.176  -2.702  53.042  1.00  0.00    -0.293 OA
ENDBRANCH  19  21
ENDBRANCH   3  15
TORSDOF 4
ENDMDL
MODEL 2
REMARK VINA RESULT:      -7.6      1.959      2.576
REMARK  4 active torsions:
REMARK  status: ('A' for Active; 'I' for Inactive)
REMARK    1  A    between atoms: C3_3  and  C4_4 
REMARK    2  A    between atoms: C7_7  and  C8_8 
REMARK       I    between atoms: C8_8  and  N1_10 
REMARK    3  A    between atoms: N1_10  and  C9_11 
REMARK    4  A    between atoms: C13_15  and  C14_16 
ROOT
HETATM    1  C8  UNL     1      25.180   2.480  52.960  1.00  0.00     0.272 C 
HETATM    2  O1  UNL     1      25.293   1.621  53.898  1.00  0.00    -0.266 OA
HETATM    3  N1  UNL     1      26.409   2.659  52.253  1.00  0.00    -0.322 N 
HETATM    4  H8  UNL     1      26.438   3.339  51.460  1.00  0.00     0.169 HD
ENDROOT
BRANCH   1   5
HETATM    5  C7  UNL     1      23.947   3.207  52.629  1.00  0.00     0.097 C 
HETATM    6  C6  UNL     1      22.773   2.735  52.226  1.00  0.00     0.043 C 
HETATM    7  C5  UNL     1      21.896   3.887  52.038  1.00  0.00    -0.038 C 
HETATM    8  C4  UNL     1      20.573   3.870  51.980  1.00  0.00     0.008 C 
HETATM    9  C17 UNL     1      22.760   5.093  51.922  1.00  0.00     0.158 C 
HETATM   10  N2  UNL     1      23.904   4.627  52.722  1.00  0.00    -0.381 N 
HETATM   11  H16 UNL     1      24.507   5.338  53.227  1.00  0.00     0.160 HD
BRANCH   8  12
HETATM   12  C3  UNL     1      19.863   2.601  52.111  1.00  0.00    -0.004 C 
HETATM   13  C2  UNL     1      19.349   2.007  51.043  1.00  0.00    -0.031 C 
HETATM   14  C1  UNL     1      18.611   0.715  51.078  1.00  0.00     0.036 C 
ENDBRANCH   8  12
ENDBRANCH   1   5
BRANCH   3  15
HETATM   15  C9  UNL     1      27.399   1.791  52.844  1.00  0.00     0.035 A 
HETATM   16  C10 UNL     1      28.353   2.463  53.580  1.00  0.00     0.029 A 
HETATM   17  C11 UNL     1      29.365   1.737  54.201  1.00  0.00     0.003 A 
HETATM   18  C12 UNL     1      29.363   0.366  54.049  1.00  0.00     0.015 A 
HETATM   19  C13 UNL     1      28.408  -0.299  53.314  1.00  0.00     0.011 A 
HETATM   20  C16 UNL     1      27.402   0.418  52.695  1.00  0.00     0.044 A 
BRANCH  19  21
HETATM   21  C14 UNL     1      28.393  -1.755  53.144  1.00  0.00     0.155 C 
HETATM   22  C15 UNL     1      27.294  -2.496  52.509  1.00  0.00     0.096 C 
HETATM   23  O2  UNL     1      29.354  -2.494  53.545  1.00  0.00    -0.293 OA
ENDBRANCH  19  21
ENDBRANCH   3  15
TORSDOF 4
ENDMDL
MODEL 3
REMARK VINA RESULT:      -7.5      3.710      7.432
REMARK  4 active torsions:
REMARK  status: ('A' for Active; 'I' for Inactive)
REMARK    1  A    between atoms: C3_3  and  C4_4 
REMARK    2  A    between atoms: C7_7  and  C8_8 
REMARK       I    between atoms: C8_8  and  N1_10 
REMARK    3  A    between atoms: N1_10  and  C9_11 
REMARK    4  A    between atoms: C13_15  and  C14_16 
ROOT
HETATM    1  C8  UNL     1      24.686   2.615  51.854  1.00  0.00     0.272 C 
HETATM    2  O1  UNL     1      24.175   2.781  53.011  1.00  0.00    -0.266 OA
HETATM    3  N1  UNL     1      24.951   1.237  51.583  1.00  0.00    -0.322 N 
HETATM    4  H8  UNL     1      25.372   0.978  50.662  1.00  0.00     0.169 HD
ENDROOT
BRANCH   1   5
HETATM    5  C7  UNL     1      24.976   3.693  50.900  1.00  0.00     0.097 C 
HETATM    6  C6  UNL     1      26.147   4.122  50.444  1.00  0.00     0.043 C 
HETATM    7  C5  UNL     1      25.866   5.216  49.518  1.00  0.00    -0.038 C 
HETATM    8  C4  UNL     1      26.684   5.696  48.593  1.00  0.00     0.008 C 
HETATM    9  C17 UNL     1      24.487   5.697  49.800  1.00  0.00     0.158 C 
HETATM   10  N2  UNL     1      23.915   4.446  50.322  1.00  0.00    -0.381 N 
HETATM   11  H16 UNL     1      22.874   4.269  50.218  1.00  0.00     0.160 HD
BRANCH   8  12
HETATM   12  C3  UNL     1      28.014   5.115  48.436  1.00  0.00    -0.004 C 
HETATM   13  C2  UNL     1      29.045   5.881  48.106  1.00  0.00    -0.031 C 
HETATM   14  C1  UNL     1      30.435   5.379  47.925  1.00  0.00     0.036 C 
ENDBRANCH   8  12
ENDBRANCH   1   5
BRANCH   3  15
HETATM   15  C9  UNL     1      24.544   0.466  52.733  1.00  0.00     0.035 A 
HETATM   16  C10 UNL     1      25.596   0.070  53.533  1.00  0.00     0.029 A 
HETATM   17  C11 UNL     1      25.335  -0.680  54.675  1.00  0.00     0.003 A 
HETATM   18  C12 UNL     1      24.020  -0.996  54.953  1.00  0.00     0.015 A 
HETATM   19  C13 UNL     1      22.975  -0.598  54.152  1.00  0.00     0.011 A 
HETATM   20  C16 UNL     1      23.231   0.147  53.017  1.00  0.00     0.044 A 
BRANCH  19  21
HETATM   21  C14 UNL     1      21.575  -0.926  54.435  1.00  0.00     0.155 C 
HETATM   22  C15 UNL     1      20.440  -0.066  54.067  1.00  0.00     0.096 C 
HETATM   23  O2  UNL     1      21.237  -2.002  55.034  1.00  0.00    -0.293 OA
ENDBRANCH  19  21
ENDBRANCH   3  15
TORSDOF 4
ENDMDL
MODEL 4
REMARK VINA RESULT:      -7.5      1.501      2.352
REMARK  4 active torsions:
REMARK  status: ('A' for Active; 'I' for Inactive)
REMARK    1  A    between atoms: C3_3  and  C4_4 
REMARK    2  A    between atoms: C7_7  and  C8_8 
REMARK       I    between atoms: C8_8  and  N1_10 
REMARK    3  A    between atoms: N1_10  and  C9_11 
REMARK    4  A    between atoms: C13_15  and  C14_16 
ROOT
HETATM    1  C8  UNL     1      23.885  -0.137  53.484  1.00  0.00     0.272 C 
HETATM    2  O1  UNL     1      24.676  -0.465  54.431  1.00  0.00    -0.266 OA
HETATM    3  N1  UNL     1      24.568   0.555  52.437  1.00  0.00    -0.322 N 
HETATM    4  H8  UNL     1      24.021   0.873  51.605  1.00  0.00     0.169 HD
ENDROOT
BRANCH   1   5
HETATM    5  C7  UNL     1      22.445  -0.426  53.453  1.00  0.00     0.097 C 
HETATM    6  C6  UNL     1      21.439   0.348  53.064  1.00  0.00     0.043 C 
HETATM    7  C5  UNL     1      20.215  -0.428  53.238  1.00  0.00    -0.038 C 
HETATM    8  C4  UNL     1      19.043  -0.191  52.670  1.00  0.00     0.008 C 
HETATM    9  C17 UNL     1      20.523  -1.544  54.174  1.00  0.00     0.158 C 
HETATM   10  N2  UNL     1      21.957  -1.693  53.882  1.00  0.00    -0.381 N 
HETATM   11  H16 UNL     1      22.417  -2.639  54.014  1.00  0.00     0.160 HD
BRANCH   8  12
HETATM   12  C3  UNL     1      18.896   0.949  51.770  1.00  0.00    -0.004 C 
HETATM   13  C2  UNL     1      19.056   0.794  50.462  1.00  0.00    -0.031 C 
HETATM   14  C1  UNL     1      18.926   1.895  49.468  1.00  0.00     0.036 C 
ENDBRANCH   8  12
ENDBRANCH   1   5
BRANCH   3  15
HETATM   15  C9  UNL     1      25.960   0.660  52.800  1.00  0.00     0.035 A 
HETATM   16  C10 UNL     1      26.383   1.958  52.998  1.00  0.00     0.029 A 
HETATM   17  C11 UNL     1      27.708   2.193  53.353  1.00  0.00     0.003 A 
HETATM   18  C12 UNL     1      28.543   1.103  53.490  1.00  0.00     0.015 A 
HETATM   19  C13 UNL     1      28.115  -0.191  53.291  1.00  0.00     0.011 A 
HETATM   20  C16 UNL     1      26.801  -0.427  52.939  1.00  0.00     0.044 A 
BRANCH  19  21
HETATM   21  C14 UNL     1      28.991  -1.357  53.433  1.00  0.00     0.155 C 
HETATM   22  C15 UNL     1      30.405  -1.278  53.831  1.00  0.00     0.096 C 
HETATM   23  O2  UNL     1      28.578  -2.546  53.218  1.00  0.00    -0.293 OA
ENDBRANCH  19  21
ENDBRANCH   3  15
TORSDOF 4
ENDMDL
MODEL 5
REMARK VINA RESULT:      -7.4      4.838      7.481
REMARK  4 active torsions:
REMARK  status: ('A' for Active; 'I' for Inactive)
REMARK    1  A    between atoms: C3_3  and  C4_4 
REMARK    2  A    between atoms: C7_7  and  C8_8 
REMARK       I    between atoms: C8_8  and  N1_10 
REMARK    3  A    between atoms: N1_10  and  C9_11 
REMARK    4  A    between atoms: C13_15  and  C14_16 
ROOT
HETATM    1  C8  UNL     1      25.999   3.515  50.509  1.00  0.00     0.272 C 
HETATM    2  O1  UNL     1      26.819   2.584  50.208  1.00  0.00    -0.266 OA
HETATM    3  N1  UNL     1      25.423   3.318  51.801  1.00  0.00    -0.322 N 
HETATM    4  H8  UNL     1      24.734   4.020  52.156  1.00  0.00     0.169 HD
ENDROOT
BRANCH   1   5
HETATM    5  C7  UNL     1      25.673   4.659  49.647  1.00  0.00     0.097 C 
HETATM    6  C6  UNL     1      26.444   5.667  49.258  1.00  0.00     0.043 C 
HETATM    7  C5  UNL     1      25.622   6.526  48.410  1.00  0.00    -0.038 C 
HETATM    8  C4  UNL     1      26.058   7.431  47.547  1.00  0.00     0.008 C 
HETATM    9  C17 UNL     1      24.198   6.198  48.688  1.00  0.00     0.158 C 
HETATM   10  N2  UNL     1      24.366   4.795  49.098  1.00  0.00    -0.381 N 
HETATM   11  H16 UNL     1      23.567   4.113  48.952  1.00  0.00     0.160 HD
BRANCH   8  12
HETATM   12  C3  UNL     1      27.494   7.639  47.384  1.00  0.00    -0.004 C 
HETATM   13  C2  UNL     1      27.966   8.222  46.291  1.00  0.00    -0.031 C 
HETATM   14  C1  UNL     1      29.411   8.477  46.037  1.00  0.00     0.036 C 
ENDBRANCH   8  12
ENDBRANCH   1   5
BRANCH   3  15
HETATM   15  C9  UNL     1      25.968   2.104  52.358  1.00  0.00     0.035 A 
HETATM   16  C10 UNL     1      25.116   1.022  52.264  1.00  0.00     0.029 A 
HETATM   17  C11 UNL     1      25.526  -0.209  52.766  1.00  0.00     0.003 A 
HETATM   18  C12 UNL     1      26.779  -0.289  53.338  1.00  0.00     0.015 A 
HETATM   19  C13 UNL     1      27.625   0.793  53.428  1.00  0.00     0.011 A 
HETATM   20  C16 UNL     1      27.221   2.017  52.932  1.00  0.00     0.044 A 
BRANCH  19  21
HETATM   21  C14 UNL     1      28.958   0.723  54.033  1.00  0.00     0.155 C 
HETATM   22  C15 UNL     1      29.950  -0.315  53.713  1.00  0.00     0.096 C 
HETATM   23  O2  UNL     1      29.358   1.575  54.895  1.00  0.00    -0.293 OA
ENDBRANCH  19  21
ENDBRANCH   3  15
TORSDOF 4
ENDMDL
MODEL 6
REMARK VINA RESULT:      -7.3      4.195      5.936
REMARK  4 active torsions:
REMARK  status: ('A' for Active; 'I' for Inactive)
REMARK    1  A    between atoms: C3_3  and  C4_4 
REMARK    2  A    between atoms: C7_7  and  C8_8 
REMARK       I    between atoms: C8_8  and  N1_10 
REMARK    3  A    between atoms: N1_10  and  C9_11 
REMARK    4  A    between atoms: C13_15  and  C14_16 
ROOT
HETATM    1  C8  UNL     1      25.600   3.459  50.883  1.00  0.00     0.272 C 
HETATM    2  O1  UNL     1      26.386   2.525  50.507  1.00  0.00    -0.266 OA
HETATM    3  N1  UNL     1      25.106   3.236  52.206  1.00  0.00    -0.322 N 
HETATM    4  H8  UNL     1      24.452   3.936  52.622  1.00  0.00     0.169 HD
ENDROOT
BRANCH   1   5
HETATM    5  C7  UNL     1      25.234   4.628  50.073  1.00  0.00     0.097 C 
HETATM    6  C6  UNL     1      24.509   4.689  48.963  1.00  0.00     0.043 C 
HETATM    7  C5  UNL     1      24.453   6.095  48.571  1.00  0.00    -0.038 C 
HETATM    8  C4  UNL     1      23.578   6.650  47.747  1.00  0.00     0.008 C 
HETATM    9  C17 UNL     1      25.564   6.798  49.269  1.00  0.00     0.158 C 
HETATM   10  N2  UNL     1      25.672   5.929  50.451  1.00  0.00    -0.381 N 
HETATM   11  H16 UNL     1      26.031   6.336  51.362  1.00  0.00     0.160 HD
BRANCH   8  12
HETATM   12  C3  UNL     1      22.539   5.825  47.137  1.00  0.00    -0.004 C 
HETATM   13  C2  UNL     1      22.334   5.866  45.828  1.00  0.00    -0.031 C 
HETATM   14  C1  UNL     1      21.301   5.062  45.117  1.00  0.00     0.036 C 
ENDBRANCH   8  12
ENDBRANCH   1   5
BRANCH   3  15
HETATM   15  C9  UNL     1      25.670   2.001  52.695  1.00  0.00     0.035 A 
HETATM   16  C10 UNL     1      24.814   0.924  52.592  1.00  0.00     0.029 A 
HETATM   17  C11 UNL     1      25.240  -0.326  53.030  1.00  0.00     0.003 A 
HETATM   18  C12 UNL     1      26.514  -0.427  53.553  1.00  0.00     0.015 A 
HETATM   19  C13 UNL     1      27.364   0.651  53.653  1.00  0.00     0.011 A 
HETATM   20  C16 UNL     1      26.944   1.893  53.219  1.00  0.00     0.044 A 
BRANCH  19  21
HETATM   21  C14 UNL     1      28.718   0.558  54.205  1.00  0.00     0.155 C 
HETATM   22  C15 UNL     1      29.666  -0.518  53.877  1.00  0.00     0.096 C 
HETATM   23  O2  UNL     1      29.177   1.421  55.025  1.00  0.00    -0.293 OA
ENDBRANCH  19  21
ENDBRANCH   3  15
TORSDOF 4
ENDMDL
MODEL 7
REMARK VINA RESULT:      -7.2      3.927      6.288
REMARK  4 active torsions:
REMARK  status: ('A' for Active; 'I' for Inactive)
REMARK    1  A    between atoms: C3_3  and  C4_4 
REMARK    2  A    between atoms: C7_7  and  C8_8 
REMARK       I    between atoms: C8_8  and  N1_10 
REMARK    3  A    between atoms: N1_10  and  C9_11 
REMARK    4  A    between atoms: C13_15  and  C14_16 
ROOT
HETATM    1  C8  UNL     1      24.294   3.354  51.935  1.00  0.00     0.272 C 
HETATM    2  O1  UNL     1      24.470   3.206  53.191  1.00  0.00    -0.266 OA
HETATM    3  N1  UNL     1      24.268   2.099  51.251  1.00  0.00    -0.322 N 
HETATM    4  H8  UNL     1      24.130   2.094  50.215  1.00  0.00     0.169 HD
ENDROOT
BRANCH   1   5
HETATM    5  C7  UNL     1      24.135   4.645  51.254  1.00  0.00     0.097 C 
HETATM    6  C6  UNL     1      24.205   4.928  49.958  1.00  0.00     0.043 C 
HETATM    7  C5  UNL     1      23.972   6.363  49.826  1.00  0.00    -0.038 C 
HETATM    8  C4  UNL     1      23.616   7.006  48.724  1.00  0.00     0.008 C 
HETATM    9  C17 UNL     1      24.207   6.980  51.160  1.00  0.00     0.158 C 
HETATM   10  N2  UNL     1      23.864   5.825  52.004  1.00  0.00    -0.381 N 
HETATM   11  H16 UNL     1      23.492   5.991  52.983  1.00  0.00     0.160 HD
BRANCH   8  12
HETATM   12  C3  UNL     1      23.422   6.259  47.485  1.00  0.00    -0.004 C 
HETATM   13  C2  UNL     1      22.199   6.014  47.035  1.00  0.00    -0.031 C 
HETATM   14  C1  UNL     1      21.903   5.263  45.783  1.00  0.00     0.036 C 
ENDBRANCH   8  12
ENDBRANCH   1   5
BRANCH   3  15
HETATM   15  C9  UNL     1      24.453   1.051  52.226  1.00  0.00     0.035 A 
HETATM   16  C10 UNL     1      25.764   0.636  52.348  1.00  0.00     0.029 A 
HETATM   17  C11 UNL     1      26.073  -0.371  53.257  1.00  0.00     0.003 A 
HETATM   18  C12 UNL     1      25.042  -0.911  53.999  1.00  0.00     0.015 A 
HETATM   19  C13 UNL     1      23.737  -0.492  53.873  1.00  0.00     0.011 A 
HETATM   20  C16 UNL     1      23.426   0.507  52.972  1.00  0.00     0.044 A 
BRANCH  19  21
HETATM   21  C14 UNL     1      22.633  -1.056  54.655  1.00  0.00     0.155 C 
HETATM   22  C15 UNL     1      21.213  -0.868  54.323  1.00  0.00     0.096 C 
HETATM   23  O2  UNL     1      22.833  -1.764  55.698  1.00  0.00    -0.293 OA
ENDBRANCH  19  21
ENDBRANCH   3  15
TORSDOF 4
ENDMDL
MODEL 8
REMARK VINA RESULT:      -7.2      3.961      5.567
REMARK  4 active torsions:
REMARK  status: ('A' for Active; 'I' for Inactive)
REMARK    1  A    between atoms: C3_3  and  C4_4 
REMARK    2  A    between atoms: C7_7  and  C8_8 
REMARK       I    between atoms: C8_8  and  N1_10 
REMARK    3  A    between atoms: N1_10  and  C9_11 
REMARK    4  A    between atoms: C13_15  and  C14_16 
ROOT
HETATM    1  C8  UNL     1      24.288   4.080  51.893  1.00  0.00     0.272 C 
HETATM    2  O1  UNL     1      24.798   3.197  51.125  1.00  0.00    -0.266 OA
HETATM    3  N1  UNL     1      24.288   3.659  53.259  1.00  0.00    -0.322 N 
HETATM    4  H8  UNL     1      23.894   4.302  53.983  1.00  0.00     0.169 HD
ENDROOT
BRANCH   1   5
HETATM    5  C7  UNL     1      23.760   5.376  51.450  1.00  0.00     0.097 C 
HETATM    6  C6  UNL     1      22.738   5.638  50.644  1.00  0.00     0.043 C 
HETATM    7  C5  UNL     1      22.645   7.092  50.538  1.00  0.00    -0.038 C 
HETATM    8  C4  UNL     1      21.594   7.787  50.131  1.00  0.00     0.008 C 
HETATM    9  C17 UNL     1      23.951   7.657  50.973  1.00  0.00     0.158 C 
HETATM   10  N2  UNL     1      24.362   6.588  51.896  1.00  0.00    -0.381 N 
HETATM   11  H16 UNL     1      25.001   6.822  52.709  1.00  0.00     0.160 HD
BRANCH   8  12
HETATM   12  C3  UNL     1      20.376   7.086  49.735  1.00  0.00    -0.004 C 
HETATM   13  C2  UNL     1      19.847   7.286  48.536  1.00  0.00    -0.031 C 
HETATM   14  C1  UNL     1      18.611   6.617  48.044  1.00  0.00     0.036 C 
ENDBRANCH   8  12
ENDBRANCH   1   5
BRANCH   3  15
HETATM   15  C9  UNL     1      24.878   2.343  53.325  1.00  0.00     0.035 A 
HETATM   16  C10 UNL     1      24.000   1.328  53.007  1.00  0.00     0.029 A 
HETATM   17  C11 UNL     1      24.448   0.011  53.033  1.00  0.00     0.003 A 
HETATM   18  C12 UNL     1      25.764  -0.216  53.381  1.00  0.00     0.015 A 
HETATM   19  C13 UNL     1      26.636   0.801  53.698  1.00  0.00     0.011 A 
HETATM   20  C16 UNL     1      26.194   2.109  53.672  1.00  0.00     0.044 A 
BRANCH  19  21
HETATM   21  C14 UNL     1      28.035   0.574  54.068  1.00  0.00     0.155 C 
HETATM   22  C15 UNL     1      28.853  -0.532  53.548  1.00  0.00     0.096 C 
HETATM   23  O2  UNL     1      28.653   1.336  54.885  1.00  0.00    -0.293 OA
ENDBRANCH  19  21
ENDBRANCH   3  15
TORSDOF 4
ENDMDL
MODEL 9
REMARK VINA RESULT:      -7.2      4.188      7.085
REMARK  4 active torsions:
REMARK  status: ('A' for Active; 'I' for Inactive)
REMARK    1  A    between atoms: C3_3  and  C4_4 
REMARK    2  A    between atoms: C7_7  and  C8_8 
REMARK       I    between atoms: C8_8  and  N1_10 
REMARK    3  A    between atoms: N1_10  and  C9_11 
REMARK    4  A    between atoms: C13_15  and  C14_16 
ROOT
HETATM    1  C8  UNL     1      23.624   3.607  52.027  1.00  0.00     0.272 C 
HETATM    2  O1  UNL     1      24.083   3.405  53.201  1.00  0.00    -0.266 OA
HETATM    3  N1  UNL     1      23.439   2.383  51.312  1.00  0.00    -0.322 N 
HETATM    4  H8  UNL     1      23.066   2.423  50.336  1.00  0.00     0.169 HD
ENDROOT
BRANCH   1   5
HETATM    5  C7  UNL     1      23.315   4.926  51.459  1.00  0.00     0.097 C 
HETATM    6  C6  UNL     1      24.132   5.932  51.173  1.00  0.00     0.043 C 
HETATM    7  C5  UNL     1      23.306   7.007  50.631  1.00  0.00    -0.038 C 
HETATM    8  C4  UNL     1      23.725   8.037  49.911  1.00  0.00     0.008 C 
HETATM    9  C17 UNL     1      21.899   6.737  51.033  1.00  0.00     0.158 C 
HETATM   10  N2  UNL     1      21.972   5.271  51.133  1.00  0.00    -0.381 N 
HETATM   11  H16 UNL     1      21.097   4.696  50.967  1.00  0.00     0.160 HD
BRANCH   8  12
HETATM   12  C3  UNL     1      25.145   8.165  49.596  1.00  0.00    -0.004 C 
HETATM   13  C2  UNL     1      25.889   9.072  50.214  1.00  0.00    -0.031 C 
HETATM   14  C1  UNL     1      27.342   9.276  49.960  1.00  0.00     0.036 C 
ENDBRANCH   8  12
ENDBRANCH   1   5
BRANCH   3  15
HETATM   15  C9  UNL     1      23.842   1.295  52.169  1.00  0.00     0.035 A 
HETATM   16  C10 UNL     1      25.188   1.001  52.094  1.00  0.00     0.029 A 
HETATM   17  C11 UNL     1      25.702  -0.030  52.874  1.00  0.00     0.003 A 
HETATM   18  C12 UNL     1      24.828  -0.716  53.694  1.00  0.00     0.015 A 
HETATM   19  C13 UNL     1      23.487  -0.418  53.766  1.00  0.00     0.011 A 
HETATM   20  C16 UNL     1      22.973   0.605  52.993  1.00  0.00     0.044 A 
BRANCH  19  21
HETATM   21  C14 UNL     1      22.549  -1.137  54.633  1.00  0.00     0.155 C 
HETATM   22  C15 UNL     1      21.134  -1.364  54.301  1.00  0.00     0.096 C 
HETATM   23  O2  UNL     1      22.903  -1.626  55.758  1.00  0.00    -0.293 OA
ENDBRANCH  19  21
ENDBRANCH   3  15
TORSDOF 4
ENDMDL
