MODEL 1
REMARK VINA RESULT:      -8.6      0.000      0.000
REMARK  5 active torsions:
REMARK  status: ('A' for Active; 'I' for Inactive)
REMARK    1  A    between atoms: O1_2  and  C2_3 
REMARK    2  A    between atoms: C6_8  and  C7_9 
REMARK    3  A    between atoms: C7_9  and  O3_11 
REMARK    4  A    between atoms: C8_12  and  N2_13 
REMARK    5  A    between atoms: N2_13  and  C9_14 
ROOT
HETATM    1  C2  UNL     1      20.292   0.360  51.901  1.00  0.00     0.051 C 
HETATM    2  C3  UNL     1      20.967   0.780  50.822  1.00  0.00     0.065 C 
HETATM    3  C4  UNL     1      22.242   1.467  50.769  1.00  0.00     0.071 A 
HETATM    4  N1  UNL     1      22.487   2.174  49.651  1.00  0.00    -0.259 NA
HETATM    5  C5  UNL     1      23.645   2.847  49.507  1.00  0.00     0.138 A 
HETATM    6  C6  UNL     1      24.629   2.853  50.477  1.00  0.00     0.082 A 
HETATM    7  C8  UNL     1      24.423   2.142  51.643  1.00  0.00     0.063 A 
HETATM    8  C15 UNL     1      23.222   1.455  51.769  1.00  0.00     0.020 A 
HETATM    9  C16 UNL     1      23.191   0.761  53.073  1.00  0.00     0.012 C 
HETATM   10  C17 UNL     1      22.047   0.381  53.647  1.00  0.00    -0.019 C 
HETATM   11  C18 UNL     1      20.597   0.447  53.342  1.00  0.00     0.091 C 
ENDROOT
BRANCH   7  12
HETATM   12  N2  UNL     1      25.356   2.084  52.681  1.00  0.00    -0.355 N 
HETATM   13  H7  UNL     1      24.965   2.796  53.335  1.00  0.00     0.166 HD
BRANCH  12  14
HETATM   14  C9  UNL     1      26.525   1.361  52.953  1.00  0.00     0.034 A 
HETATM   15  C10 UNL     1      27.621   2.040  53.447  1.00  0.00     0.032 A 
HETATM   16  C11 UNL     1      28.744   1.266  53.695  1.00  0.00     0.046 A 
HETATM   17  C12 UNL     1      28.813  -0.085  53.480  1.00  0.00     0.138 A 
HETATM   18  F1  UNL     1      29.995  -0.726  53.771  1.00  0.00    -0.204 F 
HETATM   19  C13 UNL     1      27.688  -0.745  52.979  1.00  0.00     0.074 A 
HETATM   20 CL1  UNL     1      27.782  -2.472  52.707  1.00  0.00    -0.081 Cl
HETATM   21  C14 UNL     1      26.555   0.001  52.723  1.00  0.00     0.056 A 
ENDBRANCH  12  14
ENDBRANCH   7  12
BRANCH   6  22
HETATM   22  C7  UNL     1      25.877   3.588  50.304  1.00  0.00     0.179 C 
HETATM   23  O2  UNL     1      26.895   2.923  49.983  1.00  0.00    -0.646 OA
BRANCH  22  24
HETATM   24  O3  UNL     1      25.892   4.973  50.497  1.00  0.00    -0.773 OA
HETATM   25  H6  UNL     1      26.328   5.350  51.345  1.00  0.00     0.167 HD
ENDBRANCH  22  24
ENDBRANCH   6  22
BRANCH   1  26
HETATM   26  O1  UNL     1      19.087  -0.271  51.626  1.00  0.00    -0.360 OA
HETATM   27  C1  UNL     1      18.253  -0.708  52.660  1.00  0.00     0.209 C 
ENDBRANCH   1  26
TORSDOF 5
ENDMDL
MODEL 2
REMARK VINA RESULT:      -8.4      4.148      7.605
REMARK  5 active torsions:
REMARK  status: ('A' for Active; 'I' for Inactive)
REMARK    1  A    between atoms: O1_2  and  C2_3 
REMARK    2  A    between atoms: C6_8  and  C7_9 
REMARK    3  A    between atoms: C7_9  and  O3_11 
REMARK    4  A    between atoms: C8_12  and  N2_13 
REMARK    5  A    between atoms: N2_13  and  C9_14 
ROOT
HETATM    1  C2  UNL     1      27.919   0.752  53.582  1.00  0.00     0.051 C 
HETATM    2  C3  UNL     1      27.223  -0.130  54.311  1.00  0.00     0.065 C 
HETATM    3  C4  UNL     1      25.788  -0.334  54.348  1.00  0.00     0.071 A 
HETATM    4  N1  UNL     1      25.303  -0.930  55.453  1.00  0.00    -0.259 NA
HETATM    5  C5  UNL     1      23.983  -1.164  55.579  1.00  0.00     0.138 A 
HETATM    6  C6  UNL     1      23.066  -0.814  54.607  1.00  0.00     0.082 A 
HETATM    7  C8  UNL     1      23.516  -0.200  53.454  1.00  0.00     0.063 A 
HETATM    8  C15 UNL     1      24.882   0.031  53.344  1.00  0.00     0.020 A 
HETATM    9  C16 UNL     1      25.164   0.689  52.052  1.00  0.00     0.012 C 
HETATM   10  C17 UNL     1      26.278   1.394  51.843  1.00  0.00    -0.019 C 
HETATM   11  C18 UNL     1      27.489   1.776  52.609  1.00  0.00     0.091 C 
ENDROOT
BRANCH   7  12
HETATM   12  N2  UNL     1      22.671   0.190  52.413  1.00  0.00    -0.355 N 
HETATM   13  H7  UNL     1      22.939  -0.496  51.675  1.00  0.00     0.166 HD
BRANCH  12  14
HETATM   14  C9  UNL     1      21.692   1.174  52.219  1.00  0.00     0.034 A 
HETATM   15  C10 UNL     1      22.016   2.490  52.483  1.00  0.00     0.032 A 
HETATM   16  C11 UNL     1      21.004   3.411  52.269  1.00  0.00     0.046 A 
HETATM   17  C12 UNL     1      19.748   3.090  51.827  1.00  0.00     0.138 A 
HETATM   18  F1  UNL     1      18.840   4.110  51.660  1.00  0.00    -0.204 F 
HETATM   19  C13 UNL     1      19.448   1.750  51.568  1.00  0.00     0.074 A 
HETATM   20 CL1  UNL     1      17.842   1.345  51.003  1.00  0.00    -0.081 Cl
HETATM   21  C14 UNL     1      20.438   0.810  51.772  1.00  0.00     0.056 A 
ENDBRANCH  12  14
ENDBRANCH   7  12
BRANCH   6  22
HETATM   22  C7  UNL     1      21.640  -1.074  54.762  1.00  0.00     0.179 C 
HETATM   23  O2  UNL     1      21.253  -2.262  54.608  1.00  0.00    -0.646 OA
BRANCH  22  24
HETATM   24  O3  UNL     1      20.777  -0.019  55.071  1.00  0.00    -0.773 OA
HETATM   25  H6  UNL     1      20.318  -0.005  55.987  1.00  0.00     0.167 HD
ENDBRANCH  22  24
ENDBRANCH   6  22
BRANCH   1  26
HETATM   26  O1  UNL     1      29.293   0.706  53.767  1.00  0.00    -0.360 OA
HETATM   27  C1  UNL     1      30.007  -0.479  53.560  1.00  0.00     0.209 C 
ENDBRANCH   1  26
TORSDOF 5
ENDMDL
MODEL 3
REMARK VINA RESULT:      -8.0      3.949      7.023
REMARK  5 active torsions:
REMARK  status: ('A' for Active; 'I' for Inactive)
REMARK    1  A    between atoms: O1_2  and  C2_3 
REMARK    2  A    between atoms: C6_8  and  C7_9 
REMARK    3  A    between atoms: C7_9  and  O3_11 
REMARK    4  A    between atoms: C8_12  and  N2_13 
REMARK    5  A    between atoms: N2_13  and  C9_14 
ROOT
HETATM    1  C2  UNL     1      27.099  -0.070  53.739  1.00  0.00     0.051 C 
HETATM    2  C3  UNL     1      25.879  -0.616  53.825  1.00  0.00     0.065 C 
HETATM    3  C4  UNL     1      24.600  -0.021  53.489  1.00  0.00     0.071 A 
HETATM    4  N1  UNL     1      23.520  -0.571  54.074  1.00  0.00    -0.259 NA
HETATM    5  C5  UNL     1      22.288  -0.088  53.824  1.00  0.00     0.138 A 
HETATM    6  C6  UNL     1      22.062   0.976  52.971  1.00  0.00     0.082 A 
HETATM    7  C8  UNL     1      23.140   1.572  52.347  1.00  0.00     0.063 A 
HETATM    8  C15 UNL     1      24.402   1.058  52.619  1.00  0.00     0.020 A 
HETATM    9  C16 UNL     1      25.415   1.822  51.863  1.00  0.00     0.012 C 
HETATM   10  C17 UNL     1      26.700   1.846  52.223  1.00  0.00    -0.019 C 
HETATM   11  C18 UNL     1      27.546   1.264  53.293  1.00  0.00     0.091 C 
ENDROOT
BRANCH   7  12
HETATM   12  N2  UNL     1      23.017   2.650  51.468  1.00  0.00    -0.355 N 
HETATM   13  H7  UNL     1      23.195   3.451  52.114  1.00  0.00     0.166 HD
BRANCH  12  14
HETATM   14  C9  UNL     1      22.743   2.819  50.105  1.00  0.00     0.034 A 
HETATM   15  C10 UNL     1      22.293   1.732  49.382  1.00  0.00     0.032 A 
HETATM   16  C11 UNL     1      22.040   1.966  48.040  1.00  0.00     0.046 A 
HETATM   17  C12 UNL     1      22.210   3.177  47.422  1.00  0.00     0.138 A 
HETATM   18  F1  UNL     1      21.920   3.265  46.080  1.00  0.00    -0.204 F 
HETATM   19  C13 UNL     1      22.666   4.260  48.178  1.00  0.00     0.074 A 
HETATM   20 CL1  UNL     1      22.882   5.805  47.385  1.00  0.00    -0.081 Cl
HETATM   21  C14 UNL     1      22.926   4.055  49.519  1.00  0.00     0.056 A 
ENDBRANCH  12  14
ENDBRANCH   7  12
BRANCH   6  22
HETATM   22  C7  UNL     1      20.721   1.485  52.713  1.00  0.00     0.179 C 
HETATM   23  O2  UNL     1      19.906   0.701  52.160  1.00  0.00    -0.646 OA
BRANCH  22  24
HETATM   24  O3  UNL     1      20.398   2.794  53.083  1.00  0.00    -0.773 OA
HETATM   25  H6  UNL     1      19.470   3.161  52.849  1.00  0.00     0.167 HD
ENDBRANCH  22  24
ENDBRANCH   6  22
BRANCH   1  26
HETATM   26  O1  UNL     1      28.138  -0.897  54.139  1.00  0.00    -0.360 OA
HETATM   27  C1  UNL     1      29.464  -0.597  53.807  1.00  0.00     0.209 C 
ENDBRANCH   1  26
TORSDOF 5
ENDMDL
MODEL 4
REMARK VINA RESULT:      -7.9      3.865      6.871
REMARK  5 active torsions:
REMARK  status: ('A' for Active; 'I' for Inactive)
REMARK    1  A    between atoms: O1_2  and  C2_3 
REMARK    2  A    between atoms: C6_8  and  C7_9 
REMARK    3  A    between atoms: C7_9  and  O3_11 
REMARK    4  A    between atoms: C8_12  and  N2_13 
REMARK    5  A    between atoms: N2_13  and  C9_14 
ROOT
HETATM    1  C2  UNL     1      27.613   0.165  53.966  1.00  0.00     0.051 C 
HETATM    2  C3  UNL     1      26.457  -0.508  54.043  1.00  0.00     0.065 C 
HETATM    3  C4  UNL     1      25.156  -0.125  53.529  1.00  0.00     0.071 A 
HETATM    4  N1  UNL     1      24.095  -0.715  54.108  1.00  0.00    -0.259 NA
HETATM    5  C5  UNL     1      22.844  -0.425  53.698  1.00  0.00     0.138 A 
HETATM    6  C6  UNL     1      22.581   0.474  52.683  1.00  0.00     0.082 A 
HETATM    7  C8  UNL     1      23.639   1.104  52.058  1.00  0.00     0.063 A 
HETATM    8  C15 UNL     1      24.921   0.790  52.496  1.00  0.00     0.020 A 
HETATM    9  C16 UNL     1      25.908   1.559  51.711  1.00  0.00     0.012 C 
HETATM   10  C17 UNL     1      27.145   1.789  52.157  1.00  0.00    -0.019 C 
HETATM   11  C18 UNL     1      27.949   1.469  53.361  1.00  0.00     0.091 C 
ENDROOT
BRANCH   7  12
HETATM   12  N2  UNL     1      23.479   2.027  51.022  1.00  0.00    -0.355 N 
HETATM   13  H7  UNL     1      23.447   1.391  50.196  1.00  0.00     0.166 HD
BRANCH  12  14
HETATM   14  C9  UNL     1      23.371   3.420  50.915  1.00  0.00     0.034 A 
HETATM   15  C10 UNL     1      22.874   4.129  51.991  1.00  0.00     0.032 A 
HETATM   16  C11 UNL     1      22.793   5.501  51.819  1.00  0.00     0.046 A 
HETATM   17  C12 UNL     1      23.168   6.160  50.679  1.00  0.00     0.138 A 
HETATM   18  F1  UNL     1      23.032   7.529  50.648  1.00  0.00    -0.204 F 
HETATM   19  C13 UNL     1      23.667   5.418  49.605  1.00  0.00     0.074 A 
HETATM   20 CL1  UNL     1      24.144   6.264  48.150  1.00  0.00    -0.081 Cl
HETATM   21  C14 UNL     1      23.759   4.047  49.748  1.00  0.00     0.056 A 
ENDBRANCH  12  14
ENDBRANCH   7  12
BRANCH   6  22
HETATM   22  C7  UNL     1      21.221   0.776  52.254  1.00  0.00     0.179 C 
HETATM   23  O2  UNL     1      20.850   0.302  51.149  1.00  0.00    -0.646 OA
BRANCH  22  24
HETATM   24  O3  UNL     1      20.400   1.562  53.068  1.00  0.00    -0.773 OA
HETATM   25  H6  UNL     1      20.765   2.448  53.432  1.00  0.00     0.167 HD
ENDBRANCH  22  24
ENDBRANCH   6  22
BRANCH   1  26
HETATM   26  O1  UNL     1      28.696  -0.466  54.561  1.00  0.00    -0.360 OA
HETATM   27  C1  UNL     1      29.773  -0.921  53.792  1.00  0.00     0.209 C 
ENDBRANCH   1  26
TORSDOF 5
ENDMDL
MODEL 5
REMARK VINA RESULT:      -7.9      4.133      7.103
REMARK  5 active torsions:
REMARK  status: ('A' for Active; 'I' for Inactive)
REMARK    1  A    between atoms: O1_2  and  C2_3 
REMARK    2  A    between atoms: C6_8  and  C7_9 
REMARK    3  A    between atoms: C7_9  and  O3_11 
REMARK    4  A    between atoms: C8_12  and  N2_13 
REMARK    5  A    between atoms: N2_13  and  C9_14 
ROOT
HETATM    1  C2  UNL     1      26.867   1.023  53.897  1.00  0.00     0.051 C 
HETATM    2  C3  UNL     1      26.084   2.106  53.993  1.00  0.00     0.065 C 
HETATM    3  C4  UNL     1      24.809   2.356  53.351  1.00  0.00     0.071 A 
HETATM    4  N1  UNL     1      24.449   3.647  53.232  1.00  0.00    -0.259 NA
HETATM    5  C5  UNL     1      23.281   3.979  52.649  1.00  0.00     0.138 A 
HETATM    6  C6  UNL     1      22.401   3.038  52.149  1.00  0.00     0.082 A 
HETATM    7  C8  UNL     1      22.727   1.700  52.248  1.00  0.00     0.063 A 
HETATM    8  C15 UNL     1      23.937   1.379  52.854  1.00  0.00     0.020 A 
HETATM    9  C16 UNL     1      24.104  -0.088  52.865  1.00  0.00     0.012 C 
HETATM   10  C17 UNL     1      25.301  -0.665  52.988  1.00  0.00    -0.019 C 
HETATM   11  C18 UNL     1      26.712  -0.233  53.138  1.00  0.00     0.091 C 
ENDROOT
BRANCH   7  12
HETATM   12  N2  UNL     1      21.907   0.674  51.776  1.00  0.00    -0.355 N 
HETATM   13  H7  UNL     1      22.500   0.285  51.010  1.00  0.00     0.166 HD
BRANCH  12  14
HETATM   14  C9  UNL     1      20.643   0.160  52.094  1.00  0.00     0.034 A 
HETATM   15  C10 UNL     1      20.471  -0.460  53.316  1.00  0.00     0.032 A 
HETATM   16  C11 UNL     1      19.197  -0.944  53.569  1.00  0.00     0.046 A 
HETATM   17  C12 UNL     1      18.145  -0.842  52.698  1.00  0.00     0.138 A 
HETATM   18  F1  UNL     1      16.934  -1.370  53.081  1.00  0.00    -0.204 F 
HETATM   19  C13 UNL     1      18.348  -0.210  51.468  1.00  0.00     0.074 A 
HETATM   20 CL1  UNL     1      17.001  -0.082  50.359  1.00  0.00    -0.081 Cl
HETATM   21  C14 UNL     1      19.608   0.283  51.190  1.00  0.00     0.056 A 
ENDBRANCH  12  14
ENDBRANCH   7  12
BRANCH   6  22
HETATM   22  C7  UNL     1      21.141   3.418  51.521  1.00  0.00     0.179 C 
HETATM   23  O2  UNL     1      21.122   3.477  50.264  1.00  0.00    -0.646 OA
BRANCH  22  24
HETATM   24  O3  UNL     1      20.029   3.695  52.321  1.00  0.00    -0.773 OA
HETATM   25  H6  UNL     1      19.394   2.930  52.569  1.00  0.00     0.167 HD
ENDBRANCH  22  24
ENDBRANCH   6  22
BRANCH   1  26
HETATM   26  O1  UNL     1      28.038   1.082  54.638  1.00  0.00    -0.360 OA
HETATM   27  C1  UNL     1      28.988   0.058  54.563  1.00  0.00     0.209 C 
ENDBRANCH   1  26
TORSDOF 5
ENDMDL
MODEL 6
REMARK VINA RESULT:      -7.7      1.851      2.471
REMARK  5 active torsions:
REMARK  status: ('A' for Active; 'I' for Inactive)
REMARK    1  A    between atoms: O1_2  and  C2_3 
REMARK    2  A    between atoms: C6_8  and  C7_9 
REMARK    3  A    between atoms: C7_9  and  O3_11 
REMARK    4  A    between atoms: C8_12  and  N2_13 
REMARK    5  A    between atoms: N2_13  and  C9_14 
ROOT
HETATM    1  C2  UNL     1      18.932  -0.677  52.584  1.00  0.00     0.051 C 
HETATM    2  C3  UNL     1      19.520   0.276  51.849  1.00  0.00     0.065 C 
HETATM    3  C4  UNL     1      20.784   0.945  52.085  1.00  0.00     0.071 A 
HETATM    4  N1  UNL     1      20.938   2.144  51.494  1.00  0.00    -0.259 NA
HETATM    5  C5  UNL     1      22.079   2.843  51.654  1.00  0.00     0.138 A 
HETATM    6  C6  UNL     1      23.136   2.383  52.416  1.00  0.00     0.082 A 
HETATM    7  C8  UNL     1      23.024   1.157  53.042  1.00  0.00     0.063 A 
HETATM    8  C15 UNL     1      21.838   0.453  52.864  1.00  0.00     0.020 A 
HETATM    9  C16 UNL     1      21.911  -0.823  53.605  1.00  0.00     0.012 C 
HETATM   10  C17 UNL     1      20.817  -1.498  53.964  1.00  0.00    -0.019 C 
HETATM   11  C18 UNL     1      19.348  -1.347  53.832  1.00  0.00     0.091 C 
ENDROOT
BRANCH   7  12
HETATM   12  N2  UNL     1      24.034   0.604  53.833  1.00  0.00    -0.355 N 
HETATM   13  H7  UNL     1      23.571   0.600  54.768  1.00  0.00     0.166 HD
BRANCH  12  14
HETATM   14  C9  UNL     1      25.337   0.133  53.626  1.00  0.00     0.034 A 
HETATM   15  C10 UNL     1      25.530  -0.910  52.742  1.00  0.00     0.032 A 
HETATM   16  C11 UNL     1      26.842  -1.327  52.584  1.00  0.00     0.046 A 
HETATM   17  C12 UNL     1      27.912  -0.775  53.237  1.00  0.00     0.138 A 
HETATM   18  F1  UNL     1      29.162  -1.291  52.982  1.00  0.00    -0.204 F 
HETATM   19  C13 UNL     1      27.687   0.280  54.126  1.00  0.00     0.074 A 
HETATM   20 CL1  UNL     1      29.057   0.982  54.958  1.00  0.00    -0.081 Cl
HETATM   21  C14 UNL     1      26.389   0.716  54.303  1.00  0.00     0.056 A 
ENDBRANCH  12  14
ENDBRANCH   7  12
BRANCH   6  22
HETATM   22  C7  UNL     1      24.362   3.153  52.578  1.00  0.00     0.179 C 
HETATM   23  O2  UNL     1      24.542   3.719  53.688  1.00  0.00    -0.646 OA
BRANCH  22  24
HETATM   24  O3  UNL     1      25.271   3.233  51.519  1.00  0.00    -0.773 OA
HETATM   25  H6  UNL     1      26.027   2.543  51.461  1.00  0.00     0.167 HD
ENDBRANCH  22  24
ENDBRANCH   6  22
BRANCH   1  26
HETATM   26  O1  UNL     1      17.713  -1.123  52.095  1.00  0.00    -0.360 OA
HETATM   27  C1  UNL     1      16.712  -0.217  51.727  1.00  0.00     0.209 C 
ENDBRANCH   1  26
TORSDOF 5
ENDMDL
MODEL 7
REMARK VINA RESULT:      -7.5      3.752      6.231
REMARK  5 active torsions:
REMARK  status: ('A' for Active; 'I' for Inactive)
REMARK    1  A    between atoms: O1_2  and  C2_3 
REMARK    2  A    between atoms: C6_8  and  C7_9 
REMARK    3  A    between atoms: C7_9  and  O3_11 
REMARK    4  A    between atoms: C8_12  and  N2_13 
REMARK    5  A    between atoms: N2_13  and  C9_14 
ROOT
HETATM    1  C2  UNL     1      24.757   5.213  50.367  1.00  0.00     0.051 C 
HETATM    2  C3  UNL     1      25.456   4.084  50.183  1.00  0.00     0.065 C 
HETATM    3  C4  UNL     1      25.518   2.914  51.036  1.00  0.00     0.071 A 
HETATM    4  N1  UNL     1      26.602   2.131  50.887  1.00  0.00    -0.259 NA
HETATM    5  C5  UNL     1      26.750   1.020  51.635  1.00  0.00     0.138 A 
HETATM    6  C6  UNL     1      25.822   0.627  52.579  1.00  0.00     0.082 A 
HETATM    7  C8  UNL     1      24.693   1.399  52.768  1.00  0.00     0.063 A 
HETATM    8  C15 UNL     1      24.560   2.540  51.986  1.00  0.00     0.020 A 
HETATM    9  C16 UNL     1      23.298   3.226  52.332  1.00  0.00     0.012 C 
HETATM   10  C17 UNL     1      23.099   4.520  52.069  1.00  0.00    -0.019 C 
HETATM   11  C18 UNL     1      23.852   5.638  51.453  1.00  0.00     0.091 C 
ENDROOT
BRANCH   7  12
HETATM   12  N2  UNL     1      23.696   1.087  53.696  1.00  0.00    -0.355 N 
HETATM   13  H7  UNL     1      23.991   1.675  54.505  1.00  0.00     0.166 HD
BRANCH  12  14
HETATM   14  C9  UNL     1      22.563   0.264  53.725  1.00  0.00     0.034 A 
HETATM   15  C10 UNL     1      22.540  -0.797  54.609  1.00  0.00     0.032 A 
HETATM   16  C11 UNL     1      21.390  -1.570  54.588  1.00  0.00     0.046 A 
HETATM   17  C12 UNL     1      20.320  -1.341  53.765  1.00  0.00     0.138 A 
HETATM   18  F1  UNL     1      19.243  -2.192  53.851  1.00  0.00    -0.204 F 
HETATM   19  C13 UNL     1      20.371  -0.260  52.880  1.00  0.00     0.074 A 
HETATM   20 CL1  UNL     1      19.001   0.029  51.830  1.00  0.00    -0.081 Cl
HETATM   21  C14 UNL     1      21.504   0.528  52.880  1.00  0.00     0.056 A 
ENDBRANCH  12  14
ENDBRANCH   7  12
BRANCH   6  22
HETATM   22  C7  UNL     1      26.000  -0.579  53.380  1.00  0.00     0.179 C 
HETATM   23  O2  UNL     1      26.126  -1.666  52.759  1.00  0.00    -0.646 OA
BRANCH  22  24
HETATM   24  O3  UNL     1      26.023  -0.482  54.774  1.00  0.00    -0.773 OA
HETATM   25  H6  UNL     1      25.744  -1.295  55.332  1.00  0.00     0.167 HD
ENDBRANCH  22  24
ENDBRANCH   6  22
BRANCH   1  26
HETATM   26  O1  UNL     1      24.904   6.160  49.365  1.00  0.00    -0.360 OA
HETATM   27  C1  UNL     1      23.916   6.334  48.389  1.00  0.00     0.209 C 
ENDBRANCH   1  26
TORSDOF 5
ENDMDL
MODEL 8
REMARK VINA RESULT:      -7.5      4.090      6.663
REMARK  5 active torsions:
REMARK  status: ('A' for Active; 'I' for Inactive)
REMARK    1  A    between atoms: O1_2  and  C2_3 
REMARK    2  A    between atoms: C6_8  and  C7_9 
REMARK    3  A    between atoms: C7_9  and  O3_11 
REMARK    4  A    between atoms: C8_12  and  N2_13 
REMARK    5  A    between atoms: N2_13  and  C9_14 
ROOT
HETATM    1  C2  UNL     1      27.245  -0.475  53.148  1.00  0.00     0.051 C 
HETATM    2  C3  UNL     1      27.484   0.715  52.582  1.00  0.00     0.065 C 
HETATM    3  C4  UNL     1      26.534   1.644  52.002  1.00  0.00     0.071 A 
HETATM    4  N1  UNL     1      27.033   2.522  51.113  1.00  0.00    -0.259 NA
HETATM    5  C5  UNL     1      26.229   3.426  50.520  1.00  0.00     0.138 A 
HETATM    6  C6  UNL     1      24.875   3.504  50.781  1.00  0.00     0.082 A 
HETATM    7  C8  UNL     1      24.317   2.623  51.686  1.00  0.00     0.063 A 
HETATM    8  C15 UNL     1      25.165   1.700  52.287  1.00  0.00     0.020 A 
HETATM    9  C16 UNL     1      24.387   0.854  53.215  1.00  0.00     0.012 C 
HETATM   10  C17 UNL     1      24.815  -0.348  53.607  1.00  0.00    -0.019 C 
HETATM   11  C18 UNL     1      25.990  -1.221  53.368  1.00  0.00     0.091 C 
ENDROOT
BRANCH   7  12
HETATM   12  N2  UNL     1      22.961   2.622  52.019  1.00  0.00    -0.355 N 
HETATM   13  H7  UNL     1      22.989   3.069  52.961  1.00  0.00     0.166 HD
BRANCH  12  14
HETATM   14  C9  UNL     1      21.770   2.200  51.413  1.00  0.00     0.034 A 
HETATM   15  C10 UNL     1      21.830   1.192  50.471  1.00  0.00     0.032 A 
HETATM   16  C11 UNL     1      20.618   0.821  49.911  1.00  0.00     0.046 A 
HETATM   17  C12 UNL     1      19.413   1.385  50.235  1.00  0.00     0.138 A 
HETATM   18  F1  UNL     1      18.286   0.917  49.598  1.00  0.00    -0.204 F 
HETATM   19  C13 UNL     1      19.382   2.403  51.193  1.00  0.00     0.074 A 
HETATM   20 CL1  UNL     1      17.839   3.120  51.604  1.00  0.00    -0.081 Cl
HETATM   21  C14 UNL     1      20.575   2.793  51.768  1.00  0.00     0.056 A 
ENDBRANCH  12  14
ENDBRANCH   7  12
BRANCH   6  22
HETATM   22  C7  UNL     1      24.020   4.489  50.129  1.00  0.00     0.179 C 
HETATM   23  O2  UNL     1      23.935   4.433  48.874  1.00  0.00    -0.646 OA
BRANCH  22  24
HETATM   24  O3  UNL     1      23.343   5.435  50.904  1.00  0.00    -0.773 OA
HETATM   25  H6  UNL     1      23.861   5.947  51.625  1.00  0.00     0.167 HD
ENDBRANCH  22  24
ENDBRANCH   6  22
BRANCH   1  26
HETATM   26  O1  UNL     1      28.371  -1.136  53.615  1.00  0.00    -0.360 OA
HETATM   27  C1  UNL     1      29.597  -0.472  53.735  1.00  0.00     0.209 C 
ENDBRANCH   1  26
TORSDOF 5
ENDMDL
MODEL 9
REMARK VINA RESULT:      -7.5      3.083      6.177
REMARK  5 active torsions:
REMARK  status: ('A' for Active; 'I' for Inactive)
REMARK    1  A    between atoms: O1_2  and  C2_3 
REMARK    2  A    between atoms: C6_8  and  C7_9 
REMARK    3  A    between atoms: C7_9  and  O3_11 
REMARK    4  A    between atoms: C8_12  and  N2_13 
REMARK    5  A    between atoms: N2_13  and  C9_14 
ROOT
HETATM    1  C2  UNL     1      26.410   6.775  49.330  1.00  0.00     0.051 C 
HETATM    2  C3  UNL     1      25.286   6.964  50.033  1.00  0.00     0.065 C 
HETATM    3  C4  UNL     1      24.272   5.990  50.388  1.00  0.00     0.071 A 
HETATM    4  N1  UNL     1      23.055   6.484  50.684  1.00  0.00    -0.259 NA
HETATM    5  C5  UNL     1      22.047   5.659  51.026  1.00  0.00     0.138 A 
HETATM    6  C6  UNL     1      22.196   4.286  51.092  1.00  0.00     0.082 A 
HETATM    7  C8  UNL     1      23.427   3.733  50.797  1.00  0.00     0.063 A 
HETATM    8  C15 UNL     1      24.453   4.603  50.447  1.00  0.00     0.020 A 
HETATM    9  C16 UNL     1      25.679   3.827  50.172  1.00  0.00     0.012 C 
HETATM   10  C17 UNL     1      26.676   4.316  49.432  1.00  0.00    -0.019 C 
HETATM   11  C18 UNL     1      26.981   5.569  48.699  1.00  0.00     0.091 C 
ENDROOT
BRANCH   7  12
HETATM   12  N2  UNL     1      23.679   2.360  50.837  1.00  0.00    -0.355 N 
HETATM   13  H7  UNL     1      23.530   2.105  49.836  1.00  0.00     0.166 HD
BRANCH  12  14
HETATM   14  C9  UNL     1      24.037   1.424  51.816  1.00  0.00     0.034 A 
HETATM   15  C10 UNL     1      25.377   1.150  52.009  1.00  0.00     0.032 A 
HETATM   16  C11 UNL     1      25.662   0.217  52.992  1.00  0.00     0.046 A 
HETATM   17  C12 UNL     1      24.716  -0.421  53.750  1.00  0.00     0.138 A 
HETATM   18  F1  UNL     1      25.144  -1.328  54.692  1.00  0.00    -0.204 F 
HETATM   19  C13 UNL     1      23.368  -0.124  53.532  1.00  0.00     0.074 A 
HETATM   20 CL1  UNL     1      22.163  -0.942  54.503  1.00  0.00    -0.081 Cl
HETATM   21  C14 UNL     1      23.054   0.803  52.559  1.00  0.00     0.056 A 
ENDBRANCH  12  14
ENDBRANCH   7  12
BRANCH   6  22
HETATM   22  C7  UNL     1      21.093   3.409  51.464  1.00  0.00     0.179 C 
HETATM   23  O2  UNL     1      20.700   2.584  50.598  1.00  0.00    -0.646 OA
BRANCH  22  24
HETATM   24  O3  UNL     1      20.528   3.514  52.738  1.00  0.00    -0.773 OA
HETATM   25  H6  UNL     1      20.013   2.715  53.120  1.00  0.00     0.167 HD
ENDBRANCH  22  24
ENDBRANCH   6  22
BRANCH   1  26
HETATM   26  O1  UNL     1      27.185   7.912  49.154  1.00  0.00    -0.360 OA
HETATM   27  C1  UNL     1      27.160   8.951  50.090  1.00  0.00     0.209 C 
ENDBRANCH   1  26
TORSDOF 5
ENDMDL
