MODEL 1
REMARK VINA RESULT:      -8.4      0.000      0.000
REMARK  4 active torsions:
REMARK  status: ('A' for Active; 'I' for Inactive)
REMARK    1  A    between atoms: C2_2  and  O1_3 
REMARK    2  A    between atoms: O1_3  and  C3_4 
REMARK    3  A    between atoms: C3_4  and  C4_5 
REMARK    4  A    between atoms: N4_24  and  O2_25 
ROOT
HETATM    1  C4  UNL     1      26.245   1.219  53.460  1.00  0.00     0.037 C 
HETATM    2  C5  UNL     1      24.858   0.902  53.769  1.00  0.00     0.001 C 
HETATM    3  C6  UNL     1      23.896   0.955  52.905  1.00  0.00     0.046 C 
HETATM    4  C7  UNL     1      22.553   0.609  53.350  1.00  0.00     0.097 C 
HETATM    5  N1  UNL     1      21.489   0.335  53.699  1.00  0.00    -0.192 NA
HETATM    6  C8  UNL     1      24.289   1.360  51.547  1.00  0.00     0.156 C 
HETATM    7  N2  UNL     1      23.120   1.595  50.688  1.00  0.00    -0.376 N 
HETATM    8  C9  UNL     1      22.498   2.568  49.854  1.00  0.00     0.035 A 
HETATM    9  C10 UNL     1      22.452   2.297  48.506  1.00  0.00     0.030 A 
HETATM   10  C11 UNL     1      21.913   3.161  47.575  1.00  0.00     0.003 A 
HETATM   11  C12 UNL     1      21.427   4.321  48.136  1.00  0.00     0.013 A 
HETATM   12  C13 UNL     1      21.443   4.655  49.495  1.00  0.00    -0.011 A 
HETATM   13  C14 UNL     1      22.010   3.713  50.369  1.00  0.00    -0.024 A 
HETATM   14  C15 UNL     1      21.974   4.128  51.781  1.00  0.00     0.051 C 
HETATM   15  C16 UNL     1      20.890   5.971  49.904  1.00  0.00     0.122 C 
HETATM   16  N3  UNL     1      22.091   6.279  50.160  1.00  0.00    -0.297 NA
HETATM   17  C17 UNL     1      22.657   7.487  50.667  1.00  0.00     0.177 C 
HETATM   18  C18 UNL     1      24.132   7.217  50.872  1.00  0.00     0.014 C 
HETATM   19  C19 UNL     1      24.887   6.166  50.670  1.00  0.00     0.120 C 
HETATM   20  N4  UNL     1      25.097   4.833  50.265  1.00  0.00    -0.247 N 
HETATM   21  C20 UNL     1      25.385   3.663  50.949  1.00  0.00     0.127 C 
HETATM   22  C21 UNL     1      25.283   2.455  51.477  1.00  0.00    -0.034 C 
HETATM   23  C22 UNL     1      26.498   1.972  52.221  1.00  0.00     0.049 C 
HETATM   24  H11 UNL     1      22.479   0.773  50.627  1.00  0.00     0.160 HD
ENDROOT
BRANCH   1  25
HETATM   25  C3  UNL     1      26.977  -0.135  53.354  1.00  0.00     0.176 C 
BRANCH  25  26
HETATM   26  O1  UNL     1      27.505  -0.551  54.552  1.00  0.00    -0.391 OA
BRANCH  26  27
HETATM   27  C2  UNL     1      28.802  -0.028  54.652  1.00  0.00     0.163 C 
HETATM   28  C1  UNL     1      29.733  -0.611  53.632  1.00  0.00     0.033 C 
ENDBRANCH  26  27
ENDBRANCH  25  26
ENDBRANCH   1  25
BRANCH  20  29
HETATM   29  O2  UNL     1      24.962   4.830  48.908  1.00  0.00    -0.284 OA
HETATM   30  H23 UNL     1      24.460   4.022  48.627  1.00  0.00     0.245 HD
ENDBRANCH  20  29
TORSDOF 4
ENDMDL
MODEL 2
REMARK VINA RESULT:      -8.3      2.034      3.963
REMARK  4 active torsions:
REMARK  status: ('A' for Active; 'I' for Inactive)
REMARK    1  A    between atoms: C2_2  and  O1_3 
REMARK    2  A    between atoms: O1_3  and  C3_4 
REMARK    3  A    between atoms: C3_4  and  C4_5 
REMARK    4  A    between atoms: N4_24  and  O2_25 
ROOT
HETATM    1  C4  UNL     1      25.725   0.499  53.044  1.00  0.00     0.037 C 
HETATM    2  C5  UNL     1      26.311   1.154  51.883  1.00  0.00     0.001 C 
HETATM    3  C6  UNL     1      25.920   2.299  51.426  1.00  0.00     0.046 C 
HETATM    4  C7  UNL     1      26.597   2.839  50.255  1.00  0.00     0.097 C 
HETATM    5  N1  UNL     1      27.131   3.269  49.328  1.00  0.00    -0.192 NA
HETATM    6  C8  UNL     1      24.819   2.933  52.169  1.00  0.00     0.156 C 
HETATM    7  N2  UNL     1      24.302   4.118  51.470  1.00  0.00    -0.376 N 
HETATM    8  C9  UNL     1      23.112   4.697  50.941  1.00  0.00     0.035 A 
HETATM    9  C10 UNL     1      22.637   5.826  51.567  1.00  0.00     0.030 A 
HETATM   10  C11 UNL     1      21.479   6.475  51.188  1.00  0.00     0.003 A 
HETATM   11  C12 UNL     1      20.852   5.874  50.120  1.00  0.00     0.013 A 
HETATM   12  C13 UNL     1      21.283   4.728  49.442  1.00  0.00    -0.011 A 
HETATM   13  C14 UNL     1      22.473   4.137  49.897  1.00  0.00    -0.024 A 
HETATM   14  C15 UNL     1      22.870   2.949  49.124  1.00  0.00     0.051 C 
HETATM   15  C16 UNL     1      20.451   4.215  48.323  1.00  0.00     0.122 C 
HETATM   16  N3  UNL     1      20.191   3.249  49.098  1.00  0.00    -0.297 NA
HETATM   17  C17 UNL     1      19.376   2.093  48.908  1.00  0.00     0.177 C 
HETATM   18  C18 UNL     1      19.545   1.239  50.145  1.00  0.00     0.014 C 
HETATM   19  C19 UNL     1      20.240   1.385  51.246  1.00  0.00     0.120 C 
HETATM   20  N4  UNL     1      21.126   2.088  52.084  1.00  0.00    -0.247 N 
HETATM   21  C20 UNL     1      22.440   1.880  52.472  1.00  0.00     0.127 C 
HETATM   22  C21 UNL     1      23.748   2.014  52.616  1.00  0.00    -0.034 C 
HETATM   23  C22 UNL     1      24.410   0.986  53.492  1.00  0.00     0.049 C 
HETATM   24  H11 UNL     1      25.034   4.833  51.270  1.00  0.00     0.160 HD
ENDROOT
BRANCH   1  25
HETATM   25  C3  UNL     1      26.728   0.705  54.198  1.00  0.00     0.176 C 
BRANCH  25  26
HETATM   26  O1  UNL     1      27.456  -0.426  54.478  1.00  0.00    -0.391 OA
BRANCH  26  27
HETATM   27  C2  UNL     1      28.801  -0.048  54.607  1.00  0.00     0.163 C 
HETATM   28  C1  UNL     1      29.682  -0.717  53.598  1.00  0.00     0.033 C 
ENDBRANCH  26  27
ENDBRANCH  25  26
ENDBRANCH   1  25
BRANCH  20  29
HETATM   29  O2  UNL     1      20.431   3.169  52.541  1.00  0.00    -0.284 OA
HETATM   30  H23 UNL     1      19.460   3.020  52.401  1.00  0.00     0.245 HD
ENDBRANCH  20  29
TORSDOF 4
ENDMDL
MODEL 3
REMARK VINA RESULT:      -7.2      7.780     10.114
REMARK  4 active torsions:
REMARK  status: ('A' for Active; 'I' for Inactive)
REMARK    1  A    between atoms: C2_2  and  O1_3 
REMARK    2  A    between atoms: O1_3  and  C3_4 
REMARK    3  A    between atoms: C3_4  and  C4_5 
REMARK    4  A    between atoms: N4_24  and  O2_25 
ROOT
HETATM    1  C4  UNL     1      32.222   3.940  46.310  1.00  0.00     0.037 C 
HETATM    2  C5  UNL     1      32.649   4.894  45.296  1.00  0.00     0.001 C 
HETATM    3  C6  UNL     1      32.714   6.172  45.488  1.00  0.00     0.046 C 
HETATM    4  C7  UNL     1      33.160   7.011  44.385  1.00  0.00     0.097 C 
HETATM    5  N1  UNL     1      33.513   7.679  43.514  1.00  0.00    -0.192 NA
HETATM    6  C8  UNL     1      32.326   6.628  46.832  1.00  0.00     0.156 C 
HETATM    7  N2  UNL     1      32.228   8.093  46.904  1.00  0.00    -0.376 N 
HETATM    8  C9  UNL     1      31.344   9.159  47.242  1.00  0.00     0.035 A 
HETATM    9  C10 UNL     1      31.669   9.909  48.348  1.00  0.00     0.030 A 
HETATM   10  C11 UNL     1      30.891  10.949  48.815  1.00  0.00     0.003 A 
HETATM   11  C12 UNL     1      29.759  11.155  48.059  1.00  0.00     0.013 A 
HETATM   12  C13 UNL     1      29.374  10.428  46.926  1.00  0.00    -0.011 A 
HETATM   13  C14 UNL     1      30.229   9.389  46.524  1.00  0.00    -0.024 A 
HETATM   14  C15 UNL     1      29.766   8.684  45.317  1.00  0.00     0.051 C 
HETATM   15  C16 UNL     1      28.097  10.788  46.258  1.00  0.00     0.122 C 
HETATM   16  N3  UNL     1      27.675   9.679  46.698  1.00  0.00    -0.297 NA
HETATM   17  C17 UNL     1      26.404   9.044  46.564  1.00  0.00     0.177 C 
HETATM   18  C18 UNL     1      26.536   7.681  47.208  1.00  0.00     0.014 C 
HETATM   19  C19 UNL     1      27.522   7.065  47.809  1.00  0.00     0.120 C 
HETATM   20  N4  UNL     1      28.845   6.987  48.286  1.00  0.00    -0.247 N 
HETATM   21  C20 UNL     1      29.959   6.262  47.894  1.00  0.00     0.127 C 
HETATM   22  C21 UNL     1      31.151   5.943  47.418  1.00  0.00    -0.034 C 
HETATM   23  C22 UNL     1      31.497   4.480  47.471  1.00  0.00     0.049 C 
HETATM   24  H11 UNL     1      33.104   8.581  46.617  1.00  0.00     0.160 HD
ENDROOT
BRANCH   1  25
HETATM   25  C3  UNL     1      33.510   3.263  46.824  1.00  0.00     0.176 C 
BRANCH  25  26
HETATM   26  O1  UNL     1      33.830   3.633  48.107  1.00  0.00    -0.391 OA
BRANCH  26  27
HETATM   27  C2  UNL     1      35.092   4.244  48.074  1.00  0.00     0.163 C 
HETATM   28  C1  UNL     1      35.115   5.548  48.812  1.00  0.00     0.033 C 
ENDBRANCH  26  27
ENDBRANCH  25  26
ENDBRANCH   1  25
BRANCH  20  29
HETATM   29  O2  UNL     1      28.911   7.842  49.346  1.00  0.00    -0.284 OA
HETATM   30  H23 UNL     1      28.016   7.918  49.767  1.00  0.00     0.245 HD
ENDBRANCH  20  29
TORSDOF 4
ENDMDL
MODEL 4
REMARK VINA RESULT:      -7.1      2.558      4.591
REMARK  4 active torsions:
REMARK  status: ('A' for Active; 'I' for Inactive)
REMARK    1  A    between atoms: C2_2  and  O1_3 
REMARK    2  A    between atoms: O1_3  and  C3_4 
REMARK    3  A    between atoms: C3_4  and  C4_5 
REMARK    4  A    between atoms: N4_24  and  O2_25 
ROOT
HETATM    1  C4  UNL     1      23.223   0.204  52.709  1.00  0.00     0.037 C 
HETATM    2  C5  UNL     1      24.585   0.642  52.440  1.00  0.00     0.001 C 
HETATM    3  C6  UNL     1      24.930   1.879  52.286  1.00  0.00     0.046 C 
HETATM    4  C7  UNL     1      26.331   2.175  52.023  1.00  0.00     0.097 C 
HETATM    5  N1  UNL     1      27.440   2.413  51.815  1.00  0.00    -0.192 NA
HETATM    6  C8  UNL     1      23.837   2.858  52.405  1.00  0.00     0.156 C 
HETATM    7  N2  UNL     1      24.269   4.207  52.015  1.00  0.00    -0.376 N 
HETATM    8  C9  UNL     1      23.967   5.289  51.138  1.00  0.00     0.035 A 
HETATM    9  C10 UNL     1      23.512   6.451  51.715  1.00  0.00     0.030 A 
HETATM   10  C11 UNL     1      23.148   7.568  50.991  1.00  0.00     0.003 A 
HETATM   11  C12 UNL     1      23.288   7.396  49.632  1.00  0.00     0.013 A 
HETATM   12  C13 UNL     1      23.744   6.241  48.984  1.00  0.00    -0.011 A 
HETATM   13  C14 UNL     1      24.094   5.156  49.804  1.00  0.00    -0.024 A 
HETATM   14  C15 UNL     1      24.579   3.987  49.051  1.00  0.00     0.051 C 
HETATM   15  C16 UNL     1      23.800   6.242  47.500  1.00  0.00     0.122 C 
HETATM   16  N3  UNL     1      22.842   5.418  47.567  1.00  0.00    -0.297 NA
HETATM   17  C17 UNL     1      22.110   4.751  46.540  1.00  0.00     0.177 C 
HETATM   18  C18 UNL     1      21.160   3.801  47.236  1.00  0.00     0.014 C 
HETATM   19  C19 UNL     1      20.925   3.533  48.496  1.00  0.00     0.120 C 
HETATM   20  N4  UNL     1      21.146   3.706  49.876  1.00  0.00    -0.247 N 
HETATM   21  C20 UNL     1      21.726   2.916  50.855  1.00  0.00     0.127 C 
HETATM   22  C21 UNL     1      22.559   2.457  51.775  1.00  0.00    -0.034 C 
HETATM   23  C22 UNL     1      22.146   1.170  52.436  1.00  0.00     0.049 C 
HETATM   24  H11 UNL     1      25.095   4.550  52.553  1.00  0.00     0.160 HD
ENDROOT
BRANCH   1  25
HETATM   25  C3  UNL     1      23.178  -0.148  54.210  1.00  0.00     0.176 C 
BRANCH  25  26
HETATM   26  O1  UNL     1      21.898  -0.208  54.705  1.00  0.00    -0.391 OA
BRANCH  26  27
HETATM   27  C2  UNL     1      21.442  -1.526  54.551  1.00  0.00     0.163 C 
HETATM   28  C1  UNL     1      20.093  -1.591  53.902  1.00  0.00     0.033 C 
ENDBRANCH  26  27
ENDBRANCH  25  26
ENDBRANCH   1  25
BRANCH  20  29
HETATM   29  O2  UNL     1      20.643   4.935  50.184  1.00  0.00    -0.284 OA
HETATM   30  H23 UNL     1      20.710   5.085  51.162  1.00  0.00     0.245 HD
ENDBRANCH  20  29
TORSDOF 4
ENDMDL
MODEL 5
REMARK VINA RESULT:      -7.0      4.514      7.161
REMARK  4 active torsions:
REMARK  status: ('A' for Active; 'I' for Inactive)
REMARK    1  A    between atoms: C2_2  and  O1_3 
REMARK    2  A    between atoms: O1_3  and  C3_4 
REMARK    3  A    between atoms: C3_4  and  C4_5 
REMARK    4  A    between atoms: N4_24  and  O2_25 
ROOT
HETATM    1  C4  UNL     1      25.952   4.023  50.135  1.00  0.00     0.037 C 
HETATM    2  C5  UNL     1      25.087   5.126  50.531  1.00  0.00     0.001 C 
HETATM    3  C6  UNL     1      24.915   6.198  49.828  1.00  0.00     0.046 C 
HETATM    4  C7  UNL     1      24.019   7.222  50.343  1.00  0.00     0.097 C 
HETATM    5  N1  UNL     1      23.310   8.036  50.749  1.00  0.00    -0.192 NA
HETATM    6  C8  UNL     1      25.659   6.245  48.559  1.00  0.00     0.156 C 
HETATM    7  N2  UNL     1      25.574   7.569  47.926  1.00  0.00    -0.376 N 
HETATM    8  C9  UNL     1      26.364   8.640  47.418  1.00  0.00     0.035 A 
HETATM    9  C10 UNL     1      26.324   8.854  46.060  1.00  0.00     0.030 A 
HETATM   10  C11 UNL     1      27.063   9.831  45.423  1.00  0.00     0.003 A 
HETATM   11  C12 UNL     1      27.842  10.566  46.288  1.00  0.00     0.013 A 
HETATM   12  C13 UNL     1      27.926  10.397  47.675  1.00  0.00    -0.011 A 
HETATM   13  C14 UNL     1      27.137   9.380  48.235  1.00  0.00    -0.024 A 
HETATM   14  C15 UNL     1      27.267   9.277  49.698  1.00  0.00     0.051 C 
HETATM   15  C16 UNL     1      28.848  11.278  48.437  1.00  0.00     0.122 C 
HETATM   16  N3  UNL     1      29.540  10.232  48.607  1.00  0.00    -0.297 NA
HETATM   17  C17 UNL     1      30.769  10.028  49.302  1.00  0.00     0.177 C 
HETATM   18  C18 UNL     1      31.046   8.541  49.257  1.00  0.00     0.014 C 
HETATM   19  C19 UNL     1      30.408   7.526  48.730  1.00  0.00     0.120 C 
HETATM   20  N4  UNL     1      29.341   6.954  48.011  1.00  0.00    -0.247 N 
HETATM   21  C20 UNL     1      28.270   6.151  48.370  1.00  0.00     0.127 C 
HETATM   22  C21 UNL     1      27.044   5.724  48.618  1.00  0.00    -0.034 C 
HETATM   23  C22 UNL     1      26.939   4.295  49.078  1.00  0.00     0.049 C 
HETATM   24  H11 UNL     1      24.594   7.886  47.759  1.00  0.00     0.160 HD
ENDROOT
BRANCH   1  25
HETATM   25  C3  UNL     1      25.012   2.906  49.635  1.00  0.00     0.176 C 
BRANCH  25  26
HETATM   26  O1  UNL     1      24.079   2.535  50.573  1.00  0.00    -0.391 OA
BRANCH  26  27
HETATM   27  C2  UNL     1      22.870   2.300  49.903  1.00  0.00     0.163 C 
HETATM   28  C1  UNL     1      22.917   2.736  48.470  1.00  0.00     0.033 C 
ENDBRANCH  26  27
ENDBRANCH  25  26
ENDBRANCH   1  25
BRANCH  20  29
HETATM   29  O2  UNL     1      29.513   7.344  46.716  1.00  0.00    -0.284 OA
HETATM   30  H23 UNL     1      28.860   6.871  46.138  1.00  0.00     0.245 HD
ENDBRANCH  20  29
TORSDOF 4
ENDMDL
MODEL 6
REMARK VINA RESULT:      -7.0      2.467      3.053
REMARK  4 active torsions:
REMARK  status: ('A' for Active; 'I' for Inactive)
REMARK    1  A    between atoms: C2_2  and  O1_3 
REMARK    2  A    between atoms: O1_3  and  C3_4 
REMARK    3  A    between atoms: C3_4  and  C4_5 
REMARK    4  A    between atoms: N4_24  and  O2_25 
ROOT
HETATM    1  C4  UNL     1      22.921   1.135  53.105  1.00  0.00     0.037 C 
HETATM    2  C5  UNL     1      21.505   1.366  52.855  1.00  0.00     0.001 C 
HETATM    3  C6  UNL     1      21.027   1.764  51.721  1.00  0.00     0.046 C 
HETATM    4  C7  UNL     1      19.588   1.954  51.610  1.00  0.00     0.097 C 
HETATM    5  N1  UNL     1      18.448   2.105  51.519  1.00  0.00    -0.192 NA
HETATM    6  C8  UNL     1      22.021   1.971  50.655  1.00  0.00     0.156 C 
HETATM    7  N2  UNL     1      21.428   2.615  49.474  1.00  0.00    -0.376 N 
HETATM    8  C9  UNL     1      21.555   3.738  48.607  1.00  0.00     0.035 A 
HETATM    9  C10 UNL     1      21.930   3.483  47.308  1.00  0.00     0.030 A 
HETATM   10  C11 UNL     1      22.126   4.472  46.366  1.00  0.00     0.003 A 
HETATM   11  C12 UNL     1      21.907   5.737  46.862  1.00  0.00     0.013 A 
HETATM   12  C13 UNL     1      21.524   6.062  48.169  1.00  0.00    -0.011 A 
HETATM   13  C14 UNL     1      21.346   4.989  49.058  1.00  0.00    -0.024 A 
HETATM   14  C15 UNL     1      20.928   5.409  50.405  1.00  0.00     0.051 C 
HETATM   15  C16 UNL     1      21.360   7.496  48.520  1.00  0.00     0.122 C 
HETATM   16  N3  UNL     1      22.400   7.334  49.224  1.00  0.00    -0.297 NA
HETATM   17  C17 UNL     1      23.119   8.248  50.051  1.00  0.00     0.177 C 
HETATM   18  C18 UNL     1      24.208   7.447  50.730  1.00  0.00     0.014 C 
HETATM   19  C19 UNL     1      24.560   6.187  50.677  1.00  0.00     0.120 C 
HETATM   20  N4  UNL     1      24.423   4.867  50.205  1.00  0.00    -0.247 N 
HETATM   21  C20 UNL     1      23.997   3.685  50.789  1.00  0.00     0.127 C 
HETATM   22  C21 UNL     1      23.284   2.611  51.086  1.00  0.00    -0.034 C 
HETATM   23  C22 UNL     1      23.872   1.719  52.145  1.00  0.00     0.049 C 
HETATM   24  H11 UNL     1      20.613   2.093  49.084  1.00  0.00     0.160 HD
ENDROOT
BRANCH   1  25
HETATM   25  C3  UNL     1      23.109  -0.396  53.092  1.00  0.00     0.176 C 
BRANCH  25  26
HETATM   26  O1  UNL     1      23.729  -0.866  54.224  1.00  0.00    -0.391 OA
BRANCH  26  27
HETATM   27  C2  UNL     1      22.730  -1.214  55.145  1.00  0.00     0.163 C 
HETATM   28  C1  UNL     1      21.565  -1.893  54.493  1.00  0.00     0.033 C 
ENDBRANCH  26  27
ENDBRANCH  25  26
ENDBRANCH   1  25
BRANCH  20  29
HETATM   29  O2  UNL     1      24.820   4.894  48.900  1.00  0.00    -0.284 OA
HETATM   30  H23 UNL     1      24.083   5.247  48.337  1.00  0.00     0.245 HD
ENDBRANCH  20  29
TORSDOF 4
ENDMDL
MODEL 7
REMARK VINA RESULT:      -6.7      6.490      9.467
REMARK  4 active torsions:
REMARK  status: ('A' for Active; 'I' for Inactive)
REMARK    1  A    between atoms: C2_2  and  O1_3 
REMARK    2  A    between atoms: O1_3  and  C3_4 
REMARK    3  A    between atoms: C3_4  and  C4_5 
REMARK    4  A    between atoms: N4_24  and  O2_25 
ROOT
HETATM    1  C4  UNL     1      26.474   5.937  49.452  1.00  0.00     0.037 C 
HETATM    2  C5  UNL     1      26.471   7.392  49.511  1.00  0.00     0.001 C 
HETATM    3  C6  UNL     1      27.064   8.151  48.647  1.00  0.00     0.046 C 
HETATM    4  C7  UNL     1      26.978   9.593  48.826  1.00  0.00     0.097 C 
HETATM    5  N1  UNL     1      26.912  10.736  48.964  1.00  0.00    -0.192 NA
HETATM    6  C8  UNL     1      27.761   7.445  47.560  1.00  0.00     0.156 C 
HETATM    7  N2  UNL     1      28.574   8.361  46.748  1.00  0.00    -0.376 N 
HETATM    8  C9  UNL     1      29.897   8.587  46.269  1.00  0.00     0.035 A 
HETATM    9  C10 UNL     1      30.099   8.459  44.914  1.00  0.00     0.030 A 
HETATM   10  C11 UNL     1      31.331   8.614  44.312  1.00  0.00     0.003 A 
HETATM   11  C12 UNL     1      32.334   8.910  45.208  1.00  0.00     0.013 A 
HETATM   12  C13 UNL     1      32.192   9.054  46.593  1.00  0.00    -0.011 A 
HETATM   13  C14 UNL     1      30.901   8.880  47.117  1.00  0.00    -0.024 A 
HETATM   14  C15 UNL     1      30.830   9.064  48.575  1.00  0.00     0.051 C 
HETATM   15  C16 UNL     1      33.405   9.351  47.398  1.00  0.00     0.122 C 
HETATM   16  N3  UNL     1      33.269   8.175  47.846  1.00  0.00    -0.297 NA
HETATM   17  C17 UNL     1      34.041   7.443  48.796  1.00  0.00     0.177 C 
HETATM   18  C18 UNL     1      33.323   6.129  49.012  1.00  0.00     0.014 C 
HETATM   19  C19 UNL     1      32.228   5.613  48.512  1.00  0.00     0.120 C 
HETATM   20  N4  UNL     1      31.095   5.648  47.676  1.00  0.00    -0.247 N 
HETATM   21  C20 UNL     1      29.736   5.761  47.918  1.00  0.00     0.127 C 
HETATM   22  C21 UNL     1      28.499   6.228  47.969  1.00  0.00    -0.034 C 
HETATM   23  C22 UNL     1      27.486   5.306  48.589  1.00  0.00     0.049 C 
HETATM   24  H11 UNL     1      28.027   9.153  46.345  1.00  0.00     0.160 HD
ENDROOT
BRANCH   1  25
HETATM   25  C3  UNL     1      25.080   5.530  48.930  1.00  0.00     0.176 C 
BRANCH  25  26
HETATM   26  O1  UNL     1      24.124   5.521  49.916  1.00  0.00    -0.391 OA
BRANCH  26  27
HETATM   27  C2  UNL     1      24.041   4.214  50.419  1.00  0.00     0.163 C 
HETATM   28  C1  UNL     1      23.932   3.190  49.331  1.00  0.00     0.033 C 
ENDBRANCH  26  27
ENDBRANCH  25  26
ENDBRANCH   1  25
BRANCH  20  29
HETATM   29  O2  UNL     1      31.567   5.542  46.401  1.00  0.00    -0.284 OA
HETATM   30  H23 UNL     1      32.482   5.924  46.354  1.00  0.00     0.245 HD
ENDBRANCH  20  29
TORSDOF 4
ENDMDL
MODEL 8
REMARK VINA RESULT:      -6.7      7.639     11.724
REMARK  4 active torsions:
REMARK  status: ('A' for Active; 'I' for Inactive)
REMARK    1  A    between atoms: C2_2  and  O1_3 
REMARK    2  A    between atoms: O1_3  and  C3_4 
REMARK    3  A    between atoms: C3_4  and  C4_5 
REMARK    4  A    between atoms: N4_24  and  O2_25 
ROOT
HETATM    1  C4  UNL     1      29.187  13.444  46.069  1.00  0.00     0.037 C 
HETATM    2  C5  UNL     1      28.950  12.543  44.949  1.00  0.00     0.001 C 
HETATM    3  C6  UNL     1      28.300  11.428  45.044  1.00  0.00     0.046 C 
HETATM    4  C7  UNL     1      28.136  10.624  43.842  1.00  0.00     0.097 C 
HETATM    5  N1  UNL     1      28.003   9.985  42.891  1.00  0.00    -0.192 NA
HETATM    6  C8  UNL     1      27.789  11.108  46.387  1.00  0.00     0.156 C 
HETATM    7  N2  UNL     1      27.250   9.743  46.453  1.00  0.00    -0.376 N 
HETATM    8  C9  UNL     1      27.361   8.509  47.158  1.00  0.00     0.035 A 
HETATM    9  C10 UNL     1      26.285   8.132  47.927  1.00  0.00     0.030 A 
HETATM   10  C11 UNL     1      26.262   6.982  48.690  1.00  0.00     0.003 A 
HETATM   11  C12 UNL     1      27.428   6.255  48.600  1.00  0.00     0.013 A 
HETATM   12  C13 UNL     1      28.554   6.584  47.837  1.00  0.00    -0.011 A 
HETATM   13  C14 UNL     1      28.485   7.771  47.091  1.00  0.00    -0.024 A 
HETATM   14  C15 UNL     1      29.699   8.039  46.303  1.00  0.00     0.051 C 
HETATM   15  C16 UNL     1      29.731   5.679  47.891  1.00  0.00     0.122 C 
HETATM   16  N3  UNL     1      30.297   6.622  48.517  1.00  0.00    -0.297 NA
HETATM   17  C17 UNL     1      31.612   6.726  49.060  1.00  0.00     0.177 C 
HETATM   18  C18 UNL     1      31.748   8.136  49.591  1.00  0.00     0.014 C 
HETATM   19  C19 UNL     1      30.933   9.160  49.633  1.00  0.00     0.120 C 
HETATM   20  N4  UNL     1      29.698   9.790  49.382  1.00  0.00    -0.247 N 
HETATM   21  C20 UNL     1      29.296  10.783  48.505  1.00  0.00     0.127 C 
HETATM   22  C21 UNL     1      28.710  11.419  47.504  1.00  0.00    -0.034 C 
HETATM   23  C22 UNL     1      28.995  12.893  47.420  1.00  0.00     0.049 C 
HETATM   24  H11 UNL     1      26.501   9.558  45.750  1.00  0.00     0.160 HD
ENDROOT
BRANCH   1  25
HETATM   25  C3  UNL     1      28.201  14.616  45.886  1.00  0.00     0.176 C 
BRANCH  25  26
HETATM   26  O1  UNL     1      28.455  15.663  46.738  1.00  0.00    -0.391 OA
BRANCH  26  27
HETATM   27  C2  UNL     1      28.718  16.797  45.956  1.00  0.00     0.163 C 
HETATM   28  C1  UNL     1      30.166  16.913  45.588  1.00  0.00     0.033 C 
ENDBRANCH  26  27
ENDBRANCH  25  26
ENDBRANCH   1  25
BRANCH  20  29
HETATM   29  O2  UNL     1      28.806   9.216  50.239  1.00  0.00    -0.284 OA
HETATM   30  H23 UNL     1      28.643   8.276  49.967  1.00  0.00     0.245 HD
ENDBRANCH  20  29
TORSDOF 4
ENDMDL
MODEL 9
REMARK VINA RESULT:      -6.6      5.997      7.996
REMARK  4 active torsions:
REMARK  status: ('A' for Active; 'I' for Inactive)
REMARK    1  A    between atoms: C2_2  and  O1_3 
REMARK    2  A    between atoms: O1_3  and  C3_4 
REMARK    3  A    between atoms: C3_4  and  C4_5 
REMARK    4  A    between atoms: N4_24  and  O2_25 
ROOT
HETATM    1  C4  UNL     1      21.387  -0.155  51.957  1.00  0.00     0.037 C 
HETATM    2  C5  UNL     1      21.158   0.536  50.696  1.00  0.00     0.001 C 
HETATM    3  C6  UNL     1      20.140   1.299  50.465  1.00  0.00     0.046 C 
HETATM    4  C7  UNL     1      20.036   1.930  49.157  1.00  0.00     0.097 C 
HETATM    5  N1  UNL     1      19.952   2.432  48.122  1.00  0.00    -0.192 NA
HETATM    6  C8  UNL     1      19.193   1.444  51.582  1.00  0.00     0.156 C 
HETATM    7  N2  UNL     1      17.971   2.151  51.174  1.00  0.00    -0.376 N 
HETATM    8  C9  UNL     1      16.551   2.039  51.134  1.00  0.00     0.035 A 
HETATM    9  C10 UNL     1      15.836   2.892  51.942  1.00  0.00     0.030 A 
HETATM   10  C11 UNL     1      14.459   2.875  52.035  1.00  0.00     0.003 A 
HETATM   11  C12 UNL     1      13.879   1.916  51.235  1.00  0.00     0.013 A 
HETATM   12  C13 UNL     1      14.549   1.022  50.393  1.00  0.00    -0.011 A 
HETATM   13  C14 UNL     1      15.950   1.114  50.362  1.00  0.00    -0.024 A 
HETATM   14  C15 UNL     1      16.580   0.153  49.442  1.00  0.00     0.051 C 
HETATM   15  C16 UNL     1      13.743   0.039  49.623  1.00  0.00     0.122 C 
HETATM   16  N3  UNL     1      14.255  -0.826  50.392  1.00  0.00    -0.297 NA
HETATM   17  C17 UNL     1      14.084  -2.241  50.451  1.00  0.00     0.177 C 
HETATM   18  C18 UNL     1      15.045  -2.747  51.503  1.00  0.00     0.014 C 
HETATM   19  C19 UNL     1      15.909  -2.153  52.288  1.00  0.00     0.120 C 
HETATM   20  N4  UNL     1      16.574  -1.015  52.786  1.00  0.00    -0.247 N 
HETATM   21  C20 UNL     1      17.869  -0.540  52.667  1.00  0.00     0.127 C 
HETATM   22  C21 UNL     1      18.914   0.202  52.339  1.00  0.00    -0.034 C 
HETATM   23  C22 UNL     1      20.238  -0.277  52.869  1.00  0.00     0.049 C 
HETATM   24  H11 UNL     1      18.156   3.091  50.758  1.00  0.00     0.160 HD
ENDROOT
BRANCH   1  25
HETATM   25  C3  UNL     1      22.490   0.642  52.684  1.00  0.00     0.176 C 
BRANCH  25  26
HETATM   26  O1  UNL     1      22.913   0.033  53.840  1.00  0.00    -0.391 OA
BRANCH  26  27
HETATM   27  C2  UNL     1      24.150  -0.574  53.577  1.00  0.00     0.163 C 
HETATM   28  C1  UNL     1      25.123   0.369  52.939  1.00  0.00     0.033 C 
ENDBRANCH  26  27
ENDBRANCH  25  26
ENDBRANCH   1  25
BRANCH  20  29
HETATM   29  O2  UNL     1      15.646  -0.329  53.512  1.00  0.00    -0.284 OA
HETATM   30  H23 UNL     1      14.749  -0.725  53.361  1.00  0.00     0.245 HD
ENDBRANCH  20  29
TORSDOF 4
ENDMDL
