MODEL 1
REMARK VINA RESULT:      -9.3      0.000      0.000
REMARK  1 active torsions:
REMARK  status: ('A' for Active; 'I' for Inactive)
REMARK    1  A    between atoms: C1_2  and  C2_5 
ROOT
HETATM    1  C2  UNL     1      17.800   0.332  51.849  1.00  0.00     0.057 A 
HETATM    2  C3  UNL     1      16.639  -0.421  52.068  1.00  0.00     0.017 A 
HETATM    3  C4  UNL     1      16.577  -1.556  52.839  1.00  0.00     0.003 A 
HETATM    4  C5  UNL     1      17.738  -1.993  53.447  1.00  0.00     0.030 A 
HETATM    5  C6  UNL     1      18.877  -1.244  53.227  1.00  0.00     0.041 A 
HETATM    6  C7  UNL     1      18.979  -0.103  52.459  1.00  0.00    -0.004 A 
HETATM    7  C8  UNL     1      20.352   0.381  52.457  1.00  0.00     0.102 A 
HETATM    8  C9  UNL     1      21.119   0.125  51.159  1.00  0.00     0.111 C 
HETATM    9  C10 UNL     1      22.237   1.012  51.026  1.00  0.00    -0.105 C 
HETATM   10  C11 UNL     1      23.115   1.733  50.915  1.00  0.00    -0.106 C 
HETATM   11  C12 UNL     1      24.178   2.603  50.758  1.00  0.00     0.053 C 
HETATM   12  C13 UNL     1      25.340   2.196  51.300  1.00  0.00     0.052 C 
HETATM   13  C14 UNL     1      26.748   2.618  51.472  1.00  0.00     0.001 C 
HETATM   14  C15 UNL     1      27.157   1.511  52.175  1.00  0.00    -0.005 C 
HETATM   15  C16 UNL     1      28.054   0.615  52.898  1.00  0.00     0.007 C 
HETATM   16  C17 UNL     1      27.776   0.331  54.334  1.00  0.00     0.022 C 
HETATM   17  C18 UNL     1      26.531  -0.431  54.624  1.00  0.00     0.141 C 
HETATM   18  N1  UNL     1      25.355   0.283  54.280  1.00  0.00    -0.313 N 
HETATM   19  N2  UNL     1      24.372  -0.597  54.708  1.00  0.00    -0.173 NA
HETATM   20  C19 UNL     1      23.162  -0.680  54.376  1.00  0.00     0.256 C 
HETATM   21  N3  UNL     1      22.222  -0.053  53.526  1.00  0.00    -0.226 NA
HETATM   22  C20 UNL     1      21.032  -0.546  53.437  1.00  0.00     0.115 A 
HETATM   23  N4  UNL     1      20.118  -1.551  53.844  1.00  0.00    -0.343 N 
HETATM   24  H17 UNL     1      24.896   1.120  53.882  1.00  0.00     0.182 HD
HETATM   25  H19 UNL     1      20.510  -2.277  54.479  1.00  0.00     0.167 HD
ENDROOT
BRANCH   1  26
HETATM   26  C1  UNL     1      17.721   1.547  51.007  1.00  0.00     0.418 C 
HETATM   27  F1  UNL     1      18.047   2.687  51.720  1.00  0.00    -0.166 F 
HETATM   28  F2  UNL     1      16.362   1.734  50.665  1.00  0.00    -0.166 F 
HETATM   29  F3  UNL     1      18.360   1.434  49.812  1.00  0.00    -0.166 F 
ENDBRANCH   1  26
TORSDOF 1
ENDMDL
MODEL 2
REMARK VINA RESULT:      -9.2      5.417      8.615
REMARK  1 active torsions:
REMARK  status: ('A' for Active; 'I' for Inactive)
REMARK    1  A    between atoms: C1_2  and  C2_5 
ROOT
HETATM    1  C2  UNL     1      26.437   7.106  47.937  1.00  0.00     0.057 A 
HETATM    2  C3  UNL     1      26.098   8.057  46.967  1.00  0.00     0.017 A 
HETATM    3  C4  UNL     1      24.818   8.315  46.537  1.00  0.00     0.003 A 
HETATM    4  C5  UNL     1      23.786   7.591  47.099  1.00  0.00     0.030 A 
HETATM    5  C6  UNL     1      24.129   6.655  48.056  1.00  0.00     0.041 A 
HETATM    6  C7  UNL     1      25.399   6.367  48.509  1.00  0.00    -0.004 A 
HETATM    7  C8  UNL     1      25.348   5.305  49.504  1.00  0.00     0.102 A 
HETATM    8  C9  UNL     1      25.831   3.940  49.010  1.00  0.00     0.111 C 
HETATM    9  C10 UNL     1      26.215   3.093  50.100  1.00  0.00    -0.105 C 
HETATM   10  C11 UNL     1      26.539   2.428  50.970  1.00  0.00    -0.106 C 
HETATM   11  C12 UNL     1      26.944   1.611  52.008  1.00  0.00     0.053 C 
HETATM   12  C13 UNL     1      25.976   0.855  52.557  1.00  0.00     0.052 C 
HETATM   13  C14 UNL     1      25.755  -0.156  53.616  1.00  0.00     0.001 C 
HETATM   14  C15 UNL     1      24.410  -0.321  53.395  1.00  0.00    -0.005 C 
HETATM   15  C16 UNL     1      23.059  -0.846  53.567  1.00  0.00     0.007 C 
HETATM   16  C17 UNL     1      21.976   0.089  53.985  1.00  0.00     0.022 C 
HETATM   17  C18 UNL     1      21.607   1.147  53.005  1.00  0.00     0.141 C 
HETATM   18  N1  UNL     1      22.656   2.071  52.770  1.00  0.00    -0.313 N 
HETATM   19  N2  UNL     1      22.040   2.962  51.903  1.00  0.00    -0.173 NA
HETATM   20  C19 UNL     1      22.544   3.783  51.095  1.00  0.00     0.256 C 
HETATM   21  N3  UNL     1      23.809   4.230  50.646  1.00  0.00    -0.226 NA
HETATM   22  C20 UNL     1      23.863   5.090  49.686  1.00  0.00     0.115 A 
HETATM   23  N4  UNL     1      23.156   5.891  48.752  1.00  0.00    -0.343 N 
HETATM   24  H17 UNL     1      23.626   2.391  52.935  1.00  0.00     0.182 HD
HETATM   25  H19 UNL     1      22.122   5.770  48.757  1.00  0.00     0.167 HD
ENDROOT
BRANCH   1  26
HETATM   26  C1  UNL     1      27.857   6.942  48.318  1.00  0.00     0.418 C 
HETATM   27  F1  UNL     1      28.217   7.803  49.340  1.00  0.00    -0.166 F 
HETATM   28  F2  UNL     1      28.640   7.368  47.220  1.00  0.00    -0.166 F 
HETATM   29  F3  UNL     1      28.230   5.650  48.519  1.00  0.00    -0.166 F 
ENDBRANCH   1  26
TORSDOF 1
ENDMDL
MODEL 3
REMARK VINA RESULT:      -9.1      4.482      6.650
REMARK  1 active torsions:
REMARK  status: ('A' for Active; 'I' for Inactive)
REMARK    1  A    between atoms: C1_2  and  C2_5 
ROOT
HETATM    1  C2  UNL     1      23.413  -0.374  53.720  1.00  0.00     0.057 A 
HETATM    2  C3  UNL     1      22.672  -1.242  54.533  1.00  0.00     0.017 A 
HETATM    3  C4  UNL     1      21.304  -1.376  54.492  1.00  0.00     0.003 A 
HETATM    4  C5  UNL     1      20.603  -0.604  53.586  1.00  0.00     0.030 A 
HETATM    5  C6  UNL     1      21.342   0.247  52.789  1.00  0.00     0.041 A 
HETATM    6  C7  UNL     1      22.711   0.411  52.803  1.00  0.00    -0.004 A 
HETATM    7  C8  UNL     1      23.108   1.417  51.828  1.00  0.00     0.102 A 
HETATM    8  C9  UNL     1      23.512   2.765  52.428  1.00  0.00     0.111 C 
HETATM    9  C10 UNL     1      24.328   3.519  51.522  1.00  0.00    -0.105 C 
HETATM   10  C11 UNL     1      24.994   4.108  50.806  1.00  0.00    -0.106 C 
HETATM   11  C12 UNL     1      25.808   4.832  49.956  1.00  0.00     0.053 C 
HETATM   12  C13 UNL     1      25.166   5.630  49.084  1.00  0.00     0.052 C 
HETATM   13  C14 UNL     1      25.421   6.596  47.992  1.00  0.00     0.001 C 
HETATM   14  C15 UNL     1      24.104   6.877  47.722  1.00  0.00    -0.005 C 
HETATM   15  C16 UNL     1      22.952   7.496  47.075  1.00  0.00     0.007 C 
HETATM   16  C17 UNL     1      22.000   6.627  46.325  1.00  0.00     0.022 C 
HETATM   17  C18 UNL     1      21.218   5.657  47.138  1.00  0.00     0.141 C 
HETATM   18  N1  UNL     1      22.030   4.667  47.749  1.00  0.00    -0.313 N 
HETATM   19  N2  UNL     1      21.071   3.877  48.366  1.00  0.00    -0.173 NA
HETATM   20  C19 UNL     1      21.185   3.064  49.319  1.00  0.00     0.256 C 
HETATM   21  N3  UNL     1      22.168   2.544  50.193  1.00  0.00    -0.226 NA
HETATM   22  C20 UNL     1      21.805   1.737  51.132  1.00  0.00     0.115 A 
HETATM   23  N4  UNL     1      20.747   1.046  51.777  1.00  0.00    -0.343 N 
HETATM   24  H17 UNL     1      22.963   4.264  47.943  1.00  0.00     0.182 HD
HETATM   25  H19 UNL     1      19.795   1.248  51.407  1.00  0.00     0.167 HD
ENDROOT
BRANCH   1  26
HETATM   26  C1  UNL     1      24.885  -0.343  53.858  1.00  0.00     0.418 C 
HETATM   27  F1  UNL     1      25.516  -0.920  52.770  1.00  0.00    -0.166 F 
HETATM   28  F2  UNL     1      25.226  -1.190  54.939  1.00  0.00    -0.166 F 
HETATM   29  F3  UNL     1      25.382   0.873  54.211  1.00  0.00    -0.166 F 
ENDBRANCH   1  26
TORSDOF 1
ENDMDL
MODEL 4
REMARK VINA RESULT:      -9.0      4.331      7.117
REMARK  1 active torsions:
REMARK  status: ('A' for Active; 'I' for Inactive)
REMARK    1  A    between atoms: C1_2  and  C2_5 
ROOT
HETATM    1  C2  UNL     1      24.951  -0.089  54.181  1.00  0.00     0.057 A 
HETATM    2  C3  UNL     1      24.801  -0.938  55.286  1.00  0.00     0.017 A 
HETATM    3  C4  UNL     1      23.621  -1.538  55.656  1.00  0.00     0.003 A 
HETATM    4  C5  UNL     1      22.499  -1.294  54.889  1.00  0.00     0.030 A 
HETATM    5  C6  UNL     1      22.657  -0.456  53.802  1.00  0.00     0.041 A 
HETATM    6  C7  UNL     1      23.820   0.165  53.401  1.00  0.00    -0.004 A 
HETATM    7  C8  UNL     1      23.574   0.983  52.222  1.00  0.00     0.102 A 
HETATM    8  C9  UNL     1      23.533   2.489  52.485  1.00  0.00     0.111 C 
HETATM    9  C10 UNL     1      23.775   3.238  51.288  1.00  0.00    -0.105 C 
HETATM   10  C11 UNL     1      23.987   3.830  50.335  1.00  0.00    -0.106 C 
HETATM   11  C12 UNL     1      24.252   4.565  49.195  1.00  0.00     0.053 C 
HETATM   12  C13 UNL     1      23.179   4.862  48.440  1.00  0.00     0.052 C 
HETATM   13  C14 UNL     1      22.797   5.567  47.195  1.00  0.00     0.001 C 
HETATM   14  C15 UNL     1      21.451   5.307  47.277  1.00  0.00    -0.005 C 
HETATM   15  C16 UNL     1      20.039   5.319  46.905  1.00  0.00     0.007 C 
HETATM   16  C17 UNL     1      19.371   4.024  46.589  1.00  0.00     0.022 C 
HETATM   17  C18 UNL     1      19.224   3.069  47.720  1.00  0.00     0.141 C 
HETATM   18  N1  UNL     1      20.469   2.594  48.206  1.00  0.00    -0.313 N 
HETATM   19  N2  UNL     1      20.053   1.694  49.176  1.00  0.00    -0.173 NA
HETATM   20  C19 UNL     1      20.676   1.221  50.161  1.00  0.00     0.256 C 
HETATM   21  N3  UNL     1      21.944   1.295  50.782  1.00  0.00    -0.226 NA
HETATM   22  C20 UNL     1      22.135   0.661  51.890  1.00  0.00     0.115 A 
HETATM   23  N4  UNL     1      21.596  -0.176  52.901  1.00  0.00    -0.343 N 
HETATM   24  H17 UNL     1      21.503   2.593  48.180  1.00  0.00     0.182 HD
HETATM   25  H19 UNL     1      20.587  -0.408  52.793  1.00  0.00     0.167 HD
ENDROOT
BRANCH   1  26
HETATM   26  C1  UNL     1      26.286   0.477  53.887  1.00  0.00     0.418 C 
HETATM   27  F1  UNL     1      26.769   0.045  52.664  1.00  0.00    -0.166 F 
HETATM   28  F2  UNL     1      27.192  -0.070  54.825  1.00  0.00    -0.166 F 
HETATM   29  F3  UNL     1      26.371   1.821  54.077  1.00  0.00    -0.166 F 
ENDBRANCH   1  26
TORSDOF 1
ENDMDL
MODEL 5
REMARK VINA RESULT:      -9.0      3.607      8.453
REMARK  1 active torsions:
REMARK  status: ('A' for Active; 'I' for Inactive)
REMARK    1  A    between atoms: C1_2  and  C2_5 
ROOT
HETATM    1  C2  UNL     1      23.530   0.558  53.303  1.00  0.00     0.057 A 
HETATM    2  C3  UNL     1      24.845   1.008  53.135  1.00  0.00     0.017 A 
HETATM    3  C4  UNL     1      25.196   2.200  52.546  1.00  0.00     0.003 A 
HETATM    4  C5  UNL     1      24.184   3.018  52.084  1.00  0.00     0.030 A 
HETATM    5  C6  UNL     1      22.890   2.567  52.254  1.00  0.00     0.041 A 
HETATM    6  C7  UNL     1      22.500   1.379  52.837  1.00  0.00    -0.004 A 
HETATM    7  C8  UNL     1      21.050   1.257  52.809  1.00  0.00     0.102 A 
HETATM    8  C9  UNL     1      20.511   0.267  51.774  1.00  0.00     0.111 C 
HETATM    9  C10 UNL     1      19.186  -0.169  52.105  1.00  0.00    -0.105 C 
HETATM   10  C11 UNL     1      18.139  -0.529  52.384  1.00  0.00    -0.106 C 
HETATM   11  C12 UNL     1      16.875  -0.984  52.708  1.00  0.00     0.053 C 
HETATM   12  C13 UNL     1      15.858  -0.237  52.241  1.00  0.00     0.052 C 
HETATM   13  C14 UNL     1      14.379  -0.174  52.226  1.00  0.00     0.001 C 
HETATM   14  C15 UNL     1      14.280   0.976  51.481  1.00  0.00    -0.005 C 
HETATM   15  C16 UNL     1      13.652   2.084  50.769  1.00  0.00     0.007 C 
HETATM   16  C17 UNL     1      13.885   3.473  51.257  1.00  0.00     0.022 C 
HETATM   17  C18 UNL     1      15.277   3.985  51.140  1.00  0.00     0.141 C 
HETATM   18  N1  UNL     1      16.195   3.277  51.957  1.00  0.00    -0.313 N 
HETATM   19  N2  UNL     1      17.365   3.983  51.720  1.00  0.00    -0.173 NA
HETATM   20  C19 UNL     1      18.564   3.640  51.885  1.00  0.00     0.256 C 
HETATM   21  N3  UNL     1      19.328   2.535  52.330  1.00  0.00    -0.226 NA
HETATM   22  C20 UNL     1      20.614   2.593  52.253  1.00  0.00     0.115 A 
HETATM   23  N4  UNL     1      21.761   3.341  51.879  1.00  0.00    -0.343 N 
HETATM   24  H17 UNL     1      16.401   2.515  52.627  1.00  0.00     0.182 HD
HETATM   25  H19 UNL     1      21.564   4.259  51.429  1.00  0.00     0.167 HD
ENDROOT
BRANCH   1  26
HETATM   26  C1  UNL     1      23.294  -0.740  53.971  1.00  0.00     0.418 C 
HETATM   27  F1  UNL     1      22.667  -1.644  53.131  1.00  0.00    -0.166 F 
HETATM   28  F2  UNL     1      22.349  -0.519  55.000  1.00  0.00    -0.166 F 
HETATM   29  F3  UNL     1      24.385  -1.238  54.613  1.00  0.00    -0.166 F 
ENDBRANCH   1  26
TORSDOF 1
ENDMDL
MODEL 6
REMARK VINA RESULT:      -8.8      4.439      7.738
REMARK  1 active torsions:
REMARK  status: ('A' for Active; 'I' for Inactive)
REMARK    1  A    between atoms: C1_2  and  C2_5 
ROOT
HETATM    1  C2  UNL     1      24.037   7.016  47.514  1.00  0.00     0.057 A 
HETATM    2  C3  UNL     1      24.619   8.185  47.007  1.00  0.00     0.017 A 
HETATM    3  C4  UNL     1      25.896   8.609  47.287  1.00  0.00     0.003 A 
HETATM    4  C5  UNL     1      26.669   7.831  48.128  1.00  0.00     0.030 A 
HETATM    5  C6  UNL     1      26.087   6.680  48.622  1.00  0.00     0.041 A 
HETATM    6  C7  UNL     1      24.811   6.225  48.366  1.00  0.00    -0.004 A 
HETATM    7  C8  UNL     1      24.564   4.986  49.089  1.00  0.00     0.102 A 
HETATM    8  C9  UNL     1      23.654   5.129  50.311  1.00  0.00     0.111 C 
HETATM    9  C10 UNL     1      23.067   3.874  50.678  1.00  0.00    -0.105 C 
HETATM   10  C11 UNL     1      22.586   2.876  50.954  1.00  0.00    -0.106 C 
HETATM   11  C12 UNL     1      21.986   1.680  51.300  1.00  0.00     0.053 C 
HETATM   12  C13 UNL     1      22.687   0.910  52.151  1.00  0.00     0.052 C 
HETATM   13  C14 UNL     1      22.619  -0.385  52.866  1.00  0.00     0.001 C 
HETATM   14  C15 UNL     1      23.834  -0.276  53.499  1.00  0.00    -0.005 C 
HETATM   15  C16 UNL     1      24.955  -0.639  54.360  1.00  0.00     0.007 C 
HETATM   16  C17 UNL     1      26.294  -0.848  53.739  1.00  0.00     0.022 C 
HETATM   17  C18 UNL     1      26.938   0.356  53.148  1.00  0.00     0.141 C 
HETATM   18  N1  UNL     1      26.226   0.871  52.035  1.00  0.00    -0.313 N 
HETATM   19  N2  UNL     1      27.056   1.912  51.644  1.00  0.00    -0.173 NA
HETATM   20  C19 UNL     1      26.805   2.929  50.947  1.00  0.00     0.256 C 
HETATM   21  N3  UNL     1      25.729   3.535  50.257  1.00  0.00    -0.226 NA
HETATM   22  C20 UNL     1      25.910   4.688  49.707  1.00  0.00     0.115 A 
HETATM   23  N4  UNL     1      26.795   5.765  49.444  1.00  0.00    -0.343 N 
HETATM   24  H17 UNL     1      25.415   0.840  51.394  1.00  0.00     0.182 HD
HETATM   25  H19 UNL     1      27.737   5.682  49.880  1.00  0.00     0.167 HD
ENDROOT
BRANCH   1  26
HETATM   26  C1  UNL     1      22.655   6.670  47.115  1.00  0.00     0.418 C 
HETATM   27  F1  UNL     1      22.139   7.580  46.208  1.00  0.00    -0.166 F 
HETATM   28  F2  UNL     1      21.836   6.826  48.257  1.00  0.00    -0.166 F 
HETATM   29  F3  UNL     1      22.492   5.369  46.756  1.00  0.00    -0.166 F 
ENDBRANCH   1  26
TORSDOF 1
ENDMDL
MODEL 7
REMARK VINA RESULT:      -8.6      3.769      6.354
REMARK  1 active torsions:
REMARK  status: ('A' for Active; 'I' for Inactive)
REMARK    1  A    between atoms: C1_2  and  C2_5 
ROOT
HETATM    1  C2  UNL     1      21.632   5.118  47.592  1.00  0.00     0.057 A 
HETATM    2  C3  UNL     1      21.571   6.261  46.784  1.00  0.00     0.017 A 
HETATM    3  C4  UNL     1      22.589   7.173  46.641  1.00  0.00     0.003 A 
HETATM    4  C5  UNL     1      23.760   6.954  47.339  1.00  0.00     0.030 A 
HETATM    5  C6  UNL     1      23.812   5.824  48.132  1.00  0.00     0.041 A 
HETATM    6  C7  UNL     1      22.812   4.890  48.302  1.00  0.00    -0.004 A 
HETATM    7  C8  UNL     1      23.243   3.857  49.234  1.00  0.00     0.102 A 
HETATM    8  C9  UNL     1      22.613   3.947  50.625  1.00  0.00     0.111 C 
HETATM    9  C10 UNL     1      22.677   2.691  51.312  1.00  0.00    -0.105 C 
HETATM   10  C11 UNL     1      22.712   1.684  51.849  1.00  0.00    -0.106 C 
HETATM   11  C12 UNL     1      22.737   0.471  52.511  1.00  0.00     0.053 C 
HETATM   12  C13 UNL     1      23.844   0.235  53.238  1.00  0.00     0.052 C 
HETATM   13  C14 UNL     1      24.456  -0.785  54.120  1.00  0.00     0.001 C 
HETATM   14  C15 UNL     1      25.616  -0.094  54.374  1.00  0.00    -0.005 C 
HETATM   15  C16 UNL     1      26.932   0.190  54.936  1.00  0.00     0.007 C 
HETATM   16  C17 UNL     1      28.089   0.341  54.009  1.00  0.00     0.022 C 
HETATM   17  C18 UNL     1      28.052   1.518  53.099  1.00  0.00     0.141 C 
HETATM   18  N1  UNL     1      26.989   1.457  52.162  1.00  0.00    -0.313 N 
HETATM   19  N2  UNL     1      27.224   2.603  51.416  1.00  0.00    -0.173 NA
HETATM   20  C19 UNL     1      26.447   3.261  50.678  1.00  0.00     0.256 C 
HETATM   21  N3  UNL     1      25.105   3.252  50.230  1.00  0.00    -0.226 NA
HETATM   22  C20 UNL     1      24.685   4.225  49.495  1.00  0.00     0.115 A 
HETATM   23  N4  UNL     1      24.979   5.454  48.849  1.00  0.00    -0.343 N 
HETATM   24  H17 UNL     1      26.154   0.981  51.779  1.00  0.00     0.182 HD
HETATM   25  H19 UNL     1      25.937   5.825  49.017  1.00  0.00     0.167 HD
ENDROOT
BRANCH   1  26
HETATM   26  C1  UNL     1      20.465   4.209  47.640  1.00  0.00     0.418 C 
HETATM   27  F1  UNL     1      20.812   2.910  47.315  1.00  0.00    -0.166 F 
HETATM   28  F2  UNL     1      19.585   4.598  46.604  1.00  0.00    -0.166 F 
HETATM   29  F3  UNL     1      19.723   4.322  48.775  1.00  0.00    -0.166 F 
ENDBRANCH   1  26
TORSDOF 1
ENDMDL
MODEL 8
REMARK VINA RESULT:      -8.6      5.140      7.936
REMARK  1 active torsions:
REMARK  status: ('A' for Active; 'I' for Inactive)
REMARK    1  A    between atoms: C1_2  and  C2_5 
ROOT
HETATM    1  C2  UNL     1      23.982   1.308  52.288  1.00  0.00     0.057 A 
HETATM    2  C3  UNL     1      24.673   0.402  53.103  1.00  0.00     0.017 A 
HETATM    3  C4  UNL     1      26.040   0.355  53.235  1.00  0.00     0.003 A 
HETATM    4  C5  UNL     1      26.794   1.263  52.518  1.00  0.00     0.030 A 
HETATM    5  C6  UNL     1      26.104   2.152  51.718  1.00  0.00     0.041 A 
HETATM    6  C7  UNL     1      24.737   2.228  51.557  1.00  0.00    -0.004 A 
HETATM    7  C8  UNL     1      24.399   3.284  50.613  1.00  0.00     0.102 A 
HETATM    8  C9  UNL     1      23.961   2.791  49.232  1.00  0.00     0.111 C 
HETATM    9  C10 UNL     1      23.201   3.787  48.537  1.00  0.00    -0.105 C 
HETATM   10  C11 UNL     1      22.579   4.576  47.994  1.00  0.00    -0.106 C 
HETATM   11  C12 UNL     1      21.817   5.514  47.324  1.00  0.00     0.053 C 
HETATM   12  C13 UNL     1      22.510   6.393  46.578  1.00  0.00     0.052 C 
HETATM   13  C14 UNL     1      22.320   7.555  45.681  1.00  0.00     0.001 C 
HETATM   14  C15 UNL     1      23.651   7.763  45.413  1.00  0.00    -0.005 C 
HETATM   15  C16 UNL     1      24.840   8.378  44.832  1.00  0.00     0.007 C 
HETATM   16  C17 UNL     1      25.833   9.017  45.742  1.00  0.00     0.022 C 
HETATM   17  C18 UNL     1      26.566   8.102  46.659  1.00  0.00     0.141 C 
HETATM   18  N1  UNL     1      25.718   7.482  47.612  1.00  0.00    -0.313 N 
HETATM   19  N2  UNL     1      26.638   6.763  48.361  1.00  0.00    -0.173 NA
HETATM   20  C19 UNL     1      26.467   5.771  49.116  1.00  0.00     0.256 C 
HETATM   21  N3  UNL     1      25.434   4.926  49.584  1.00  0.00    -0.226 NA
HETATM   22  C20 UNL     1      25.740   3.920  50.332  1.00  0.00     0.115 A 
HETATM   23  N4  UNL     1      26.758   3.174  50.980  1.00  0.00    -0.343 N 
HETATM   24  H17 UNL     1      24.775   7.319  48.005  1.00  0.00     0.182 HD
HETATM   25  H19 UNL     1      27.730   3.499  50.799  1.00  0.00     0.167 HD
ENDROOT
BRANCH   1  26
HETATM   26  C1  UNL     1      22.503   1.259  52.252  1.00  0.00     0.418 C 
HETATM   27  F1  UNL     1      21.941   2.477  52.592  1.00  0.00    -0.166 F 
HETATM   28  F2  UNL     1      22.085   0.389  53.286  1.00  0.00    -0.166 F 
HETATM   29  F3  UNL     1      21.995   0.706  51.118  1.00  0.00    -0.166 F 
ENDBRANCH   1  26
TORSDOF 1
ENDMDL
MODEL 9
REMARK VINA RESULT:      -8.5      4.018      5.819
REMARK  1 active torsions:
REMARK  status: ('A' for Active; 'I' for Inactive)
REMARK    1  A    between atoms: C1_2  and  C2_5 
ROOT
HETATM    1  C2  UNL     1      19.915  -0.751  53.277  1.00  0.00     0.057 A 
HETATM    2  C3  UNL     1      18.822  -1.507  53.720  1.00  0.00     0.017 A 
HETATM    3  C4  UNL     1      17.586  -1.520  53.119  1.00  0.00     0.003 A 
HETATM    4  C5  UNL     1      17.400  -0.735  51.998  1.00  0.00     0.030 A 
HETATM    5  C6  UNL     1      18.484   0.005  51.569  1.00  0.00     0.041 A 
HETATM    6  C7  UNL     1      19.736   0.046  52.145  1.00  0.00    -0.004 A 
HETATM    7  C8  UNL     1      20.597   0.962  51.411  1.00  0.00     0.102 A 
HETATM    8  C9  UNL     1      20.857   2.297  52.112  1.00  0.00     0.111 C 
HETATM    9  C10 UNL     1      22.044   2.928  51.616  1.00  0.00    -0.105 C 
HETATM   10  C11 UNL     1      23.002   3.417  51.232  1.00  0.00    -0.106 C 
HETATM   11  C12 UNL     1      24.162   4.022  50.788  1.00  0.00     0.053 C 
HETATM   12  C13 UNL     1      24.018   4.829  49.721  1.00  0.00     0.052 C 
HETATM   13  C14 UNL     1      24.796   5.712  48.822  1.00  0.00     0.001 C 
HETATM   14  C15 UNL     1      23.741   6.096  48.031  1.00  0.00    -0.005 C 
HETATM   15  C16 UNL     1      23.025   6.782  46.960  1.00  0.00     0.007 C 
HETATM   16  C17 UNL     1      22.380   5.964  45.893  1.00  0.00     0.022 C 
HETATM   17  C18 UNL     1      21.238   5.111  46.320  1.00  0.00     0.141 C 
HETATM   18  N1  UNL     1      21.624   4.085  47.220  1.00  0.00    -0.313 N 
HETATM   19  N2  UNL     1      20.421   3.416  47.394  1.00  0.00    -0.173 NA
HETATM   20  C19 UNL     1      20.051   2.645  48.317  1.00  0.00     0.256 C 
HETATM   21  N3  UNL     1      20.531   2.085  49.524  1.00  0.00    -0.226 NA
HETATM   22  C20 UNL     1      19.735   1.362  50.237  1.00  0.00     0.115 A 
HETATM   23  N4  UNL     1      18.440   0.802  50.394  1.00  0.00    -0.343 N 
HETATM   24  H17 UNL     1      22.349   3.610  47.785  1.00  0.00     0.182 HD
HETATM   25  H19 UNL     1      17.750   1.069  49.662  1.00  0.00     0.167 HD
ENDROOT
BRANCH   1  26
HETATM   26  C1  UNL     1      21.197  -0.845  54.010  1.00  0.00     0.418 C 
HETATM   27  F1  UNL     1      22.250  -1.152  53.166  1.00  0.00    -0.166 F 
HETATM   28  F2  UNL     1      21.111  -1.966  54.869  1.00  0.00    -0.166 F 
HETATM   29  F3  UNL     1      21.437   0.203  54.843  1.00  0.00    -0.166 F 
ENDBRANCH   1  26
TORSDOF 1
ENDMDL
