MODEL 1
REMARK VINA RESULT:      -8.7      0.000      0.000
REMARK  5 active torsions:
REMARK  status: ('A' for Active; 'I' for Inactive)
REMARK    1  A    between atoms: C2_5  and  C3_6 
REMARK    2  A    between atoms: C15_19  and  C16_20 
REMARK    3  A    between atoms: C16_20  and  C17_21 
REMARK    4  A    between atoms: C17_21  and  C18_22 
REMARK    5  A    between atoms: C18_22  and  N2_23 
ROOT
HETATM    1  O1  UNL     1      20.463   3.703  52.569  1.00  0.00    -0.228 OA
HETATM    2  S1  UNL     1      21.845   4.258  52.238  1.00  0.00     0.162 S 
HETATM    3  O2  UNL     1      22.876   2.992  51.965  1.00  0.00    -0.293 OA
HETATM    4  C1  UNL     1      23.906   2.605  52.705  1.00  0.00     0.217 C 
HETATM    5  C2  UNL     1      25.174   2.309  51.866  1.00  0.00     0.141 C 
HETATM    6  N1  UNL     1      25.732   3.410  51.190  1.00  0.00    -0.364 N 
HETATM    7  C9  UNL     1      25.283   4.442  50.423  1.00  0.00     0.126 C 
HETATM    8  C10 UNL     1      24.011   4.885  50.645  1.00  0.00    -0.021 C 
HETATM    9  C11 UNL     1      24.063   5.883  51.819  1.00  0.00     0.072 C 
HETATM   10  C12 UNL     1      23.472   7.005  50.943  1.00  0.00    -0.078 C 
HETATM   11  C13 UNL     1      22.187   6.709  50.833  1.00  0.00    -0.003 C 
HETATM   12  C14 UNL     1      21.678   5.312  50.810  1.00  0.00     0.142 C 
HETATM   13  C15 UNL     1      22.729   4.660  49.883  1.00  0.00     0.063 C 
HETATM   14  C23 UNL     1      24.168   8.090  50.287  1.00  0.00     0.039 C 
HETATM   15  C24 UNL     1      25.579   7.855  49.925  1.00  0.00     0.051 C 
HETATM   16  C25 UNL     1      26.087   6.556  49.466  1.00  0.00     0.092 C 
HETATM   17  N3  UNL     1      26.007   5.196  49.412  1.00  0.00    -0.247 NA
HETATM   18  H9  UNL     1      26.745   3.618  51.180  1.00  0.00     0.162 HD
ENDROOT
BRANCH  13  19
HETATM   19  C16 UNL     1      22.416   3.261  49.642  1.00  0.00    -0.018 C 
BRANCH  19  20
HETATM   20  C17 UNL     1      22.189   2.093  49.000  1.00  0.00    -0.000 C 
BRANCH  20  21
HETATM   21  C18 UNL     1      21.173   0.982  49.114  1.00  0.00     0.299 C 
BRANCH  21  22
HETATM   22  N2  UNL     1      20.569   1.077  50.413  1.00  0.00     0.096 N 
HETATM   23  C19 UNL     1      19.146   1.088  50.439  1.00  0.00     0.299 C 
HETATM   24  C20 UNL     1      18.641  -0.095  51.231  1.00  0.00     0.198 C 
HETATM   25  O3  UNL     1      19.071  -0.104  52.534  1.00  0.00    -0.388 OA
HETATM   26  C21 UNL     1      20.405   0.244  52.686  1.00  0.00     0.198 C 
HETATM   27  C22 UNL     1      21.117   0.160  51.363  1.00  0.00     0.299 C 
ENDBRANCH  21  22
ENDBRANCH  20  21
ENDBRANCH  19  20
ENDBRANCH  13  19
BRANCH   5  28
HETATM   28  C3  UNL     1      26.216   1.745  52.797  1.00  0.00    -0.033 A 
HETATM   29  C4  UNL     1      27.539   2.107  52.794  1.00  0.00     0.009 A 
HETATM   30  C5  UNL     1      28.475   1.581  53.652  1.00  0.00     0.001 A 
HETATM   31  C6  UNL     1      28.041   0.621  54.575  1.00  0.00     0.000 A 
HETATM   32  C7  UNL     1      26.713   0.252  54.582  1.00  0.00     0.001 A 
HETATM   33  C8  UNL     1      25.818   0.802  53.711  1.00  0.00     0.009 A 
ENDBRANCH   5  28
TORSDOF 5
ENDMDL
MODEL 2
REMARK VINA RESULT:      -8.3      2.154      6.128
REMARK  5 active torsions:
REMARK  status: ('A' for Active; 'I' for Inactive)
REMARK    1  A    between atoms: C2_5  and  C3_6 
REMARK    2  A    between atoms: C15_19  and  C16_20 
REMARK    3  A    between atoms: C16_20  and  C17_21 
REMARK    4  A    between atoms: C17_21  and  C18_22 
REMARK    5  A    between atoms: C18_22  and  N2_23 
ROOT
HETATM    1  O1  UNL     1      22.838   3.528  48.503  1.00  0.00    -0.228 OA
HETATM    2  S1  UNL     1      22.519   2.490  49.574  1.00  0.00     0.162 S 
HETATM    3  O2  UNL     1      23.616   2.641  50.805  1.00  0.00    -0.293 OA
HETATM    4  C1  UNL     1      24.566   1.787  51.160  1.00  0.00     0.217 C 
HETATM    5  C2  UNL     1      24.625   1.551  52.690  1.00  0.00     0.141 C 
HETATM    6  N1  UNL     1      23.493   0.939  53.259  1.00  0.00    -0.364 N 
HETATM    7  C9  UNL     1      22.140   1.074  53.181  1.00  0.00     0.126 C 
HETATM    8  C10 UNL     1      21.622   1.555  52.013  1.00  0.00    -0.021 C 
HETATM    9  C11 UNL     1      21.482   0.366  51.041  1.00  0.00     0.072 C 
HETATM   10  C12 UNL     1      19.964   0.603  50.909  1.00  0.00    -0.078 C 
HETATM   11  C13 UNL     1      19.852   1.667  50.130  1.00  0.00    -0.003 C 
HETATM   12  C14 UNL     1      20.847   2.772  50.123  1.00  0.00     0.142 C 
HETATM   13  C15 UNL     1      21.094   2.919  51.642  1.00  0.00     0.063 C 
HETATM   14  C23 UNL     1      18.886  -0.102  51.568  1.00  0.00     0.039 C 
HETATM   15  C24 UNL     1      19.192  -0.714  52.876  1.00  0.00     0.051 C 
HETATM   16  C25 UNL     1      20.095  -0.104  53.859  1.00  0.00     0.092 C 
HETATM   17  N3  UNL     1      21.139   0.716  54.172  1.00  0.00    -0.247 NA
HETATM   18  H9  UNL     1      23.549   0.165  53.942  1.00  0.00     0.162 HD
ENDROOT
BRANCH  13  19
HETATM   19  C16 UNL     1      22.014   4.010  51.919  1.00  0.00    -0.018 C 
BRANCH  19  20
HETATM   20  C17 UNL     1      22.572   5.240  51.927  1.00  0.00    -0.000 C 
BRANCH  20  21
HETATM   21  C18 UNL     1      22.733   6.355  50.922  1.00  0.00     0.299 C 
BRANCH  21  22
HETATM   22  N2  UNL     1      24.124   6.706  50.879  1.00  0.00     0.096 N 
HETATM   23  C19 UNL     1      25.006   5.700  50.393  1.00  0.00     0.299 C 
HETATM   24  C20 UNL     1      25.721   6.201  49.160  1.00  0.00     0.198 C 
HETATM   25  O3  UNL     1      26.473   7.326  49.383  1.00  0.00    -0.388 OA
HETATM   26  C21 UNL     1      25.846   8.269  50.185  1.00  0.00     0.198 C 
HETATM   27  C22 UNL     1      24.372   7.977  50.273  1.00  0.00     0.299 C 
ENDBRANCH  21  22
ENDBRANCH  20  21
ENDBRANCH  19  20
ENDBRANCH  13  19
BRANCH   5  28
HETATM   28  C3  UNL     1      25.826   0.687  52.973  1.00  0.00    -0.033 A 
HETATM   29  C4  UNL     1      26.007  -0.580  52.476  1.00  0.00     0.009 A 
HETATM   30  C5  UNL     1      27.111  -1.352  52.746  1.00  0.00     0.001 A 
HETATM   31  C6  UNL     1      28.099  -0.806  53.574  1.00  0.00     0.000 A 
HETATM   32  C7  UNL     1      27.923   0.466  54.076  1.00  0.00     0.001 A 
HETATM   33  C8  UNL     1      26.810   1.198  53.782  1.00  0.00     0.009 A 
ENDBRANCH   5  28
TORSDOF 5
ENDMDL
MODEL 3
REMARK VINA RESULT:      -7.9      1.631      2.247
REMARK  5 active torsions:
REMARK  status: ('A' for Active; 'I' for Inactive)
REMARK    1  A    between atoms: C2_5  and  C3_6 
REMARK    2  A    between atoms: C15_19  and  C16_20 
REMARK    3  A    between atoms: C16_20  and  C17_21 
REMARK    4  A    between atoms: C17_21  and  C18_22 
REMARK    5  A    between atoms: C18_22  and  N2_23 
ROOT
HETATM    1  O1  UNL     1      21.161   5.867  51.069  1.00  0.00    -0.228 OA
HETATM    2  S1  UNL     1      22.672   5.936  50.872  1.00  0.00     0.162 S 
HETATM    3  O2  UNL     1      23.274   4.395  50.831  1.00  0.00    -0.293 OA
HETATM    4  C1  UNL     1      24.056   3.800  51.721  1.00  0.00     0.217 C 
HETATM    5  C2  UNL     1      25.240   3.041  51.075  1.00  0.00     0.141 C 
HETATM    6  N1  UNL     1      26.178   3.837  50.390  1.00  0.00    -0.364 N 
HETATM    7  C9  UNL     1      26.151   4.863  49.495  1.00  0.00     0.126 C 
HETATM    8  C10 UNL     1      25.067   5.693  49.520  1.00  0.00    -0.021 C 
HETATM    9  C11 UNL     1      25.318   6.753  50.611  1.00  0.00     0.072 C 
HETATM   10  C12 UNL     1      25.196   7.896  49.583  1.00  0.00    -0.078 C 
HETATM   11  C13 UNL     1      23.899   7.993  49.335  1.00  0.00    -0.003 C 
HETATM   12  C14 UNL     1      22.982   6.823  49.357  1.00  0.00     0.142 C 
HETATM   13  C15 UNL     1      23.858   5.783  48.623  1.00  0.00     0.063 C 
HETATM   14  C23 UNL     1      26.256   8.638  48.937  1.00  0.00     0.039 C 
HETATM   15  C24 UNL     1      27.550   7.946  48.775  1.00  0.00     0.051 C 
HETATM   16  C25 UNL     1      27.665   6.511  48.485  1.00  0.00     0.092 C 
HETATM   17  N3  UNL     1      27.167   5.243  48.528  1.00  0.00    -0.247 NA
HETATM   18  H9  UNL     1      27.200   3.725  50.492  1.00  0.00     0.162 HD
ENDROOT
BRANCH  13  19
HETATM   19  C16 UNL     1      23.146   4.526  48.454  1.00  0.00    -0.018 C 
BRANCH  19  20
HETATM   20  C17 UNL     1      22.428   3.529  47.892  1.00  0.00    -0.000 C 
BRANCH  20  21
HETATM   21  C18 UNL     1      22.525   2.023  47.853  1.00  0.00     0.299 C 
BRANCH  21  22
HETATM   22  N2  UNL     1      21.436   1.497  48.627  1.00  0.00     0.096 N 
HETATM   23  C19 UNL     1      21.754   1.089  49.953  1.00  0.00     0.299 C 
HETATM   24  C20 UNL     1      20.944   1.895  50.942  1.00  0.00     0.198 C 
HETATM   25  O3  UNL     1      19.589   1.749  50.786  1.00  0.00    -0.388 OA
HETATM   26  C21 UNL     1      19.173   1.759  49.463  1.00  0.00     0.198 C 
HETATM   27  C22 UNL     1      20.261   2.310  48.581  1.00  0.00     0.299 C 
ENDBRANCH  21  22
ENDBRANCH  20  21
ENDBRANCH  19  20
ENDBRANCH  13  19
BRANCH   5  28
HETATM   28  C3  UNL     1      25.958   2.296  52.169  1.00  0.00    -0.033 A 
HETATM   29  C4  UNL     1      25.334   1.590  53.168  1.00  0.00     0.009 A 
HETATM   30  C5  UNL     1      26.006   0.916  54.158  1.00  0.00     0.001 A 
HETATM   31  C6  UNL     1      27.406   0.959  54.137  1.00  0.00     0.000 A 
HETATM   32  C7  UNL     1      28.039   1.666  53.137  1.00  0.00     0.001 A 
HETATM   33  C8  UNL     1      27.330   2.322  52.173  1.00  0.00     0.009 A 
ENDBRANCH   5  28
TORSDOF 5
ENDMDL
MODEL 4
REMARK VINA RESULT:      -7.8      2.352      6.014
REMARK  5 active torsions:
REMARK  status: ('A' for Active; 'I' for Inactive)
REMARK    1  A    between atoms: C2_5  and  C3_6 
REMARK    2  A    between atoms: C15_19  and  C16_20 
REMARK    3  A    between atoms: C16_20  and  C17_21 
REMARK    4  A    between atoms: C17_21  and  C18_22 
REMARK    5  A    between atoms: C18_22  and  N2_23 
ROOT
HETATM    1  O1  UNL     1      23.071   4.794  53.909  1.00  0.00    -0.228 OA
HETATM    2  S1  UNL     1      22.824   4.735  52.405  1.00  0.00     0.162 S 
HETATM    3  O2  UNL     1      24.259   4.420  51.641  1.00  0.00    -0.293 OA
HETATM    4  C1  UNL     1      24.958   5.226  50.854  1.00  0.00     0.217 C 
HETATM    5  C2  UNL     1      25.450   4.530  49.561  1.00  0.00     0.141 C 
HETATM    6  N1  UNL     1      24.443   4.102  48.675  1.00  0.00    -0.364 N 
HETATM    7  C9  UNL     1      23.255   3.441  48.758  1.00  0.00     0.126 C 
HETATM    8  C10 UNL     1      22.552   3.554  49.923  1.00  0.00    -0.021 C 
HETATM    9  C11 UNL     1      21.733   4.857  49.849  1.00  0.00     0.072 C 
HETATM   10  C12 UNL     1      20.412   4.084  50.032  1.00  0.00    -0.078 C 
HETATM   11  C13 UNL     1      20.382   3.761  51.315  1.00  0.00    -0.003 C 
HETATM   12  C14 UNL     1      21.608   3.467  52.104  1.00  0.00     0.142 C 
HETATM   13  C15 UNL     1      22.381   2.603  51.082  1.00  0.00     0.063 C 
HETATM   14  C23 UNL     1      19.455   3.692  49.021  1.00  0.00     0.039 C 
HETATM   15  C24 UNL     1      19.975   3.491  47.654  1.00  0.00     0.051 C 
HETATM   16  C25 UNL     1      21.297   2.919  47.371  1.00  0.00     0.092 C 
HETATM   17  N3  UNL     1      22.585   2.657  47.734  1.00  0.00    -0.247 NA
HETATM   18  H9  UNL     1      24.481   4.258  47.654  1.00  0.00     0.162 HD
ENDROOT
BRANCH  13  19
HETATM   19  C16 UNL     1      23.631   2.120  51.647  1.00  0.00    -0.018 C 
BRANCH  19  20
HETATM   20  C17 UNL     1      24.528   1.333  52.280  1.00  0.00    -0.000 C 
BRANCH  20  21
HETATM   21  C18 UNL     1      25.239   1.368  53.612  1.00  0.00     0.299 C 
BRANCH  21  22
HETATM   22  N2  UNL     1      26.593   0.944  53.394  1.00  0.00     0.096 N 
HETATM   23  C19 UNL     1      27.440   1.877  52.733  1.00  0.00     0.299 C 
HETATM   24  C20 UNL     1      28.600   2.237  53.631  1.00  0.00     0.198 C 
HETATM   25  O3  UNL     1      29.376   1.161  53.980  1.00  0.00    -0.388 OA
HETATM   26  C21 UNL     1      28.647   0.026  54.303  1.00  0.00     0.198 C 
HETATM   27  C22 UNL     1      27.209   0.389  54.559  1.00  0.00     0.299 C 
ENDBRANCH  21  22
ENDBRANCH  20  21
ENDBRANCH  19  20
ENDBRANCH  13  19
BRANCH   5  28
HETATM   28  C3  UNL     1      26.344   5.498  48.832  1.00  0.00    -0.033 A 
HETATM   29  C4  UNL     1      25.931   6.700  48.316  1.00  0.00     0.009 A 
HETATM   30  C5  UNL     1      26.764   7.571  47.655  1.00  0.00     0.001 A 
HETATM   31  C6  UNL     1      28.105   7.199  47.506  1.00  0.00     0.000 A 
HETATM   32  C7  UNL     1      28.527   5.992  48.022  1.00  0.00     0.001 A 
HETATM   33  C8  UNL     1      27.664   5.158  48.672  1.00  0.00     0.009 A 
ENDBRANCH   5  28
TORSDOF 5
ENDMDL
MODEL 5
REMARK VINA RESULT:      -7.7      2.863      6.446
REMARK  5 active torsions:
REMARK  status: ('A' for Active; 'I' for Inactive)
REMARK    1  A    between atoms: C2_5  and  C3_6 
REMARK    2  A    between atoms: C15_19  and  C16_20 
REMARK    3  A    between atoms: C16_20  and  C17_21 
REMARK    4  A    between atoms: C17_21  and  C18_22 
REMARK    5  A    between atoms: C18_22  and  N2_23 
ROOT
HETATM    1  O1  UNL     1      20.429   4.368  47.624  1.00  0.00    -0.228 OA
HETATM    2  S1  UNL     1      21.503   3.824  48.560  1.00  0.00     0.162 S 
HETATM    3  O2  UNL     1      22.576   5.038  48.901  1.00  0.00    -0.293 OA
HETATM    4  C1  UNL     1      23.845   5.133  48.530  1.00  0.00     0.217 C 
HETATM    5  C2  UNL     1      24.785   5.552  49.687  1.00  0.00     0.141 C 
HETATM    6  N1  UNL     1      24.889   4.639  50.753  1.00  0.00    -0.364 N 
HETATM    7  C9  UNL     1      24.041   3.889  51.511  1.00  0.00     0.126 C 
HETATM    8  C10 UNL     1      22.865   3.497  50.940  1.00  0.00    -0.021 C 
HETATM    9  C11 UNL     1      23.146   2.217  50.128  1.00  0.00     0.072 C 
HETATM   10  C12 UNL     1      22.115   1.420  50.952  1.00  0.00    -0.078 C 
HETATM   11  C13 UNL     1      20.936   1.828  50.508  1.00  0.00    -0.003 C 
HETATM   12  C14 UNL     1      20.690   3.213  50.024  1.00  0.00     0.142 C 
HETATM   13  C15 UNL     1      21.457   4.013  51.100  1.00  0.00     0.063 C 
HETATM   14  C23 UNL     1      22.356   0.506  52.047  1.00  0.00     0.039 C 
HETATM   15  C24 UNL     1      23.579   0.728  52.842  1.00  0.00     0.051 C 
HETATM   16  C25 UNL     1      24.110   2.061  53.150  1.00  0.00     0.092 C 
HETATM   17  N3  UNL     1      24.243   3.387  52.861  1.00  0.00    -0.247 NA
HETATM   18  H9  UNL     1      25.789   4.368  51.184  1.00  0.00     0.162 HD
ENDROOT
BRANCH  13  19
HETATM   19  C16 UNL     1      21.318   5.444  50.885  1.00  0.00    -0.018 C 
BRANCH  19  20
HETATM   20  C17 UNL     1      21.462   6.779  51.033  1.00  0.00    -0.000 C 
BRANCH  20  21
HETATM   21  C18 UNL     1      21.009   8.002  50.272  1.00  0.00     0.299 C 
BRANCH  21  22
HETATM   22  N2  UNL     1      21.672   7.992  48.999  1.00  0.00     0.096 N 
HETATM   23  C19 UNL     1      20.829   8.103  47.857  1.00  0.00     0.299 C 
HETATM   24  C20 UNL     1      21.191   9.345  47.076  1.00  0.00     0.198 C 
HETATM   25  O3  UNL     1      22.487   9.350  46.626  1.00  0.00    -0.388 OA
HETATM   26  C21 UNL     1      23.405   8.893  47.560  1.00  0.00     0.198 C 
HETATM   27  C22 UNL     1      22.788   8.883  48.933  1.00  0.00     0.299 C 
ENDBRANCH  21  22
ENDBRANCH  20  21
ENDBRANCH  19  20
ENDBRANCH  13  19
BRANCH   5  28
HETATM   28  C3  UNL     1      26.158   5.766  49.107  1.00  0.00    -0.033 A 
HETATM   29  C4  UNL     1      27.093   4.775  48.938  1.00  0.00     0.009 A 
HETATM   30  C5  UNL     1      28.341   4.990  48.405  1.00  0.00     0.001 A 
HETATM   31  C6  UNL     1      28.666   6.296  48.020  1.00  0.00     0.000 A 
HETATM   32  C7  UNL     1      27.732   7.296  48.188  1.00  0.00     0.001 A 
HETATM   33  C8  UNL     1      26.502   7.037  48.721  1.00  0.00     0.009 A 
ENDBRANCH   5  28
TORSDOF 5
ENDMDL
MODEL 6
REMARK VINA RESULT:      -7.7      2.671      6.328
REMARK  5 active torsions:
REMARK  status: ('A' for Active; 'I' for Inactive)
REMARK    1  A    between atoms: C2_5  and  C3_6 
REMARK    2  A    between atoms: C15_19  and  C16_20 
REMARK    3  A    between atoms: C16_20  and  C17_21 
REMARK    4  A    between atoms: C17_21  and  C18_22 
REMARK    5  A    between atoms: C18_22  and  N2_23 
ROOT
HETATM    1  O1  UNL     1      22.590   2.747  47.347  1.00  0.00    -0.228 OA
HETATM    2  S1  UNL     1      21.448   2.504  48.329  1.00  0.00     0.162 S 
HETATM    3  O2  UNL     1      22.039   2.613  49.871  1.00  0.00    -0.293 OA
HETATM    4  C1  UNL     1      22.169   1.643  50.765  1.00  0.00     0.217 C 
HETATM    5  C2  UNL     1      21.659   2.044  52.171  1.00  0.00     0.141 C 
HETATM    6  N1  UNL     1      20.281   2.311  52.270  1.00  0.00    -0.364 N 
HETATM    7  C9  UNL     1      19.347   3.010  51.566  1.00  0.00     0.126 C 
HETATM    8  C10 UNL     1      19.550   3.159  50.225  1.00  0.00    -0.021 C 
HETATM    9  C11 UNL     1      19.014   1.892  49.528  1.00  0.00     0.072 C 
HETATM   10  C12 UNL     1      18.028   2.726  48.686  1.00  0.00    -0.078 C 
HETATM   11  C13 UNL     1      18.776   3.305  47.761  1.00  0.00    -0.003 C 
HETATM   12  C14 UNL     1      20.185   3.719  48.003  1.00  0.00     0.142 C 
HETATM   13  C15 UNL     1      20.044   4.332  49.414  1.00  0.00     0.063 C 
HETATM   14  C23 UNL     1      16.613   2.930  48.904  1.00  0.00     0.039 C 
HETATM   15  C24 UNL     1      16.132   2.831  50.296  1.00  0.00     0.051 C 
HETATM   16  C25 UNL     1      16.910   3.294  51.451  1.00  0.00     0.092 C 
HETATM   17  N3  UNL     1      18.102   3.587  52.046  1.00  0.00    -0.247 NA
HETATM   18  H9  UNL     1      19.685   1.948  53.032  1.00  0.00     0.162 HD
ENDROOT
BRANCH  13  19
HETATM   19  C16 UNL     1      21.309   4.882  49.872  1.00  0.00    -0.018 C 
BRANCH  19  20
HETATM   20  C17 UNL     1      22.235   5.760  50.318  1.00  0.00    -0.000 C 
BRANCH  20  21
HETATM   21  C18 UNL     1      23.626   5.655  50.897  1.00  0.00     0.299 C 
BRANCH  21  22
HETATM   22  N2  UNL     1      24.428   4.908  49.971  1.00  0.00     0.096 N 
HETATM   23  C19 UNL     1      25.022   5.656  48.916  1.00  0.00     0.299 C 
HETATM   24  C20 UNL     1      26.527   5.539  48.993  1.00  0.00     0.198 C 
HETATM   25  O3  UNL     1      26.981   4.249  48.882  1.00  0.00    -0.388 OA
HETATM   26  C21 UNL     1      26.231   3.328  49.598  1.00  0.00     0.198 C 
HETATM   27  C22 UNL     1      25.365   4.035  50.606  1.00  0.00     0.299 C 
ENDBRANCH  21  22
ENDBRANCH  20  21
ENDBRANCH  19  20
ENDBRANCH  13  19
BRANCH   5  28
HETATM   28  C3  UNL     1      21.995   0.922  53.117  1.00  0.00    -0.033 A 
HETATM   29  C4  UNL     1      21.115   0.371  54.014  1.00  0.00     0.009 A 
HETATM   30  C5  UNL     1      21.441  -0.654  54.869  1.00  0.00     0.001 A 
HETATM   31  C6  UNL     1      22.747  -1.156  54.813  1.00  0.00     0.000 A 
HETATM   32  C7  UNL     1      23.637  -0.607  53.914  1.00  0.00     0.001 A 
HETATM   33  C8  UNL     1      23.269   0.412  53.083  1.00  0.00     0.009 A 
ENDBRANCH   5  28
TORSDOF 5
ENDMDL
MODEL 7
REMARK VINA RESULT:      -7.5      6.610     10.215
REMARK  5 active torsions:
REMARK  status: ('A' for Active; 'I' for Inactive)
REMARK    1  A    between atoms: C2_5  and  C3_6 
REMARK    2  A    between atoms: C15_19  and  C16_20 
REMARK    3  A    between atoms: C16_20  and  C17_21 
REMARK    4  A    between atoms: C17_21  and  C18_22 
REMARK    5  A    between atoms: C18_22  and  N2_23 
ROOT
HETATM    1  O1  UNL     1      31.263  10.713  48.417  1.00  0.00    -0.228 OA
HETATM    2  S1  UNL     1      31.462   9.205  48.522  1.00  0.00     0.162 S 
HETATM    3  O2  UNL     1      30.137   8.447  47.881  1.00  0.00    -0.293 OA
HETATM    4  C1  UNL     1      29.220   7.731  48.517  1.00  0.00     0.217 C 
HETATM    5  C2  UNL     1      28.886   6.401  47.798  1.00  0.00     0.141 C 
HETATM    6  N1  UNL     1      29.937   5.469  47.714  1.00  0.00    -0.364 N 
HETATM    7  C9  UNL     1      31.261   5.484  47.393  1.00  0.00     0.126 C 
HETATM    8  C10 UNL     1      31.950   6.642  47.617  1.00  0.00    -0.021 C 
HETATM    9  C11 UNL     1      32.388   6.645  49.095  1.00  0.00     0.072 C 
HETATM   10  C12 UNL     1      33.873   6.749  48.696  1.00  0.00    -0.078 C 
HETATM   11  C13 UNL     1      34.035   8.005  48.313  1.00  0.00    -0.003 C 
HETATM   12  C14 UNL     1      32.961   8.793  47.650  1.00  0.00     0.142 C 
HETATM   13  C15 UNL     1      32.410   7.727  46.676  1.00  0.00     0.063 C 
HETATM   14  C23 UNL     1      34.863   5.696  48.641  1.00  0.00     0.039 C 
HETATM   15  C24 UNL     1      34.366   4.328  48.394  1.00  0.00     0.051 C 
HETATM   16  C25 UNL     1      33.236   4.029  47.507  1.00  0.00     0.092 C 
HETATM   17  N3  UNL     1      32.079   4.395  46.885  1.00  0.00    -0.247 NA
HETATM   18  H9  UNL     1      29.823   4.462  47.918  1.00  0.00     0.162 HD
ENDROOT
BRANCH  13  19
HETATM   19  C16 UNL     1      31.356   8.278  45.840  1.00  0.00    -0.018 C 
BRANCH  19  20
HETATM   20  C17 UNL     1      30.683   8.714  44.753  1.00  0.00    -0.000 C 
BRANCH  20  21
HETATM   21  C18 UNL     1      29.633   9.767  44.487  1.00  0.00     0.299 C 
BRANCH  21  22
HETATM   22  N2  UNL     1      28.570   9.567  45.431  1.00  0.00     0.096 N 
HETATM   23  C19 UNL     1      28.086  10.738  46.080  1.00  0.00     0.299 C 
HETATM   24  C20 UNL     1      26.620  10.927  45.764  1.00  0.00     0.198 C 
HETATM   25  O3  UNL     1      25.834   9.881  46.174  1.00  0.00    -0.388 OA
HETATM   26  C21 UNL     1      26.385   8.633  45.922  1.00  0.00     0.198 C 
HETATM   27  C22 UNL     1      27.508   8.754  44.928  1.00  0.00     0.299 C 
ENDBRANCH  21  22
ENDBRANCH  20  21
ENDBRANCH  19  20
ENDBRANCH  13  19
BRANCH   5  28
HETATM   28  C3  UNL     1      27.739   5.759  48.534  1.00  0.00    -0.033 A 
HETATM   29  C4  UNL     1      27.620   4.411  48.764  1.00  0.00     0.009 A 
HETATM   30  C5  UNL     1      26.566   3.844  49.439  1.00  0.00     0.001 A 
HETATM   31  C6  UNL     1      25.563   4.699  49.911  1.00  0.00     0.000 A 
HETATM   32  C7  UNL     1      25.676   6.055  49.682  1.00  0.00     0.001 A 
HETATM   33  C8  UNL     1      26.742   6.574  49.007  1.00  0.00     0.009 A 
ENDBRANCH   5  28
TORSDOF 5
ENDMDL
MODEL 8
REMARK VINA RESULT:      -7.5      8.681     12.289
REMARK  5 active torsions:
REMARK  status: ('A' for Active; 'I' for Inactive)
REMARK    1  A    between atoms: C2_5  and  C3_6 
REMARK    2  A    between atoms: C15_19  and  C16_20 
REMARK    3  A    between atoms: C16_20  and  C17_21 
REMARK    4  A    between atoms: C17_21  and  C18_22 
REMARK    5  A    between atoms: C18_22  and  N2_23 
ROOT
HETATM    1  O1  UNL     1      32.219  11.245  47.252  1.00  0.00    -0.228 OA
HETATM    2  S1  UNL     1      32.371   9.780  47.647  1.00  0.00     0.162 S 
HETATM    3  O2  UNL     1      31.113   8.920  47.001  1.00  0.00    -0.293 OA
HETATM    4  C1  UNL     1      30.113   8.331  47.643  1.00  0.00     0.217 C 
HETATM    5  C2  UNL     1      29.835   6.894  47.138  1.00  0.00     0.141 C 
HETATM    6  N1  UNL     1      30.868   5.961  47.346  1.00  0.00    -0.364 N 
HETATM    7  C9  UNL     1      32.220   5.917  47.185  1.00  0.00     0.126 C 
HETATM    8  C10 UNL     1      32.904   7.095  47.278  1.00  0.00    -0.021 C 
HETATM    9  C11 UNL     1      33.168   7.364  48.773  1.00  0.00     0.072 C 
HETATM   10  C12 UNL     1      34.692   7.393  48.539  1.00  0.00    -0.078 C 
HETATM   11  C13 UNL     1      34.924   8.560  47.959  1.00  0.00    -0.003 C 
HETATM   12  C14 UNL     1      33.952   9.217  47.045  1.00  0.00     0.142 C 
HETATM   13  C15 UNL     1      33.494   7.994  46.219  1.00  0.00     0.063 C 
HETATM   14  C23 UNL     1      35.657   6.346  48.789  1.00  0.00     0.039 C 
HETATM   15  C24 UNL     1      35.163   4.957  48.734  1.00  0.00     0.051 C 
HETATM   16  C25 UNL     1      34.136   4.504  47.788  1.00  0.00     0.092 C 
HETATM   17  N3  UNL     1      33.067   4.754  46.979  1.00  0.00    -0.247 NA
HETATM   18  H9  UNL     1      30.708   5.008  47.712  1.00  0.00     0.162 HD
ENDROOT
BRANCH  13  19
HETATM   19  C16 UNL     1      32.555   8.386  45.181  1.00  0.00    -0.018 C 
BRANCH  19  20
HETATM   20  C17 UNL     1      31.959   8.502  43.973  1.00  0.00    -0.000 C 
BRANCH  20  21
HETATM   21  C18 UNL     1      32.356   8.216  42.545  1.00  0.00     0.299 C 
BRANCH  21  22
HETATM   22  N2  UNL     1      33.219   7.069  42.555  1.00  0.00     0.096 N 
HETATM   23  C19 UNL     1      32.736   5.921  41.863  1.00  0.00     0.299 C 
HETATM   24  C20 UNL     1      33.689   5.562  40.747  1.00  0.00     0.198 C 
HETATM   25  O3  UNL     1      34.956   5.271  41.182  1.00  0.00    -0.388 OA
HETATM   26  C21 UNL     1      35.422   6.130  42.166  1.00  0.00     0.198 C 
HETATM   27  C22 UNL     1      34.573   7.372  42.214  1.00  0.00     0.299 C 
ENDBRANCH  21  22
ENDBRANCH  20  21
ENDBRANCH  19  20
ENDBRANCH  13  19
BRANCH   5  28
HETATM   28  C3  UNL     1      28.597   6.396  47.837  1.00  0.00    -0.033 A 
HETATM   29  C4  UNL     1      28.443   5.126  48.335  1.00  0.00     0.009 A 
HETATM   30  C5  UNL     1      27.305   4.691  48.971  1.00  0.00     0.001 A 
HETATM   31  C6  UNL     1      26.251   5.601  49.110  1.00  0.00     0.000 A 
HETATM   32  C7  UNL     1      26.399   6.878  48.611  1.00  0.00     0.001 A 
HETATM   33  C8  UNL     1      27.548   7.268  47.987  1.00  0.00     0.009 A 
ENDBRANCH   5  28
TORSDOF 5
ENDMDL
MODEL 9
REMARK VINA RESULT:      -7.5      2.667      3.881
REMARK  5 active torsions:
REMARK  status: ('A' for Active; 'I' for Inactive)
REMARK    1  A    between atoms: C2_5  and  C3_6 
REMARK    2  A    between atoms: C15_19  and  C16_20 
REMARK    3  A    between atoms: C16_20  and  C17_21 
REMARK    4  A    between atoms: C17_21  and  C18_22 
REMARK    5  A    between atoms: C18_22  and  N2_23 
ROOT
HETATM    1  O1  UNL     1      21.813   8.037  50.201  1.00  0.00    -0.228 OA
HETATM    2  S1  UNL     1      23.291   7.666  50.125  1.00  0.00     0.162 S 
HETATM    3  O2  UNL     1      23.419   6.069  49.712  1.00  0.00    -0.293 OA
HETATM    4  C1  UNL     1      23.858   5.065  50.460  1.00  0.00     0.217 C 
HETATM    5  C2  UNL     1      24.850   4.143  49.709  1.00  0.00     0.141 C 
HETATM    6  N1  UNL     1      26.066   4.736  49.322  1.00  0.00    -0.364 N 
HETATM    7  C9  UNL     1      26.466   5.897  48.731  1.00  0.00     0.126 C 
HETATM    8  C10 UNL     1      25.678   6.998  48.909  1.00  0.00    -0.021 C 
HETATM    9  C11 UNL     1      26.069   7.638  50.256  1.00  0.00     0.072 C 
HETATM   10  C12 UNL     1      26.432   8.967  49.563  1.00  0.00    -0.078 C 
HETATM   11  C13 UNL     1      25.268   9.526  49.270  1.00  0.00    -0.003 C 
HETATM   12  C14 UNL     1      24.057   8.737  48.922  1.00  0.00     0.142 C 
HETATM   13  C15 UNL     1      24.687   7.674  47.994  1.00  0.00     0.063 C 
HETATM   14  C23 UNL     1      27.742   9.463  49.206  1.00  0.00     0.039 C 
HETATM   15  C24 UNL     1      28.788   8.455  48.946  1.00  0.00     0.051 C 
HETATM   16  C25 UNL     1      28.522   7.167  48.294  1.00  0.00     0.092 C 
HETATM   17  N3  UNL     1      27.676   6.149  47.965  1.00  0.00    -0.247 NA
HETATM   18  H9  UNL     1      26.987   4.285  49.453  1.00  0.00     0.162 HD
ENDROOT
BRANCH  13  19
HETATM   19  C16 UNL     1      23.672   6.785  47.453  1.00  0.00    -0.018 C 
BRANCH  19  20
HETATM   20  C17 UNL     1      22.636   6.325  46.719  1.00  0.00    -0.000 C 
BRANCH  20  21
HETATM   21  C18 UNL     1      22.207   4.978  46.187  1.00  0.00     0.299 C 
BRANCH  21  22
HETATM   22  N2  UNL     1      21.988   4.116  47.314  1.00  0.00     0.096 N 
HETATM   23  C19 UNL     1      20.733   4.257  47.971  1.00  0.00     0.299 C 
HETATM   24  C20 UNL     1      19.975   2.951  47.909  1.00  0.00     0.198 C 
HETATM   25  O3  UNL     1      20.634   1.908  48.510  1.00  0.00    -0.388 OA
HETATM   26  C21 UNL     1      21.993   1.871  48.235  1.00  0.00     0.198 C 
HETATM   27  C22 UNL     1      22.307   2.748  47.053  1.00  0.00     0.299 C 
ENDBRANCH  21  22
ENDBRANCH  20  21
ENDBRANCH  19  20
ENDBRANCH  13  19
BRANCH   5  28
HETATM   28  C3  UNL     1      25.157   2.974  50.609  1.00  0.00    -0.033 A 
HETATM   29  C4  UNL     1      26.422   2.530  50.902  1.00  0.00     0.009 A 
HETATM   30  C5  UNL     1      26.682   1.462  51.727  1.00  0.00     0.001 A 
HETATM   31  C6  UNL     1      25.587   0.798  52.292  1.00  0.00     0.000 A 
HETATM   32  C7  UNL     1      24.313   1.238  52.001  1.00  0.00     0.001 A 
HETATM   33  C8  UNL     1      24.102   2.305  51.176  1.00  0.00     0.009 A 
ENDBRANCH   5  28
TORSDOF 5
ENDMDL
