MODEL 1
REMARK VINA RESULT:      -8.6      0.000      0.000
REMARK  3 active torsions:
REMARK  status: ('A' for Active; 'I' for Inactive)
REMARK    1  A    between atoms: O1_2  and  C2_3 
REMARK    2  A    between atoms: C7_8  and  P1_9 
REMARK    3  A    between atoms: C18_23  and  O2_24 
ROOT
HETATM    1  P1  UNL     1      25.290   0.725  52.785  1.00  0.00    -0.038 P 
HETATM    2  C8  UNL     1      26.154   0.172  53.328  1.00  0.00     0.054 A 
HETATM    3  N1  UNL     1      27.052  -0.394  53.900  1.00  0.00    -0.264 NA
HETATM    4  C9  UNL     1      28.238   0.185  54.036  1.00  0.00     0.118 C 
HETATM    5  C10 UNL     1      28.794   1.455  53.621  1.00  0.00     0.036 C 
HETATM    6  C11 UNL     1      27.906   2.097  53.016  1.00  0.00     0.084 C 
HETATM    7  N2  UNL     1      26.761   2.605  52.388  1.00  0.00    -0.395 N 
HETATM    8  C12 UNL     1      25.777   1.809  51.700  1.00  0.00     0.157 A 
HETATM    9  C13 UNL     1      24.886   0.981  52.542  1.00  0.00     0.068 A 
HETATM   10  C14 UNL     1      23.869   0.287  53.274  1.00  0.00     0.059 A 
HETATM   11  C15 UNL     1      22.476   0.542  53.058  1.00  0.00     0.066 C 
HETATM   12  C16 UNL     1      21.191   0.562  53.448  1.00  0.00    -0.006 C 
HETATM   13  P2  UNL     1      21.058  -0.759  54.529  1.00  0.00    -0.053 P 
HETATM   14  C17 UNL     1      22.829  -1.224  54.939  1.00  0.00     0.045 C 
HETATM   15  C18 UNL     1      23.875  -0.692  54.322  1.00  0.00     0.059 C 
HETATM   16  H11 UNL     1      26.567   3.657  52.421  1.00  0.00     0.159 HD
ENDROOT
BRANCH   1  17
HETATM   17  C7  UNL     1      23.414   1.983  51.557  1.00  0.00    -0.014 A 
HETATM   18  C2  UNL     1      23.040   3.160  52.056  1.00  0.00     0.072 A 
HETATM   19  C3  UNL     1      21.968   3.452  51.286  1.00  0.00     0.016 A 
HETATM   20  C4  UNL     1      21.599   2.528  50.282  1.00  0.00     0.025 A 
HETATM   21  C5  UNL     1      22.052   1.235  49.768  1.00  0.00     0.009 A 
HETATM   22  C6  UNL     1      22.780   1.443  50.585  1.00  0.00     0.035 A 
BRANCH  18  23
HETATM   23  O1  UNL     1      23.880   3.530  53.095  1.00  0.00    -0.356 OA
HETATM   24  C1  UNL     1      23.871   4.933  53.424  1.00  0.00     0.210 C 
ENDBRANCH  18  23
ENDBRANCH   1  17
BRANCH  15  25
HETATM   25  O2  UNL     1      24.945  -1.275  54.905  1.00  0.00    -0.364 OA
HETATM   26  H16 UNL     1      24.887  -1.749  55.822  1.00  0.00     0.217 HD
ENDBRANCH  15  25
TORSDOF 3
ENDMDL
MODEL 2
REMARK VINA RESULT:      -8.2      1.452      2.321
REMARK  3 active torsions:
REMARK  status: ('A' for Active; 'I' for Inactive)
REMARK    1  A    between atoms: O1_2  and  C2_3 
REMARK    2  A    between atoms: C7_8  and  P1_9 
REMARK    3  A    between atoms: C18_23  and  O2_24 
ROOT
HETATM    1  P1  UNL     1      24.526   1.240  52.118  1.00  0.00    -0.038 P 
HETATM    2  C8  UNL     1      25.301   0.441  52.446  1.00  0.00     0.054 A 
HETATM    3  N1  UNL     1      26.108  -0.383  52.796  1.00  0.00    -0.264 NA
HETATM    4  C9  UNL     1      27.371  -0.042  53.018  1.00  0.00     0.118 C 
HETATM    5  C10 UNL     1      28.111   1.199  52.930  1.00  0.00     0.036 C 
HETATM    6  C11 UNL     1      27.325   2.103  52.567  1.00  0.00     0.084 C 
HETATM    7  N2  UNL     1      26.264   2.924  52.161  1.00  0.00    -0.395 N 
HETATM    8  C12 UNL     1      25.161   2.497  51.339  1.00  0.00     0.157 A 
HETATM    9  C13 UNL     1      24.163   1.609  51.975  1.00  0.00     0.068 A 
HETATM   10  C14 UNL     1      23.061   0.896  52.547  1.00  0.00     0.059 A 
HETATM   11  C15 UNL     1      21.721   1.399  52.482  1.00  0.00     0.066 C 
HETATM   12  C16 UNL     1      20.459   1.498  52.931  1.00  0.00    -0.006 C 
HETATM   13  P2  UNL     1      20.138  -0.035  53.624  1.00  0.00    -0.053 P 
HETATM   14  C17 UNL     1      21.821  -0.845  53.800  1.00  0.00     0.045 C 
HETATM   15  C18 UNL     1      22.929  -0.322  53.293  1.00  0.00     0.059 C 
HETATM   16  H11 UNL     1      26.235   3.943  52.485  1.00  0.00     0.159 HD
ENDROOT
BRANCH   1  17
HETATM   17  C7  UNL     1      22.851   3.044  51.375  1.00  0.00    -0.014 A 
HETATM   18  C2  UNL     1      22.324   2.923  50.158  1.00  0.00     0.072 A 
HETATM   19  C3  UNL     1      21.639   4.083  50.044  1.00  0.00     0.016 A 
HETATM   20  C4  UNL     1      21.674   4.985  51.131  1.00  0.00     0.025 A 
HETATM   21  C5  UNL     1      22.273   5.067  52.464  1.00  0.00     0.009 A 
HETATM   22  C6  UNL     1      22.632   4.080  52.094  1.00  0.00     0.035 A 
BRANCH  18  23
HETATM   23  O1  UNL     1      22.705   1.719  49.587  1.00  0.00    -0.356 OA
HETATM   24  C1  UNL     1      21.716   1.099  48.741  1.00  0.00     0.210 C 
ENDBRANCH  18  23
ENDBRANCH   1  17
BRANCH  15  25
HETATM   25  O2  UNL     1      23.904  -1.190  53.639  1.00  0.00    -0.364 OA
HETATM   26  H16 UNL     1      24.812  -0.879  54.025  1.00  0.00     0.217 HD
ENDBRANCH  15  25
TORSDOF 3
ENDMDL
MODEL 3
REMARK VINA RESULT:      -7.9      2.841      5.301
REMARK  3 active torsions:
REMARK  status: ('A' for Active; 'I' for Inactive)
REMARK    1  A    between atoms: O1_2  and  C2_3 
REMARK    2  A    between atoms: C7_8  and  P1_9 
REMARK    3  A    between atoms: C18_23  and  O2_24 
ROOT
HETATM    1  P1  UNL     1      21.180   0.807  52.871  1.00  0.00    -0.038 P 
HETATM    2  C8  UNL     1      20.563  -0.028  53.390  1.00  0.00     0.054 A 
HETATM    3  N1  UNL     1      19.923  -0.901  53.920  1.00  0.00    -0.264 NA
HETATM    4  C9  UNL     1      18.737  -1.255  53.442  1.00  0.00     0.118 C 
HETATM    5  C10 UNL     1      17.922  -0.808  52.332  1.00  0.00     0.036 C 
HETATM    6  C11 UNL     1      18.534   0.106  51.736  1.00  0.00     0.084 C 
HETATM    7  N2  UNL     1      19.406   1.089  51.249  1.00  0.00    -0.395 N 
HETATM    8  C12 UNL     1      20.293   1.880  52.064  1.00  0.00     0.157 A 
HETATM    9  C13 UNL     1      21.471   1.186  52.628  1.00  0.00     0.068 A 
HETATM   10  C14 UNL     1      22.725   0.652  53.070  1.00  0.00     0.059 A 
HETATM   11  C15 UNL     1      23.971   1.271  52.730  1.00  0.00     0.066 C 
HETATM   12  C16 UNL     1      25.297   1.247  52.514  1.00  0.00    -0.006 C 
HETATM   13  P2  UNL     1      25.876   0.045  53.587  1.00  0.00    -0.053 P 
HETATM   14  C17 UNL     1      24.345  -0.893  54.132  1.00  0.00     0.045 C 
HETATM   15  C18 UNL     1      23.115  -0.501  53.829  1.00  0.00     0.059 C 
HETATM   16  H11 UNL     1      19.451   1.277  50.197  1.00  0.00     0.159 HD
ENDROOT
BRANCH   1  17
HETATM   17  C7  UNL     1      22.499   2.675  51.696  1.00  0.00    -0.014 A 
HETATM   18  C2  UNL     1      22.847   2.471  50.427  1.00  0.00     0.072 A 
HETATM   19  C3  UNL     1      23.634   3.543  50.187  1.00  0.00     0.016 A 
HETATM   20  C4  UNL     1      23.833   4.470  51.235  1.00  0.00     0.025 A 
HETATM   21  C5  UNL     1      23.417   4.651  52.627  1.00  0.00     0.009 A 
HETATM   22  C6  UNL     1      22.912   3.700  52.341  1.00  0.00     0.035 A 
BRANCH  18  23
HETATM   23  O1  UNL     1      22.274   1.300  49.954  1.00  0.00    -0.356 OA
HETATM   24  C1  UNL     1      21.788   1.358  48.598  1.00  0.00     0.210 C 
ENDBRANCH  18  23
ENDBRANCH   1  17
BRANCH  15  25
HETATM   25  O2  UNL     1      22.314  -1.433  54.390  1.00  0.00    -0.364 OA
HETATM   26  H16 UNL     1      22.617  -2.014  55.190  1.00  0.00     0.217 HD
ENDBRANCH  15  25
TORSDOF 3
ENDMDL
MODEL 4
REMARK VINA RESULT:      -7.9      2.649      4.841
REMARK  3 active torsions:
REMARK  status: ('A' for Active; 'I' for Inactive)
REMARK    1  A    between atoms: O1_2  and  C2_3 
REMARK    2  A    between atoms: C7_8  and  P1_9 
REMARK    3  A    between atoms: C18_23  and  O2_24 
ROOT
HETATM    1  P1  UNL     1      21.599   1.122  52.331  1.00  0.00    -0.038 P 
HETATM    2  C8  UNL     1      21.114   0.374  53.074  1.00  0.00     0.054 A 
HETATM    3  N1  UNL     1      20.610  -0.412  53.838  1.00  0.00    -0.264 NA
HETATM    4  C9  UNL     1      19.394  -0.891  53.610  1.00  0.00     0.118 C 
HETATM    5  C10 UNL     1      18.407  -0.685  52.572  1.00  0.00     0.036 C 
HETATM    6  C11 UNL     1      18.870   0.127  51.741  1.00  0.00     0.084 C 
HETATM    7  N2  UNL     1      19.603   1.037  50.966  1.00  0.00    -0.395 N 
HETATM    8  C12 UNL     1      20.542   1.996  51.489  1.00  0.00     0.157 A 
HETATM    9  C13 UNL     1      21.829   1.462  51.985  1.00  0.00     0.068 A 
HETATM   10  C14 UNL     1      23.163   1.065  52.324  1.00  0.00     0.059 A 
HETATM   11  C15 UNL     1      24.308   1.657  51.700  1.00  0.00     0.066 C 
HETATM   12  C16 UNL     1      25.590   1.643  51.298  1.00  0.00    -0.006 C 
HETATM   13  P2  UNL     1      26.388   0.680  52.467  1.00  0.00    -0.053 P 
HETATM   14  C17 UNL     1      25.010  -0.199  53.388  1.00  0.00     0.045 C 
HETATM   15  C18 UNL     1      23.727   0.084  53.207  1.00  0.00     0.059 C 
HETATM   16  H11 UNL     1      19.489   1.031  49.902  1.00  0.00     0.159 HD
ENDROOT
BRANCH   1  17
HETATM   17  C7  UNL     1      22.621   2.792  50.665  1.00  0.00    -0.014 A 
HETATM   18  C2  UNL     1      22.838   4.032  51.099  1.00  0.00     0.072 A 
HETATM   19  C3  UNL     1      23.216   4.655  49.961  1.00  0.00     0.016 A 
HETATM   20  C4  UNL     1      23.270   3.892  48.772  1.00  0.00     0.025 A 
HETATM   21  C5  UNL     1      23.022   2.514  48.346  1.00  0.00     0.009 A 
HETATM   22  C6  UNL     1      22.795   2.479  49.436  1.00  0.00     0.035 A 
BRANCH  18  23
HETATM   23  O1  UNL     1      22.583   4.117  52.459  1.00  0.00    -0.356 OA
HETATM   24  C1  UNL     1      23.532   4.895  53.216  1.00  0.00     0.210 C 
ENDBRANCH  18  23
ENDBRANCH   1  17
BRANCH  15  25
HETATM   25  O2  UNL     1      23.073  -0.759  54.034  1.00  0.00    -0.364 OA
HETATM   26  H16 UNL     1      23.423  -1.709  54.247  1.00  0.00     0.217 HD
ENDBRANCH  15  25
TORSDOF 3
ENDMDL
MODEL 5
REMARK VINA RESULT:      -7.8      2.465      3.672
REMARK  3 active torsions:
REMARK  status: ('A' for Active; 'I' for Inactive)
REMARK    1  A    between atoms: O1_2  and  C2_3 
REMARK    2  A    between atoms: C7_8  and  P1_9 
REMARK    3  A    between atoms: C18_23  and  O2_24 
ROOT
HETATM    1  P1  UNL     1      23.849   1.954  52.018  1.00  0.00    -0.038 P 
HETATM    2  C8  UNL     1      23.918   0.993  52.667  1.00  0.00     0.054 A 
HETATM    3  N1  UNL     1      23.992   0.002  53.350  1.00  0.00    -0.264 NA
HETATM    4  C9  UNL     1      25.082  -0.247  54.063  1.00  0.00     0.118 C 
HETATM    5  C10 UNL     1      26.346   0.433  54.246  1.00  0.00     0.036 C 
HETATM    6  C11 UNL     1      26.336   1.478  53.558  1.00  0.00     0.084 C 
HETATM    7  N2  UNL     1      26.081   2.572  52.719  1.00  0.00    -0.395 N 
HETATM    8  C12 UNL     1      25.271   2.526  51.529  1.00  0.00     0.157 A 
HETATM    9  C13 UNL     1      23.810   2.401  51.724  1.00  0.00     0.068 A 
HETATM   10  C14 UNL     1      22.382   2.458  51.812  1.00  0.00     0.059 A 
HETATM   11  C15 UNL     1      21.627   3.498  51.179  1.00  0.00     0.066 C 
HETATM   12  C16 UNL     1      20.547   4.287  51.060  1.00  0.00    -0.006 C 
HETATM   13  P2  UNL     1      19.252   3.313  51.611  1.00  0.00    -0.053 P 
HETATM   14  C17 UNL     1      20.073   1.879  52.498  1.00  0.00     0.045 C 
HETATM   15  C18 UNL     1      21.383   1.673  52.479  1.00  0.00     0.059 C 
HETATM   16  H11 UNL     1      26.491   3.529  52.965  1.00  0.00     0.159 HD
ENDROOT
BRANCH   1  17
HETATM   17  C7  UNL     1      23.751   4.084  50.583  1.00  0.00    -0.014 A 
HETATM   18  C2  UNL     1      23.709   3.929  49.261  1.00  0.00     0.072 A 
HETATM   19  C3  UNL     1      23.822   5.206  48.835  1.00  0.00     0.016 A 
HETATM   20  C4  UNL     1      23.934   6.225  49.808  1.00  0.00     0.025 A 
HETATM   21  C5  UNL     1      23.971   6.342  51.266  1.00  0.00     0.009 A 
HETATM   22  C6  UNL     1      23.866   5.244  51.111  1.00  0.00     0.035 A 
BRANCH  18  23
HETATM   23  O1  UNL     1      23.580   2.586  48.939  1.00  0.00    -0.356 OA
HETATM   24  C1  UNL     1      22.599   2.288  47.926  1.00  0.00     0.210 C 
ENDBRANCH  18  23
ENDBRANCH   1  17
BRANCH  15  25
HETATM   25  O2  UNL     1      21.565   0.566  53.230  1.00  0.00    -0.364 OA
HETATM   26  H16 UNL     1      22.496   0.137  53.367  1.00  0.00     0.217 HD
ENDBRANCH  15  25
TORSDOF 3
ENDMDL
MODEL 6
REMARK VINA RESULT:      -7.8      2.941      4.525
REMARK  3 active torsions:
REMARK  status: ('A' for Active; 'I' for Inactive)
REMARK    1  A    between atoms: O1_2  and  C2_3 
REMARK    2  A    between atoms: C7_8  and  P1_9 
REMARK    3  A    between atoms: C18_23  and  O2_24 
ROOT
HETATM    1  P1  UNL     1      24.864   3.485  49.970  1.00  0.00    -0.038 P 
HETATM    2  C8  UNL     1      25.965   3.629  49.632  1.00  0.00     0.054 A 
HETATM    3  N1  UNL     1      27.111   3.786  49.288  1.00  0.00    -0.264 NA
HETATM    4  C9  UNL     1      27.515   4.951  48.798  1.00  0.00     0.118 C 
HETATM    5  C10 UNL     1      26.863   6.215  48.533  1.00  0.00     0.036 C 
HETATM    6  C11 UNL     1      25.662   6.119  48.869  1.00  0.00     0.084 C 
HETATM    7  N2  UNL     1      24.381   5.764  49.315  1.00  0.00    -0.395 N 
HETATM    8  C12 UNL     1      23.812   4.445  49.220  1.00  0.00     0.157 A 
HETATM    9  C13 UNL     1      24.358   3.419  50.135  1.00  0.00     0.068 A 
HETATM   10  C14 UNL     1      24.696   2.409  51.094  1.00  0.00     0.059 A 
HETATM   11  C15 UNL     1      23.701   1.781  51.911  1.00  0.00     0.066 C 
HETATM   12  C16 UNL     1      23.299   1.133  53.016  1.00  0.00    -0.006 C 
HETATM   13  P2  UNL     1      24.653   0.185  53.464  1.00  0.00    -0.053 P 
HETATM   14  C17 UNL     1      26.083   0.894  52.478  1.00  0.00     0.045 C 
HETATM   15  C18 UNL     1      25.923   1.809  51.533  1.00  0.00     0.059 C 
HETATM   16  H11 UNL     1      23.764   6.504  49.780  1.00  0.00     0.159 HD
ENDROOT
BRANCH   1  17
HETATM   17  C7  UNL     1      22.411   3.212  50.687  1.00  0.00    -0.014 A 
HETATM   18  C2  UNL     1      21.655   2.380  49.974  1.00  0.00     0.072 A 
HETATM   19  C3  UNL     1      20.434   2.596  50.511  1.00  0.00     0.016 A 
HETATM   20  C4  UNL     1      20.326   3.534  51.562  1.00  0.00     0.025 A 
HETATM   21  C5  UNL     1      21.201   4.429  52.321  1.00  0.00     0.009 A 
HETATM   22  C6  UNL     1      21.906   3.940  51.611  1.00  0.00     0.035 A 
BRANCH  18  23
HETATM   23  O1  UNL     1      22.430   1.706  49.042  1.00  0.00    -0.356 OA
HETATM   24  C1  UNL     1      21.984   1.814  47.676  1.00  0.00     0.210 C 
ENDBRANCH  18  23
ENDBRANCH   1  17
BRANCH  15  25
HETATM   25  O2  UNL     1      27.172   2.053  51.081  1.00  0.00    -0.364 OA
HETATM   26  H16 UNL     1      27.865   1.300  50.936  1.00  0.00     0.217 HD
ENDBRANCH  15  25
TORSDOF 3
ENDMDL
MODEL 7
REMARK VINA RESULT:      -7.7      3.106      4.673
REMARK  3 active torsions:
REMARK  status: ('A' for Active; 'I' for Inactive)
REMARK    1  A    between atoms: O1_2  and  C2_3 
REMARK    2  A    between atoms: C7_8  and  P1_9 
REMARK    3  A    between atoms: C18_23  and  O2_24 
ROOT
HETATM    1  P1  UNL     1      24.850   3.842  49.571  1.00  0.00    -0.038 P 
HETATM    2  C8  UNL     1      25.902   4.283  49.355  1.00  0.00     0.054 A 
HETATM    3  N1  UNL     1      26.992   4.750  49.138  1.00  0.00    -0.264 NA
HETATM    4  C9  UNL     1      27.116   5.964  48.618  1.00  0.00     0.118 C 
HETATM    5  C10 UNL     1      26.178   6.979  48.189  1.00  0.00     0.036 C 
HETATM    6  C11 UNL     1      25.018   6.555  48.388  1.00  0.00     0.084 C 
HETATM    7  N2  UNL     1      23.840   5.864  48.705  1.00  0.00    -0.395 N 
HETATM    8  C12 UNL     1      23.680   4.434  48.637  1.00  0.00     0.157 A 
HETATM    9  C13 UNL     1      24.365   3.639  49.680  1.00  0.00     0.068 A 
HETATM   10  C14 UNL     1      24.841   2.802  50.740  1.00  0.00     0.059 A 
HETATM   11  C15 UNL     1      23.963   1.945  51.478  1.00  0.00     0.066 C 
HETATM   12  C16 UNL     1      23.615   1.246  52.571  1.00  0.00    -0.006 C 
HETATM   13  P2  UNL     1      25.108   0.742  53.241  1.00  0.00    -0.053 P 
HETATM   14  C17 UNL     1      26.400   1.796  52.382  1.00  0.00     0.045 C 
HETATM   15  C18 UNL     1      26.118   2.594  51.362  1.00  0.00     0.059 C 
HETATM   16  H11 UNL     1      22.985   6.411  49.041  1.00  0.00     0.159 HD
ENDROOT
BRANCH   1  17
HETATM   17  C7  UNL     1      22.498   2.903  50.013  1.00  0.00    -0.014 A 
HETATM   18  C2  UNL     1      21.741   3.546  50.900  1.00  0.00     0.072 A 
HETATM   19  C3  UNL     1      20.677   2.718  50.997  1.00  0.00     0.016 A 
HETATM   20  C4  UNL     1      20.675   1.543  50.212  1.00  0.00     0.025 A 
HETATM   21  C5  UNL     1      21.541   0.878  49.238  1.00  0.00     0.009 A 
HETATM   22  C6  UNL     1      22.120   1.794  49.498  1.00  0.00     0.035 A 
BRANCH  18  23
HETATM   23  O1  UNL     1      22.364   4.716  51.305  1.00  0.00    -0.356 OA
HETATM   24  C1  UNL     1      21.531   5.893  51.294  1.00  0.00     0.210 C 
ENDBRANCH  18  23
ENDBRANCH   1  17
BRANCH  15  25
HETATM   25  O2  UNL     1      27.297   3.170  51.044  1.00  0.00    -0.364 OA
HETATM   26  H16 UNL     1      27.742   3.887  51.641  1.00  0.00     0.217 HD
ENDBRANCH  15  25
TORSDOF 3
ENDMDL
MODEL 8
REMARK VINA RESULT:      -7.6      3.524      5.103
REMARK  3 active torsions:
REMARK  status: ('A' for Active; 'I' for Inactive)
REMARK    1  A    between atoms: O1_2  and  C2_3 
REMARK    2  A    between atoms: C7_8  and  P1_9 
REMARK    3  A    between atoms: C18_23  and  O2_24 
ROOT
HETATM    1  P1  UNL     1      25.176   4.381  49.435  1.00  0.00    -0.038 P 
HETATM    2  C8  UNL     1      26.314   4.330  49.214  1.00  0.00     0.054 A 
HETATM    3  N1  UNL     1      27.498   4.286  48.990  1.00  0.00    -0.264 NA
HETATM    4  C9  UNL     1      28.141   5.354  48.535  1.00  0.00     0.118 C 
HETATM    5  C10 UNL     1      27.741   6.701  48.191  1.00  0.00     0.036 C 
HETATM    6  C11 UNL     1      26.513   6.815  48.400  1.00  0.00     0.084 C 
HETATM    7  N2  UNL     1      25.152   6.690  48.712  1.00  0.00    -0.395 N 
HETATM    8  C12 UNL     1      24.381   5.482  48.571  1.00  0.00     0.157 A 
HETATM    9  C13 UNL     1      24.651   4.404  49.547  1.00  0.00     0.068 A 
HETATM   10  C14 UNL     1      24.715   3.378  50.545  1.00  0.00     0.059 A 
HETATM   11  C15 UNL     1      23.551   2.947  51.260  1.00  0.00     0.066 C 
HETATM   12  C16 UNL     1      22.934   2.404  52.322  1.00  0.00    -0.006 C 
HETATM   13  P2  UNL     1      24.057   1.257  52.919  1.00  0.00    -0.053 P 
HETATM   14  C17 UNL     1      25.679   1.691  52.082  1.00  0.00     0.045 C 
HETATM   15  C18 UNL     1      25.772   2.595  51.116  1.00  0.00     0.059 C 
HETATM   16  H11 UNL     1      24.623   7.535  49.103  1.00  0.00     0.159 HD
ENDROOT
BRANCH   1  17
HETATM   17  C7  UNL     1      22.651   4.539  49.894  1.00  0.00    -0.014 A 
HETATM   18  C2  UNL     1      21.844   3.810  49.125  1.00  0.00     0.072 A 
HETATM   19  C3  UNL     1      20.628   4.243  49.523  1.00  0.00     0.016 A 
HETATM   20  C4  UNL     1      20.571   5.231  50.532  1.00  0.00     0.025 A 
HETATM   21  C5  UNL     1      21.499   6.004  51.357  1.00  0.00     0.009 A 
HETATM   22  C6  UNL     1      22.183   5.378  50.740  1.00  0.00     0.035 A 
BRANCH  18  23
HETATM   23  O1  UNL     1      22.587   2.980  48.300  1.00  0.00    -0.356 OA
HETATM   24  C1  UNL     1      22.026   1.671  48.076  1.00  0.00     0.210 C 
ENDBRANCH  18  23
ENDBRANCH   1  17
BRANCH  15  25
HETATM   25  O2  UNL     1      27.084   2.616  50.796  1.00  0.00    -0.364 OA
HETATM   26  H16 UNL     1      27.692   1.786  50.900  1.00  0.00     0.217 HD
ENDBRANCH  15  25
TORSDOF 3
ENDMDL
MODEL 9
REMARK VINA RESULT:      -7.5     10.537     12.433
REMARK  3 active torsions:
REMARK  status: ('A' for Active; 'I' for Inactive)
REMARK    1  A    between atoms: O1_2  and  C2_3 
REMARK    2  A    between atoms: C7_8  and  P1_9 
REMARK    3  A    between atoms: C18_23  and  O2_24 
ROOT
HETATM    1  P1  UNL     1      31.597   6.789  46.996  1.00  0.00    -0.038 P 
HETATM    2  C8  UNL     1      31.061   7.816  46.924  1.00  0.00     0.054 A 
HETATM    3  N1  UNL     1      30.513   8.888  46.852  1.00  0.00    -0.264 NA
HETATM    4  C9  UNL     1      30.422   9.674  47.918  1.00  0.00     0.118 C 
HETATM    5  C10 UNL     1      30.850   9.559  49.295  1.00  0.00     0.036 C 
HETATM    6  C11 UNL     1      31.430   8.459  49.439  1.00  0.00     0.084 C 
HETATM    7  N2  UNL     1      32.028   7.195  49.342  1.00  0.00    -0.395 N 
HETATM    8  C12 UNL     1      31.586   6.139  48.468  1.00  0.00     0.157 A 
HETATM    9  C13 UNL     1      31.852   6.318  47.024  1.00  0.00     0.068 A 
HETATM   10  C14 UNL     1      32.219   6.318  45.639  1.00  0.00     0.059 A 
HETATM   11  C15 UNL     1      32.963   5.242  45.055  1.00  0.00     0.066 C 
HETATM   12  C16 UNL     1      33.796   4.727  44.136  1.00  0.00    -0.006 C 
HETATM   13  P2  UNL     1      33.465   5.626  42.717  1.00  0.00    -0.053 P 
HETATM   14  C17 UNL     1      32.487   7.114  43.308  1.00  0.00     0.045 C 
HETATM   15  C18 UNL     1      32.048   7.240  44.553  1.00  0.00     0.059 C 
HETATM   16  H11 UNL     1      32.889   6.975  49.938  1.00  0.00     0.159 HD
ENDROOT
BRANCH   1  17
HETATM   17  C7  UNL     1      32.779   4.517  47.211  1.00  0.00    -0.014 A 
HETATM   18  C2  UNL     1      34.063   4.527  47.564  1.00  0.00     0.072 A 
HETATM   19  C3  UNL     1      34.391   3.223  47.429  1.00  0.00     0.016 A 
HETATM   20  C4  UNL     1      33.385   2.324  47.005  1.00  0.00     0.025 A 
HETATM   21  C5  UNL     1      31.971   2.366  46.631  1.00  0.00     0.009 A 
HETATM   22  C6  UNL     1      32.193   3.430  46.871  1.00  0.00     0.035 A 
BRANCH  18  23
HETATM   23  O1  UNL     1      34.461   5.814  47.888  1.00  0.00    -0.356 OA
HETATM   24  C1  UNL     1      35.415   5.911  48.965  1.00  0.00     0.210 C 
ENDBRANCH  18  23
ENDBRANCH   1  17
BRANCH  15  25
HETATM   25  O2  UNL     1      31.411   8.430  44.570  1.00  0.00    -0.364 OA
HETATM   26  H16 UNL     1      31.587   9.162  43.861  1.00  0.00     0.217 HD
ENDBRANCH  15  25
TORSDOF 3
ENDMDL
