MODEL 1
REMARK VINA RESULT:      -9.3      0.000      0.000
REMARK  5 active torsions:
REMARK  status: ('A' for Active; 'I' for Inactive)
REMARK    1  A    between atoms: C4_5  and  C5_6 
REMARK    2  A    between atoms: C6_7  and  O1_8 
REMARK    3  A    between atoms: C8_10  and  O2_11 
REMARK    4  A    between atoms: O2_11  and  O3_12 
REMARK    5  A    between atoms: C18_24  and  O5_25 
ROOT
HETATM    1  C5  UNL     1      23.652   1.442  52.115  1.00  0.00    -0.009 C 
HETATM    2  C6  UNL     1      22.946   0.831  53.110  1.00  0.00     0.073 C 
HETATM    3  C7  UNL     1      23.735  -0.055  54.009  1.00  0.00     0.073 C 
HETATM    4  C8  UNL     1      25.056  -0.340  53.895  1.00  0.00     0.102 C 
HETATM    5  C9  UNL     1      25.714   0.257  52.663  1.00  0.00     0.071 C 
HETATM    6  C10 UNL     1      26.351  -0.828  51.995  1.00  0.00     0.045 C 
HETATM    7  C11 UNL     1      27.605  -0.587  52.845  1.00  0.00     0.043 A 
HETATM    8  C12 UNL     1      28.681  -0.005  53.547  1.00  0.00     0.026 A 
HETATM    9 CL1  UNL     1      29.651  -1.413  54.011  1.00  0.00    -0.088 Cl
HETATM   10  C13 UNL     1      29.125   1.252  53.924  1.00  0.00     0.023 A 
HETATM   11  C14 UNL     1      28.314   2.340  53.525  1.00  0.00     0.038 A 
HETATM   12  C15 UNL     1      27.106   2.160  52.781  1.00  0.00     0.074 A 
HETATM   13  C16 UNL     1      27.125   0.754  52.677  1.00  0.00    -0.013 A 
HETATM   14  O4  UNL     1      25.921   2.507  52.086  1.00  0.00    -0.340 OA
HETATM   15  C17 UNL     1      25.047   1.482  52.463  1.00  0.00     0.180 C 
ENDROOT
BRANCH   1  16
HETATM   16  C4  UNL     1      23.457   2.316  50.963  1.00  0.00     0.052 C 
HETATM   17  C3  UNL     1      22.599   1.686  49.892  1.00  0.00     0.042 C 
HETATM   18  C2  UNL     1      22.067   2.746  48.991  1.00  0.00     0.272 C 
HETATM   19  N1  UNL     1      23.023   3.822  48.870  1.00  0.00     0.086 N 
HETATM   20  C1  UNL     1      22.718   4.753  47.823  1.00  0.00     0.310 C 
HETATM   21  C19 UNL     1      23.070   4.563  50.118  1.00  0.00     0.303 C 
HETATM   22  C18 UNL     1      22.811   3.643  51.317  1.00  0.00     0.154 C 
BRANCH  22  23
HETATM   23  O5  UNL     1      23.499   4.266  52.376  1.00  0.00    -0.393 OA
HETATM   24  H18 UNL     1      24.042   3.647  52.906  1.00  0.00     0.210 HD
ENDBRANCH  22  23
ENDBRANCH   1  16
BRANCH   2  25
HETATM   25  O1  UNL     1      21.546   0.983  53.269  1.00  0.00    -0.360 OA
HETATM   26  H9  UNL     1      21.137   1.901  53.333  1.00  0.00     0.217 HD
ENDBRANCH   2  25
BRANCH   4  27
HETATM   27  O2  UNL     1      25.723  -1.141  54.798  1.00  0.00    -0.203 OA
BRANCH  27  28
HETATM   28  O3  UNL     1      25.319  -1.427  56.032  1.00  0.00    -0.245 OA
HETATM   29  H11 UNL     1      25.778  -2.270  56.279  1.00  0.00     0.254 HD
ENDBRANCH  27  28
ENDBRANCH   4  27
TORSDOF 5
ENDMDL
MODEL 2
REMARK VINA RESULT:      -8.0      7.467     10.046
REMARK  5 active torsions:
REMARK  status: ('A' for Active; 'I' for Inactive)
REMARK    1  A    between atoms: C4_5  and  C5_6 
REMARK    2  A    between atoms: C6_7  and  O1_8 
REMARK    3  A    between atoms: C8_10  and  O2_11 
REMARK    4  A    between atoms: O2_11  and  O3_12 
REMARK    5  A    between atoms: C18_24  and  O5_25 
ROOT
HETATM    1  C5  UNL     1      30.769   7.210  48.072  1.00  0.00    -0.009 C 
HETATM    2  C6  UNL     1      30.909   8.288  48.897  1.00  0.00     0.073 C 
HETATM    3  C7  UNL     1      29.642   8.871  49.417  1.00  0.00     0.073 C 
HETATM    4  C8  UNL     1      28.386   8.463  49.107  1.00  0.00     0.102 C 
HETATM    5  C9  UNL     1      28.333   7.365  48.057  1.00  0.00     0.071 C 
HETATM    6  C10 UNL     1      27.452   7.838  47.042  1.00  0.00     0.045 C 
HETATM    7  C11 UNL     1      26.273   7.230  47.812  1.00  0.00     0.043 A 
HETATM    8  C12 UNL     1      25.429   6.383  48.559  1.00  0.00     0.026 A 
HETATM    9 CL1  UNL     1      23.872   7.226  48.493  1.00  0.00    -0.088 Cl
HETATM   10  C13 UNL     1      25.499   5.187  49.254  1.00  0.00     0.023 A 
HETATM   11  C14 UNL     1      26.764   4.554  49.272  1.00  0.00     0.038 A 
HETATM   12  C15 UNL     1      27.906   5.113  48.617  1.00  0.00     0.074 A 
HETATM   13  C16 UNL     1      27.307   6.278  48.096  1.00  0.00    -0.013 A 
HETATM   14  O4  UNL     1      29.245   5.222  48.165  1.00  0.00    -0.340 OA
HETATM   15  C17 UNL     1      29.487   6.593  48.293  1.00  0.00     0.180 C 
ENDROOT
BRANCH   1  16
HETATM   16  C4  UNL     1      31.565   6.299  47.257  1.00  0.00     0.052 C 
HETATM   17  C3  UNL     1      32.259   6.997  46.112  1.00  0.00     0.042 C 
HETATM   18  C2  UNL     1      33.379   6.150  45.616  1.00  0.00     0.272 C 
HETATM   19  N1  UNL     1      33.045   4.752  45.756  1.00  0.00     0.086 N 
HETATM   20  C1  UNL     1      33.940   3.870  45.065  1.00  0.00     0.310 C 
HETATM   21  C19 UNL     1      33.070   4.391  47.163  1.00  0.00     0.303 C 
HETATM   22  C18 UNL     1      32.640   5.571  48.043  1.00  0.00     0.154 C 
BRANCH  22  23
HETATM   23  O5  UNL     1      32.093   4.957  49.186  1.00  0.00    -0.393 OA
HETATM   24  H18 UNL     1      31.467   5.531  49.674  1.00  0.00     0.210 HD
ENDBRANCH  22  23
ENDBRANCH   1  16
BRANCH   2  25
HETATM   25  O1  UNL     1      32.167   8.857  49.217  1.00  0.00    -0.360 OA
HETATM   26  H9  UNL     1      32.657   8.574  50.048  1.00  0.00     0.217 HD
ENDBRANCH   2  25
BRANCH   4  27
HETATM   27  O2  UNL     1      27.262   9.032  49.667  1.00  0.00    -0.203 OA
BRANCH  27  28
HETATM   28  O3  UNL     1      27.186   9.582  50.874  1.00  0.00    -0.245 OA
HETATM   29  H11 UNL     1      28.028   9.342  51.336  1.00  0.00     0.254 HD
ENDBRANCH  27  28
ENDBRANCH   4  27
TORSDOF 5
ENDMDL
MODEL 3
REMARK VINA RESULT:      -8.0      3.273      6.252
REMARK  5 active torsions:
REMARK  status: ('A' for Active; 'I' for Inactive)
REMARK    1  A    between atoms: C4_5  and  C5_6 
REMARK    2  A    between atoms: C6_7  and  O1_8 
REMARK    3  A    between atoms: C8_10  and  O2_11 
REMARK    4  A    between atoms: O2_11  and  O3_12 
REMARK    5  A    between atoms: C18_24  and  O5_25 
ROOT
HETATM    1  C5  UNL     1      24.800   0.739  53.037  1.00  0.00    -0.009 C 
HETATM    2  C6  UNL     1      23.565   0.200  53.253  1.00  0.00     0.073 C 
HETATM    3  C7  UNL     1      22.411   1.080  52.918  1.00  0.00     0.073 C 
HETATM    4  C8  UNL     1      22.481   2.361  52.476  1.00  0.00     0.102 C 
HETATM    5  C9  UNL     1      23.893   2.921  52.426  1.00  0.00     0.071 C 
HETATM    6  C10 UNL     1      23.857   4.137  53.166  1.00  0.00     0.045 C 
HETATM    7  C11 UNL     1      23.461   4.881  51.885  1.00  0.00     0.043 A 
HETATM    8  C12 UNL     1      23.363   5.346  50.557  1.00  0.00     0.026 A 
HETATM    9 CL1  UNL     1      22.270   6.732  50.708  1.00  0.00    -0.088 Cl
HETATM   10  C13 UNL     1      23.854   5.030  49.301  1.00  0.00     0.023 A 
HETATM   11  C14 UNL     1      24.724   3.916  49.239  1.00  0.00     0.038 A 
HETATM   12  C15 UNL     1      25.078   3.157  50.398  1.00  0.00     0.074 A 
HETATM   13  C16 UNL     1      24.333   3.872  51.358  1.00  0.00    -0.013 A 
HETATM   14  O4  UNL     1      25.706   2.153  51.175  1.00  0.00    -0.340 OA
HETATM   15  C17 UNL     1      24.701   1.817  52.089  1.00  0.00     0.180 C 
ENDROOT
BRANCH   1  16
HETATM   16  C4  UNL     1      26.215   0.426  53.208  1.00  0.00     0.052 C 
HETATM   17  C3  UNL     1      26.775   0.953  54.507  1.00  0.00     0.042 C 
HETATM   18  C2  UNL     1      28.039   0.236  54.833  1.00  0.00     0.272 C 
HETATM   19  N1  UNL     1      28.740  -0.114  53.620  1.00  0.00     0.086 N 
HETATM   20  C1  UNL     1      30.084  -0.565  53.836  1.00  0.00     0.310 C 
HETATM   21  C19 UNL     1      28.021  -1.179  52.941  1.00  0.00     0.303 C 
HETATM   22  C18 UNL     1      26.511  -1.061  53.174  1.00  0.00     0.154 C 
BRANCH  22  23
HETATM   23  O5  UNL     1      25.946  -1.658  52.031  1.00  0.00    -0.393 OA
HETATM   24  H18 UNL     1      25.503  -1.017  51.436  1.00  0.00     0.210 HD
ENDBRANCH  22  23
ENDBRANCH   1  16
BRANCH   2  25
HETATM   25  O1  UNL     1      23.371  -1.094  53.797  1.00  0.00    -0.360 OA
HETATM   26  H9  UNL     1      24.138  -1.589  54.219  1.00  0.00     0.217 HD
ENDBRANCH   2  25
BRANCH   4  27
HETATM   27  O2  UNL     1      21.362   3.095  52.149  1.00  0.00    -0.203 OA
BRANCH  27  28
HETATM   28  O3  UNL     1      20.206   3.088  52.805  1.00  0.00    -0.245 OA
HETATM   29  H11 UNL     1      20.387   2.640  53.670  1.00  0.00     0.254 HD
ENDBRANCH  27  28
ENDBRANCH   4  27
TORSDOF 5
ENDMDL
MODEL 4
REMARK VINA RESULT:      -8.0      6.078      8.483
REMARK  5 active torsions:
REMARK  status: ('A' for Active; 'I' for Inactive)
REMARK    1  A    between atoms: C4_5  and  C5_6 
REMARK    2  A    between atoms: C6_7  and  O1_8 
REMARK    3  A    between atoms: C8_10  and  O2_11 
REMARK    4  A    between atoms: O2_11  and  O3_12 
REMARK    5  A    between atoms: C18_24  and  O5_25 
ROOT
HETATM    1  C5  UNL     1      27.740   8.176  48.649  1.00  0.00    -0.009 C 
HETATM    2  C6  UNL     1      27.393   9.001  49.679  1.00  0.00     0.073 C 
HETATM    3  C7  UNL     1      26.200   8.584  50.465  1.00  0.00     0.073 C 
HETATM    4  C8  UNL     1      25.414   7.506  50.218  1.00  0.00     0.102 C 
HETATM    5  C9  UNL     1      25.786   6.746  48.955  1.00  0.00     0.071 C 
HETATM    6  C10 UNL     1      24.589   6.656  48.188  1.00  0.00     0.045 C 
HETATM    7  C11 UNL     1      24.238   5.358  48.927  1.00  0.00     0.043 A 
HETATM    8  C12 UNL     1      24.282   4.094  49.550  1.00  0.00     0.026 A 
HETATM    9 CL1  UNL     1      22.571   3.755  49.864  1.00  0.00    -0.088 Cl
HETATM   10  C13 UNL     1      25.220   3.150  49.935  1.00  0.00     0.023 A 
HETATM   11  C14 UNL     1      26.570   3.470  49.657  1.00  0.00     0.038 A 
HETATM   12  C15 UNL     1      26.949   4.694  49.021  1.00  0.00     0.074 A 
HETATM   13  C16 UNL     1      25.667   5.258  48.859  1.00  0.00    -0.013 A 
HETATM   14  O4  UNL     1      27.797   5.677  48.454  1.00  0.00    -0.340 OA
HETATM   15  C17 UNL     1      27.186   6.866  48.868  1.00  0.00     0.180 C 
ENDROOT
BRANCH   1  16
HETATM   16  C4  UNL     1      28.702   8.074  47.557  1.00  0.00     0.052 C 
HETATM   17  C3  UNL     1      28.485   9.120  46.490  1.00  0.00     0.042 C 
HETATM   18  C2  UNL     1      29.721   9.263  45.672  1.00  0.00     0.272 C 
HETATM   19  N1  UNL     1      30.401   7.993  45.570  1.00  0.00     0.086 N 
HETATM   20  C1  UNL     1      31.447   7.972  44.590  1.00  0.00     0.310 C 
HETATM   21  C19 UNL     1      30.993   7.662  46.855  1.00  0.00     0.303 C 
HETATM   22  C18 UNL     1      30.144   8.204  48.010  1.00  0.00     0.154 C 
BRANCH  22  23
HETATM   23  O5  UNL     1      30.415   7.320  49.072  1.00  0.00    -0.393 OA
HETATM   24  H18 UNL     1      30.180   7.683  49.951  1.00  0.00     0.210 HD
ENDBRANCH  22  23
ENDBRANCH   1  16
BRANCH   2  25
HETATM   25  O1  UNL     1      28.087  10.202  49.974  1.00  0.00    -0.360 OA
HETATM   26  H9  UNL     1      27.605  10.977  50.397  1.00  0.00     0.217 HD
ENDBRANCH   2  25
BRANCH   4  27
HETATM   27  O2  UNL     1      24.348   7.165  51.022  1.00  0.00    -0.203 OA
BRANCH  27  28
HETATM   28  O3  UNL     1      24.424   6.734  52.277  1.00  0.00    -0.245 OA
HETATM   29  H11 UNL     1      23.496   6.514  52.545  1.00  0.00     0.254 HD
ENDBRANCH  27  28
ENDBRANCH   4  27
TORSDOF 5
ENDMDL
MODEL 5
REMARK VINA RESULT:      -7.5      2.829      4.863
REMARK  5 active torsions:
REMARK  status: ('A' for Active; 'I' for Inactive)
REMARK    1  A    between atoms: C4_5  and  C5_6 
REMARK    2  A    between atoms: C6_7  and  O1_8 
REMARK    3  A    between atoms: C8_10  and  O2_11 
REMARK    4  A    between atoms: O2_11  and  O3_12 
REMARK    5  A    between atoms: C18_24  and  O5_25 
ROOT
HETATM    1  C5  UNL     1      24.904   4.474  50.371  1.00  0.00    -0.009 C 
HETATM    2  C6  UNL     1      26.136   3.992  50.036  1.00  0.00     0.073 C 
HETATM    3  C7  UNL     1      26.502   2.682  50.639  1.00  0.00     0.073 C 
HETATM    4  C8  UNL     1      25.754   1.966  51.516  1.00  0.00     0.102 C 
HETATM    5  C9  UNL     1      24.476   2.664  51.952  1.00  0.00     0.071 C 
HETATM    6  C10 UNL     1      24.500   2.667  53.377  1.00  0.00     0.045 C 
HETATM    7  C11 UNL     1      23.811   1.298  53.371  1.00  0.00     0.043 A 
HETATM    8  C12 UNL     1      22.969   0.200  53.096  1.00  0.00     0.026 A 
HETATM    9 CL1  UNL     1      23.390  -0.945  54.381  1.00  0.00    -0.088 Cl
HETATM   10  C13 UNL     1      22.001  -0.170  52.178  1.00  0.00     0.023 A 
HETATM   11  C14 UNL     1      21.702   0.782  51.176  1.00  0.00     0.038 A 
HETATM   12  C15 UNL     1      22.360   2.050  51.107  1.00  0.00     0.074 A 
HETATM   13  C16 UNL     1      23.212   1.911  52.222  1.00  0.00    -0.013 A 
HETATM   14  O4  UNL     1      22.681   3.345  50.629  1.00  0.00    -0.340 OA
HETATM   15  C17 UNL     1      24.065   3.394  50.819  1.00  0.00     0.180 C 
ENDROOT
BRANCH   1  16
HETATM   16  C4  UNL     1      24.053   5.642  50.170  1.00  0.00     0.052 C 
HETATM   17  C3  UNL     1      24.618   6.890  50.804  1.00  0.00     0.042 C 
HETATM   18  C2  UNL     1      23.979   8.091  50.196  1.00  0.00     0.272 C 
HETATM   19  N1  UNL     1      22.612   7.797  49.832  1.00  0.00     0.086 N 
HETATM   20  C1  UNL     1      21.842   8.957  49.490  1.00  0.00     0.310 C 
HETATM   21  C19 UNL     1      22.603   6.907  48.684  1.00  0.00     0.303 C 
HETATM   22  C18 UNL     1      23.811   5.964  48.707  1.00  0.00     0.154 C 
BRANCH  22  23
HETATM   23  O5  UNL     1      23.363   4.825  48.011  1.00  0.00    -0.393 OA
HETATM   24  H18 UNL     1      22.595   5.001  47.429  1.00  0.00     0.210 HD
ENDBRANCH  22  23
ENDBRANCH   1  16
BRANCH   2  25
HETATM   25  O1  UNL     1      27.039   4.697  49.201  1.00  0.00    -0.360 OA
HETATM   26  H9  UNL     1      26.718   5.122  48.348  1.00  0.00     0.217 HD
ENDBRANCH   2  25
BRANCH   4  27
HETATM   27  O2  UNL     1      26.149   0.737  51.997  1.00  0.00    -0.203 OA
BRANCH  27  28
HETATM   28  O3  UNL     1      27.280   0.481  52.646  1.00  0.00    -0.245 OA
HETATM   29  H11 UNL     1      27.114  -0.345  53.167  1.00  0.00     0.254 HD
ENDBRANCH  27  28
ENDBRANCH   4  27
TORSDOF 5
ENDMDL
MODEL 6
REMARK VINA RESULT:      -7.4      3.413      6.223
REMARK  5 active torsions:
REMARK  status: ('A' for Active; 'I' for Inactive)
REMARK    1  A    between atoms: C4_5  and  C5_6 
REMARK    2  A    between atoms: C6_7  and  O1_8 
REMARK    3  A    between atoms: C8_10  and  O2_11 
REMARK    4  A    between atoms: O2_11  and  O3_12 
REMARK    5  A    between atoms: C18_24  and  O5_25 
ROOT
HETATM    1  C5  UNL     1      24.627   1.893  51.562  1.00  0.00    -0.009 C 
HETATM    2  C6  UNL     1      25.933   1.584  51.313  1.00  0.00     0.073 C 
HETATM    3  C7  UNL     1      26.657   2.524  50.414  1.00  0.00     0.073 C 
HETATM    4  C8  UNL     1      26.127   3.608  49.793  1.00  0.00     0.102 C 
HETATM    5  C9  UNL     1      24.630   3.770  50.003  1.00  0.00     0.071 C 
HETATM    6  C10 UNL     1      24.063   3.880  48.701  1.00  0.00     0.045 C 
HETATM    7  C11 UNL     1      24.287   5.396  48.753  1.00  0.00     0.043 A 
HETATM    8  C12 UNL     1      24.363   6.747  49.152  1.00  0.00     0.026 A 
HETATM    9 CL1  UNL     1      24.759   7.579  47.639  1.00  0.00    -0.088 Cl
HETATM   10  C13 UNL     1      24.221   7.506  50.302  1.00  0.00     0.023 A 
HETATM   11  C14 UNL     1      23.902   6.791  51.480  1.00  0.00     0.038 A 
HETATM   12  C15 UNL     1      23.739   5.370  51.491  1.00  0.00     0.074 A 
HETATM   13  C16 UNL     1      23.987   5.115  50.127  1.00  0.00    -0.013 A 
HETATM   14  O4  UNL     1      23.481   4.077  52.008  1.00  0.00    -0.340 OA
HETATM   15  C17 UNL     1      24.401   3.291  51.307  1.00  0.00     0.180 C 
ENDROOT
BRANCH   1  16
HETATM   16  C4  UNL     1      23.457   1.374  52.262  1.00  0.00     0.052 C 
HETATM   17  C3  UNL     1      22.321   1.035  51.327  1.00  0.00     0.042 C 
HETATM   18  C2  UNL     1      21.371   0.114  52.009  1.00  0.00     0.272 C 
HETATM   19  N1  UNL     1      21.324   0.404  53.423  1.00  0.00     0.086 N 
HETATM   20  C1  UNL     1      20.249  -0.246  54.113  1.00  0.00     0.310 C 
HETATM   21  C19 UNL     1      22.567  -0.024  54.041  1.00  0.00     0.303 C 
HETATM   22  C18 UNL     1      23.745   0.124  53.072  1.00  0.00     0.154 C 
BRANCH  22  23
HETATM   23  O5  UNL     1      24.855   0.320  53.917  1.00  0.00    -0.393 OA
HETATM   24  H18 UNL     1      24.799   1.141  54.448  1.00  0.00     0.210 HD
ENDBRANCH  22  23
ENDBRANCH   1  16
BRANCH   2  25
HETATM   25  O1  UNL     1      26.567   0.429  51.834  1.00  0.00    -0.360 OA
HETATM   26  H9  UNL     1      26.066  -0.442  51.897  1.00  0.00     0.217 HD
ENDBRANCH   2  25
BRANCH   4  27
HETATM   27  O2  UNL     1      26.878   4.453  49.006  1.00  0.00    -0.203 OA
BRANCH  27  28
HETATM   28  O3  UNL     1      28.041   5.003  49.342  1.00  0.00    -0.245 OA
HETATM   29  H11 UNL     1      28.740   4.423  48.947  1.00  0.00     0.254 HD
ENDBRANCH  27  28
ENDBRANCH   4  27
TORSDOF 5
ENDMDL
MODEL 7
REMARK VINA RESULT:      -7.2      8.793     10.249
REMARK  5 active torsions:
REMARK  status: ('A' for Active; 'I' for Inactive)
REMARK    1  A    between atoms: C4_5  and  C5_6 
REMARK    2  A    between atoms: C6_7  and  O1_8 
REMARK    3  A    between atoms: C8_10  and  O2_11 
REMARK    4  A    between atoms: O2_11  and  O3_12 
REMARK    5  A    between atoms: C18_24  and  O5_25 
ROOT
HETATM    1  C5  UNL     1      29.880   8.112  48.073  1.00  0.00    -0.009 C 
HETATM    2  C6  UNL     1      29.132   7.060  48.516  1.00  0.00     0.073 C 
HETATM    3  C7  UNL     1      29.760   5.718  48.376  1.00  0.00     0.073 C 
HETATM    4  C8  UNL     1      30.965   5.452  47.810  1.00  0.00     0.102 C 
HETATM    5  C9  UNL     1      31.644   6.668  47.201  1.00  0.00     0.071 C 
HETATM    6  C10 UNL     1      31.953   6.310  45.857  1.00  0.00     0.045 C 
HETATM    7  C11 UNL     1      33.292   5.739  46.340  1.00  0.00     0.043 A 
HETATM    8  C12 UNL     1      34.527   5.530  46.989  1.00  0.00     0.026 A 
HETATM    9 CL1  UNL     1      35.174   4.111  46.149  1.00  0.00    -0.088 Cl
HETATM   10  C13 UNL     1      35.282   6.093  48.005  1.00  0.00     0.023 A 
HETATM   11  C14 UNL     1      34.720   7.226  48.639  1.00  0.00     0.038 A 
HETATM   12  C15 UNL     1      33.448   7.759  48.261  1.00  0.00     0.074 A 
HETATM   13  C16 UNL     1      33.128   6.848  47.234  1.00  0.00    -0.013 A 
HETATM   14  O4  UNL     1      32.326   8.625  48.270  1.00  0.00    -0.340 OA
HETATM   15  C17 UNL     1      31.269   7.739  48.036  1.00  0.00     0.180 C 
ENDROOT
BRANCH   1  16
HETATM   16  C4  UNL     1      29.804   9.558  47.896  1.00  0.00     0.052 C 
HETATM   17  C3  UNL     1      28.798   9.965  46.846  1.00  0.00     0.042 C 
HETATM   18  C2  UNL     1      28.437  11.398  47.029  1.00  0.00     0.272 C 
HETATM   19  N1  UNL     1      29.572  12.137  47.532  1.00  0.00     0.086 N 
HETATM   20  C1  UNL     1      29.403  13.560  47.487  1.00  0.00     0.310 C 
HETATM   21  C19 UNL     1      29.811  11.765  48.916  1.00  0.00     0.303 C 
HETATM   22  C18 UNL     1      29.434  10.301  49.167  1.00  0.00     0.154 C 
BRANCH  22  23
HETATM   23  O5  UNL     1      30.271   9.915  50.232  1.00  0.00    -0.393 OA
HETATM   24  H18 UNL     1      30.736   9.067  50.075  1.00  0.00     0.210 HD
ENDBRANCH  22  23
ENDBRANCH   1  16
BRANCH   2  25
HETATM   25  O1  UNL     1      27.824   7.209  49.041  1.00  0.00    -0.360 OA
HETATM   26  H9  UNL     1      27.373   8.108  49.036  1.00  0.00     0.217 HD
ENDBRANCH   2  25
BRANCH   4  27
HETATM   27  O2  UNL     1      31.495   4.181  47.756  1.00  0.00    -0.203 OA
BRANCH  27  28
HETATM   28  O3  UNL     1      32.330   3.646  48.642  1.00  0.00    -0.245 OA
HETATM   29  H11 UNL     1      31.760   3.184  49.307  1.00  0.00     0.254 HD
ENDBRANCH  27  28
ENDBRANCH   4  27
TORSDOF 5
ENDMDL
MODEL 8
REMARK VINA RESULT:      -7.2      3.306      5.652
REMARK  5 active torsions:
REMARK  status: ('A' for Active; 'I' for Inactive)
REMARK    1  A    between atoms: C4_5  and  C5_6 
REMARK    2  A    between atoms: C6_7  and  O1_8 
REMARK    3  A    between atoms: C8_10  and  O2_11 
REMARK    4  A    between atoms: O2_11  and  O3_12 
REMARK    5  A    between atoms: C18_24  and  O5_25 
ROOT
HETATM    1  C5  UNL     1      25.332   3.802  50.535  1.00  0.00    -0.009 C 
HETATM    2  C6  UNL     1      26.154   2.947  51.212  1.00  0.00     0.073 C 
HETATM    3  C7  UNL     1      25.485   1.780  51.848  1.00  0.00     0.073 C 
HETATM    4  C8  UNL     1      24.152   1.526  51.857  1.00  0.00     0.102 C 
HETATM    5  C9  UNL     1      23.310   2.619  51.220  1.00  0.00     0.071 C 
HETATM    6  C10 UNL     1      22.328   2.971  52.190  1.00  0.00     0.045 C 
HETATM    7  C11 UNL     1      21.415   1.872  51.634  1.00  0.00     0.043 A 
HETATM    8  C12 UNL     1      20.694   0.999  50.792  1.00  0.00     0.026 A 
HETATM    9 CL1  UNL     1      19.640   0.142  51.930  1.00  0.00    -0.088 Cl
HETATM   10  C13 UNL     1      20.607   0.678  49.448  1.00  0.00     0.023 A 
HETATM   11  C14 UNL     1      21.469   1.395  48.584  1.00  0.00     0.038 A 
HETATM   12  C15 UNL     1      22.378   2.389  49.064  1.00  0.00     0.074 A 
HETATM   13  C16 UNL     1      22.072   2.314  50.439  1.00  0.00    -0.013 A 
HETATM   14  O4  UNL     1      23.376   3.393  49.022  1.00  0.00    -0.340 OA
HETATM   15  C17 UNL     1      24.113   3.125  50.180  1.00  0.00     0.180 C 
ENDROOT
BRANCH   1  16
HETATM   16  C4  UNL     1      25.370   5.063  49.803  1.00  0.00     0.052 C 
HETATM   17  C3  UNL     1      24.838   6.222  50.611  1.00  0.00     0.042 C 
HETATM   18  C2  UNL     1      25.312   7.503  50.018  1.00  0.00     0.272 C 
HETATM   19  N1  UNL     1      25.427   7.375  48.583  1.00  0.00     0.086 N 
HETATM   20  C1  UNL     1      25.618   8.623  47.903  1.00  0.00     0.310 C 
HETATM   21  C19 UNL     1      26.562   6.524  48.268  1.00  0.00     0.303 C 
HETATM   22  C18 UNL     1      26.763   5.451  49.344  1.00  0.00     0.154 C 
BRANCH  22  23
HETATM   23  O5  UNL     1      27.375   4.389  48.651  1.00  0.00    -0.393 OA
HETATM   24  H18 UNL     1      27.477   3.578  49.192  1.00  0.00     0.210 HD
ENDBRANCH  22  23
ENDBRANCH   1  16
BRANCH   2  25
HETATM   25  O1  UNL     1      27.548   3.161  51.347  1.00  0.00    -0.360 OA
HETATM   26  H9  UNL     1      27.895   3.983  51.810  1.00  0.00     0.217 HD
ENDBRANCH   2  25
BRANCH   4  27
HETATM   27  O2  UNL     1      23.616   0.396  52.436  1.00  0.00    -0.203 OA
BRANCH  27  28
HETATM   28  O3  UNL     1      23.778   0.015  53.700  1.00  0.00    -0.245 OA
HETATM   29  H11 UNL     1      24.689  -0.370  53.752  1.00  0.00     0.254 HD
ENDBRANCH  27  28
ENDBRANCH   4  27
TORSDOF 5
ENDMDL
MODEL 9
REMARK VINA RESULT:      -7.2      4.149      6.013
REMARK  5 active torsions:
REMARK  status: ('A' for Active; 'I' for Inactive)
REMARK    1  A    between atoms: C4_5  and  C5_6 
REMARK    2  A    between atoms: C6_7  and  O1_8 
REMARK    3  A    between atoms: C8_10  and  O2_11 
REMARK    4  A    between atoms: O2_11  and  O3_12 
REMARK    5  A    between atoms: C18_24  and  O5_25 
ROOT
HETATM    1  C5  UNL     1      19.804   0.039  52.712  1.00  0.00    -0.009 C 
HETATM    2  C6  UNL     1      20.572  -0.717  53.548  1.00  0.00     0.073 C 
HETATM    3  C7  UNL     1      22.017  -0.361  53.594  1.00  0.00     0.073 C 
HETATM    4  C8  UNL     1      22.630   0.595  52.852  1.00  0.00     0.102 C 
HETATM    5  C9  UNL     1      21.722   1.267  51.835  1.00  0.00     0.071 C 
HETATM    6  C10 UNL     1      22.388   1.151  50.581  1.00  0.00     0.045 C 
HETATM    7  C11 UNL     1      23.121   2.467  50.872  1.00  0.00     0.043 A 
HETATM    8  C12 UNL     1      23.453   3.782  51.258  1.00  0.00     0.026 A 
HETATM    9 CL1  UNL     1      25.110   3.959  50.657  1.00  0.00    -0.088 Cl
HETATM   10  C13 UNL     1      22.874   4.856  51.915  1.00  0.00     0.023 A 
HETATM   11  C14 UNL     1      21.549   4.661  52.371  1.00  0.00     0.038 A 
HETATM   12  C15 UNL     1      20.846   3.432  52.173  1.00  0.00     0.074 A 
HETATM   13  C16 UNL     1      21.851   2.717  51.491  1.00  0.00    -0.013 A 
HETATM   14  O4  UNL     1      19.781   2.498  52.227  1.00  0.00    -0.340 OA
HETATM   15  C17 UNL     1      20.457   1.295  52.453  1.00  0.00     0.180 C 
ENDROOT
BRANCH   1  16
HETATM   16  C4  UNL     1      18.435   0.141  52.218  1.00  0.00     0.052 C 
HETATM   17  C3  UNL     1      18.355   0.107  50.710  1.00  0.00     0.042 C 
HETATM   18  C2  UNL     1      16.969  -0.243  50.292  1.00  0.00     0.272 C 
HETATM   19  N1  UNL     1      16.015   0.285  51.238  1.00  0.00     0.086 N 
HETATM   20  C1  UNL     1      14.656   0.230  50.783  1.00  0.00     0.310 C 
HETATM   21  C19 UNL     1      16.096  -0.473  52.475  1.00  0.00     0.303 C 
HETATM   22  C18 UNL     1      17.527  -0.962  52.729  1.00  0.00     0.154 C 
BRANCH  22  23
HETATM   23  O5  UNL     1      17.604  -1.063  54.132  1.00  0.00    -0.393 OA
HETATM   24  H18 UNL     1      18.162  -1.808  54.438  1.00  0.00     0.210 HD
ENDBRANCH  22  23
ENDBRANCH   1  16
BRANCH   2  25
HETATM   25  O1  UNL     1      20.057  -1.800  54.303  1.00  0.00    -0.360 OA
HETATM   26  H9  UNL     1      20.662  -2.545  54.604  1.00  0.00     0.217 HD
ENDBRANCH   2  25
BRANCH   4  27
HETATM   27  O2  UNL     1      23.970   0.891  52.985  1.00  0.00    -0.203 OA
BRANCH  27  28
HETATM   28  O3  UNL     1      24.976   0.036  52.834  1.00  0.00    -0.245 OA
HETATM   29  H11 UNL     1      24.716  -0.780  53.330  1.00  0.00     0.254 HD
ENDBRANCH  27  28
ENDBRANCH   4  27
TORSDOF 5
ENDMDL
