MODEL 1
REMARK VINA RESULT:      -8.0      0.000      0.000
REMARK  7 active torsions:
REMARK  status: ('A' for Active; 'I' for Inactive)
REMARK    1  A    between atoms: C3_4  and  C4_5 
REMARK    2  A    between atoms: C4_5  and  C5_7 
REMARK    3  A    between atoms: C4_5  and  N1_9 
REMARK    4  A    between atoms: N1_9  and  C6_10 
REMARK    5  A    between atoms: C9_15  and  N4_16 
REMARK    6  A    between atoms: C12_19  and  O1_20 
REMARK    7  A    between atoms: N6_25  and  C16_26 
ROOT
HETATM    1  C6  UNL     1      25.900   4.630  50.129  1.00  0.00     0.708 A 
HETATM    2  N2  UNL     1      26.795   3.623  50.378  1.00  0.00    -0.059 NA
HETATM    3  C7  UNL     1      26.129   2.641  51.033  1.00  0.00     0.141 A 
HETATM    4  C8  UNL     1      26.558   1.426  51.508  1.00  0.00     0.172 A 
HETATM    5  N3  UNL     1      25.595   0.717  52.112  1.00  0.00    -0.073 NA
HETATM    6  C9  UNL     1      24.336   1.162  52.235  1.00  0.00     0.726 A 
HETATM    7  N5  UNL     1      23.950   2.373  51.750  1.00  0.00    -0.042 NA
HETATM    8  C15 UNL     1      24.852   3.152  51.128  1.00  0.00     0.196 A 
HETATM    9  N6  UNL     1      24.675   4.359  50.590  1.00  0.00    -0.155 N 
ENDROOT
BRANCH   1  10
HETATM   10  N1  UNL     1      26.396   5.767  49.393  1.00  0.00    -0.181 N 
HETATM   11  H7  UNL     1      25.591   5.707  48.666  1.00  0.00     0.181 HD
BRANCH  10  12
HETATM   12  C4  UNL     1      26.863   6.844  48.693  1.00  0.00     0.237 C 
HETATM   13  F2  UNL     1      26.364   6.928  47.377  1.00  0.00    -0.211 F 
BRANCH  12  14
HETATM   14  C3  UNL     1      28.364   6.720  48.453  1.00  0.00     0.079 C 
HETATM   15  C2  UNL     1      29.128   5.670  48.156  1.00  0.00     0.091 C 
HETATM   16  C1  UNL     1      30.580   5.439  47.904  1.00  0.00     0.082 C 
HETATM   17  F1  UNL     1      28.535   4.434  48.026  1.00  0.00    -0.211 F 
ENDBRANCH  12  14
BRANCH  12  18
HETATM   18  C5  UNL     1      26.666   8.174  49.383  1.00  0.00     0.293 C 
HETATM   19  F3  UNL     1      26.610   8.085  50.754  1.00  0.00    -0.250 F 
ENDBRANCH  12  18
ENDBRANCH  10  12
ENDBRANCH   1  10
BRANCH   9  20
HETATM   20  C16 UNL     1      23.519   5.181  50.495  1.00  0.00     0.135 C 
HETATM   21  C17 UNL     1      23.752   6.548  51.151  1.00  0.00     0.055 C 
HETATM   22  C18 UNL     1      23.046   7.469  50.174  1.00  0.00     0.169 C 
HETATM   23  O2  UNL     1      23.475   6.924  48.957  1.00  0.00    -0.389 OA
HETATM   24  C19 UNL     1      23.128   5.582  49.097  1.00  0.00     0.194 C 
ENDBRANCH   9  20
BRANCH   6  25
HETATM   25  N4  UNL     1      23.330   0.398  52.878  1.00  0.00    -0.214 N 
HETATM   26  C10 UNL     1      21.984   0.560  52.429  1.00  0.00     0.143 C 
HETATM   27  C11 UNL     1      21.100   0.705  53.673  1.00  0.00     0.052 C 
HETATM   28  C12 UNL     1      21.140  -0.613  54.418  1.00  0.00     0.121 C 
HETATM   29  C13 UNL     1      22.343  -1.438  54.003  1.00  0.00     0.052 C 
HETATM   30  C14 UNL     1      23.574  -0.524  53.941  1.00  0.00     0.143 C 
BRANCH  28  31
HETATM   31  O1  UNL     1      19.980  -1.304  54.096  1.00  0.00    -0.395 OA
HETATM   32  H14 UNL     1      20.260  -2.187  53.699  1.00  0.00     0.210 HD
ENDBRANCH  28  31
ENDBRANCH   6  25
TORSDOF 7
ENDMDL
MODEL 2
REMARK VINA RESULT:      -7.7      3.797      8.729
REMARK  7 active torsions:
REMARK  status: ('A' for Active; 'I' for Inactive)
REMARK    1  A    between atoms: C3_4  and  C4_5 
REMARK    2  A    between atoms: C4_5  and  C5_7 
REMARK    3  A    between atoms: C4_5  and  N1_9 
REMARK    4  A    between atoms: N1_9  and  C6_10 
REMARK    5  A    between atoms: C9_15  and  N4_16 
REMARK    6  A    between atoms: C12_19  and  O1_20 
REMARK    7  A    between atoms: N6_25  and  C16_26 
ROOT
HETATM    1  C6  UNL     1      23.733   1.661  51.812  1.00  0.00     0.708 A 
HETATM    2  N2  UNL     1      22.907   2.429  51.034  1.00  0.00    -0.059 NA
HETATM    3  C7  UNL     1      23.686   3.320  50.372  1.00  0.00     0.141 A 
HETATM    4  C8  UNL     1      23.359   4.307  49.476  1.00  0.00     0.172 A 
HETATM    5  N3  UNL     1      24.418   4.997  49.030  1.00  0.00    -0.073 NA
HETATM    6  C9  UNL     1      25.672   4.739  49.430  1.00  0.00     0.726 A 
HETATM    7  N5  UNL     1      25.954   3.751  50.321  1.00  0.00    -0.042 NA
HETATM    8  C15 UNL     1      24.952   3.007  50.821  1.00  0.00     0.196 A 
HETATM    9  N6  UNL     1      25.020   2.004  51.697  1.00  0.00    -0.155 N 
ENDROOT
BRANCH   1  10
HETATM   10  N1  UNL     1      23.107   0.608  52.573  1.00  0.00    -0.181 N 
HETATM   11  H7  UNL     1      22.296   0.508  51.858  1.00  0.00     0.181 HD
BRANCH  10  12
HETATM   12  C4  UNL     1      22.512  -0.390  53.293  1.00  0.00     0.237 C 
HETATM   13  F2  UNL     1      22.709  -1.677  52.752  1.00  0.00    -0.211 F 
BRANCH  12  14
HETATM   14  C3  UNL     1      20.994  -0.257  53.246  1.00  0.00     0.079 C 
HETATM   15  C2  UNL     1      20.153  -0.081  52.227  1.00  0.00     0.091 C 
HETATM   16  C1  UNL     1      18.677   0.059  52.068  1.00  0.00     0.082 C 
HETATM   17  F1  UNL     1      20.666   0.010  50.952  1.00  0.00    -0.211 F 
ENDBRANCH  12  14
BRANCH  12  18
HETATM   18  C5  UNL     1      22.876  -0.408  54.760  1.00  0.00     0.293 C 
HETATM   19  F3  UNL     1      22.815  -1.657  55.331  1.00  0.00    -0.250 F 
ENDBRANCH  12  18
ENDBRANCH  10  12
ENDBRANCH   1  10
BRANCH   9  20
HETATM   20  C16 UNL     1      26.130   1.411  52.356  1.00  0.00     0.135 C 
HETATM   21  C17 UNL     1      25.951   1.436  53.880  1.00  0.00     0.055 C 
HETATM   22  C18 UNL     1      26.495   0.073  54.264  1.00  0.00     0.169 C 
HETATM   23  O2  UNL     1      25.922  -0.720  53.262  1.00  0.00    -0.389 OA
HETATM   24  C19 UNL     1      26.320  -0.061  52.101  1.00  0.00     0.194 C 
ENDBRANCH   9  20
BRANCH   6  25
HETATM   25  N4  UNL     1      26.780   5.480  48.947  1.00  0.00    -0.214 N 
HETATM   26  C10 UNL     1      26.691   6.905  48.981  1.00  0.00     0.143 C 
HETATM   27  C11 UNL     1      27.176   7.426  47.623  1.00  0.00     0.052 C 
HETATM   28  C12 UNL     1      28.649   7.098  47.508  1.00  0.00     0.121 C 
HETATM   29  C13 UNL     1      29.042   6.001  48.478  1.00  0.00     0.052 C 
HETATM   30  C14 UNL     1      27.978   4.897  48.434  1.00  0.00     0.143 C 
BRANCH  28  31
HETATM   31  O1  UNL     1      29.355   8.254  47.817  1.00  0.00    -0.395 OA
HETATM   32  H14 UNL     1      29.073   8.536  48.743  1.00  0.00     0.210 HD
ENDBRANCH  28  31
ENDBRANCH   6  25
TORSDOF 7
ENDMDL
MODEL 3
REMARK VINA RESULT:      -7.7      4.224      5.855
REMARK  7 active torsions:
REMARK  status: ('A' for Active; 'I' for Inactive)
REMARK    1  A    between atoms: C3_4  and  C4_5 
REMARK    2  A    between atoms: C4_5  and  C5_7 
REMARK    3  A    between atoms: C4_5  and  N1_9 
REMARK    4  A    between atoms: N1_9  and  C6_10 
REMARK    5  A    between atoms: C9_15  and  N4_16 
REMARK    6  A    between atoms: C12_19  and  O1_20 
REMARK    7  A    between atoms: N6_25  and  C16_26 
ROOT
HETATM    1  C6  UNL     1      24.296   0.624  52.961  1.00  0.00     0.708 A 
HETATM    2  N2  UNL     1      24.087  -0.338  53.913  1.00  0.00    -0.059 NA
HETATM    3  C7  UNL     1      22.770  -0.656  53.887  1.00  0.00     0.141 A 
HETATM    4  C8  UNL     1      22.047  -1.554  54.632  1.00  0.00     0.172 A 
HETATM    5  N3  UNL     1      20.745  -1.586  54.315  1.00  0.00    -0.073 NA
HETATM    6  C9  UNL     1      20.212  -0.812  53.360  1.00  0.00     0.726 A 
HETATM    7  N5  UNL     1      20.963   0.067  52.643  1.00  0.00    -0.042 NA
HETATM    8  C15 UNL     1      22.280   0.166  52.894  1.00  0.00     0.196 A 
HETATM    9  N6  UNL     1      23.178   0.959  52.308  1.00  0.00    -0.155 N 
ENDROOT
BRANCH   1  10
HETATM   10  N1  UNL     1      25.654   1.078  52.789  1.00  0.00    -0.181 N 
HETATM   11  H7  UNL     1      25.788   0.485  51.889  1.00  0.00     0.181 HD
BRANCH  10  12
HETATM   12  C4  UNL     1      26.942   1.506  52.623  1.00  0.00     0.237 C 
HETATM   13  F2  UNL     1      27.165   2.181  51.405  1.00  0.00    -0.211 F 
BRANCH  12  14
HETATM   14  C3  UNL     1      27.893   0.320  52.503  1.00  0.00     0.079 C 
HETATM   15  C2  UNL     1      28.393  -0.508  53.419  1.00  0.00     0.091 C 
HETATM   16  C1  UNL     1      29.314  -1.680  53.414  1.00  0.00     0.082 C 
HETATM   17  F1  UNL     1      28.036  -0.332  54.738  1.00  0.00    -0.211 F 
ENDBRANCH  12  14
BRANCH  12  18
HETATM   18  C5  UNL     1      27.475   2.347  53.760  1.00  0.00     0.293 C 
HETATM   19  F3  UNL     1      28.739   2.838  53.541  1.00  0.00    -0.250 F 
ENDBRANCH  12  18
ENDBRANCH  10  12
ENDBRANCH   1  10
BRANCH   9  20
HETATM   20  C16 UNL     1      23.045   1.913  51.263  1.00  0.00     0.135 C 
HETATM   21  C17 UNL     1      22.216   1.352  50.100  1.00  0.00     0.055 C 
HETATM   22  C18 UNL     1      21.386   2.564  49.718  1.00  0.00     0.169 C 
HETATM   23  O2  UNL     1      21.028   3.036  50.987  1.00  0.00    -0.389 OA
HETATM   24  C19 UNL     1      22.265   3.152  51.618  1.00  0.00     0.194 C 
ENDBRANCH   9  20
BRANCH   6  25
HETATM   25  N4  UNL     1      18.831  -0.860  53.038  1.00  0.00    -0.214 N 
HETATM   26  C10 UNL     1      17.981  -1.641  53.879  1.00  0.00     0.143 C 
HETATM   27  C11 UNL     1      17.079  -2.480  52.966  1.00  0.00     0.052 C 
HETATM   28  C12 UNL     1      16.172  -1.526  52.219  1.00  0.00     0.121 C 
HETATM   29  C13 UNL     1      16.732  -0.117  52.232  1.00  0.00     0.052 C 
HETATM   30  C14 UNL     1      18.237  -0.180  51.934  1.00  0.00     0.143 C 
BRANCH  28  31
HETATM   31  O1  UNL     1      14.943  -1.534  52.865  1.00  0.00    -0.395 OA
HETATM   32  H14 UNL     1      14.784  -0.602  53.214  1.00  0.00     0.210 HD
ENDBRANCH  28  31
ENDBRANCH   6  25
TORSDOF 7
ENDMDL
MODEL 4
REMARK VINA RESULT:      -7.7      5.438      8.390
REMARK  7 active torsions:
REMARK  status: ('A' for Active; 'I' for Inactive)
REMARK    1  A    between atoms: C3_4  and  C4_5 
REMARK    2  A    between atoms: C4_5  and  C5_7 
REMARK    3  A    between atoms: C4_5  and  N1_9 
REMARK    4  A    between atoms: N1_9  and  C6_10 
REMARK    5  A    between atoms: C9_15  and  N4_16 
REMARK    6  A    between atoms: C12_19  and  O1_20 
REMARK    7  A    between atoms: N6_25  and  C16_26 
ROOT
HETATM    1  C6  UNL     1      20.835   0.180  52.060  1.00  0.00     0.708 A 
HETATM    2  N2  UNL     1      21.073  -0.562  53.186  1.00  0.00    -0.059 NA
HETATM    3  C7  UNL     1      22.386  -0.426  53.492  1.00  0.00     0.141 A 
HETATM    4  C8  UNL     1      23.131  -0.958  54.516  1.00  0.00     0.172 A 
HETATM    5  N3  UNL     1      24.420  -0.592  54.487  1.00  0.00    -0.073 NA
HETATM    6  C9  UNL     1      24.922   0.217  53.543  1.00  0.00     0.726 A 
HETATM    7  N5  UNL     1      24.151   0.724  52.544  1.00  0.00    -0.042 NA
HETATM    8  C15 UNL     1      22.845   0.409  52.495  1.00  0.00     0.196 A 
HETATM    9  N6  UNL     1      21.930   0.798  51.606  1.00  0.00    -0.155 N 
ENDROOT
BRANCH   1  10
HETATM   10  N1  UNL     1      19.475   0.211  51.582  1.00  0.00    -0.181 N 
HETATM   11  H7  UNL     1      19.617   1.173  51.098  1.00  0.00     0.181 HD
BRANCH  10  12
HETATM   12  C4  UNL     1      18.186   0.243  51.129  1.00  0.00     0.237 C 
HETATM   13  F2  UNL     1      18.076   0.216  49.723  1.00  0.00    -0.211 F 
BRANCH  12  14
HETATM   14  C3  UNL     1      17.527   1.576  51.469  1.00  0.00     0.079 C 
HETATM   15  C2  UNL     1      16.375   2.118  51.078  1.00  0.00     0.091 C 
HETATM   16  C1  UNL     1      15.645   3.391  51.344  1.00  0.00     0.082 C 
HETATM   17  F1  UNL     1      15.572   1.413  50.208  1.00  0.00    -0.211 F 
ENDBRANCH  12  14
BRANCH  12  18
HETATM   18  C5  UNL     1      17.287  -0.821  51.716  1.00  0.00     0.293 C 
HETATM   19  F3  UNL     1      17.890  -1.579  52.691  1.00  0.00    -0.250 F 
ENDBRANCH  12  18
ENDBRANCH  10  12
ENDBRANCH   1  10
BRANCH   9  20
HETATM   20  C16 UNL     1      22.031   1.645  50.469  1.00  0.00     0.135 C 
HETATM   21  C17 UNL     1      21.489   0.955  49.211  1.00  0.00     0.055 C 
HETATM   22  C18 UNL     1      20.761   2.102  48.535  1.00  0.00     0.169 C 
HETATM   23  O2  UNL     1      20.123   2.682  49.639  1.00  0.00    -0.389 OA
HETATM   24  C19 UNL     1      21.185   2.890  50.517  1.00  0.00     0.194 C 
ENDBRANCH   9  20
BRANCH   6  25
HETATM   25  N4  UNL     1      26.289   0.593  53.529  1.00  0.00    -0.214 N 
HETATM   26  C10 UNL     1      27.261  -0.443  53.388  1.00  0.00     0.143 C 
HETATM   27  C11 UNL     1      28.358  -0.188  54.429  1.00  0.00     0.052 C 
HETATM   28  C12 UNL     1      29.056   1.101  54.051  1.00  0.00     0.121 C 
HETATM   29  C13 UNL     1      28.198   1.933  53.117  1.00  0.00     0.052 C 
HETATM   30  C14 UNL     1      26.756   1.937  53.642  1.00  0.00     0.143 C 
BRANCH  28  31
HETATM   31  O1  UNL     1      30.234   0.756  53.400  1.00  0.00    -0.395 OA
HETATM   32  H14 UNL     1      29.992   0.099  52.675  1.00  0.00     0.210 HD
ENDBRANCH  28  31
ENDBRANCH   6  25
TORSDOF 7
ENDMDL
MODEL 5
REMARK VINA RESULT:      -7.6      1.418      2.583
REMARK  7 active torsions:
REMARK  status: ('A' for Active; 'I' for Inactive)
REMARK    1  A    between atoms: C3_4  and  C4_5 
REMARK    2  A    between atoms: C4_5  and  C5_7 
REMARK    3  A    between atoms: C4_5  and  N1_9 
REMARK    4  A    between atoms: N1_9  and  C6_10 
REMARK    5  A    between atoms: C9_15  and  N4_16 
REMARK    6  A    between atoms: C12_19  and  O1_20 
REMARK    7  A    between atoms: N6_25  and  C16_26 
ROOT
HETATM    1  C6  UNL     1      25.914   4.262  50.340  1.00  0.00     0.708 A 
HETATM    2  N2  UNL     1      26.787   3.243  50.612  1.00  0.00    -0.059 NA
HETATM    3  C7  UNL     1      26.094   2.278  51.265  1.00  0.00     0.141 A 
HETATM    4  C8  UNL     1      26.494   1.061  51.758  1.00  0.00     0.172 A 
HETATM    5  N3  UNL     1      25.509   0.375  52.354  1.00  0.00    -0.073 NA
HETATM    6  C9  UNL     1      24.257   0.843  52.453  1.00  0.00     0.726 A 
HETATM    7  N5  UNL     1      23.899   2.056  51.951  1.00  0.00    -0.042 NA
HETATM    8  C15 UNL     1      24.824   2.813  51.336  1.00  0.00     0.196 A 
HETATM    9  N6  UNL     1      24.677   4.018  50.784  1.00  0.00    -0.155 N 
ENDROOT
BRANCH   1  10
HETATM   10  N1  UNL     1      26.441   5.383  49.601  1.00  0.00    -0.181 N 
HETATM   11  H7  UNL     1      27.247   5.534  50.312  1.00  0.00     0.181 HD
BRANCH  10  12
HETATM   12  C4  UNL     1      26.942   6.446  48.902  1.00  0.00     0.237 C 
HETATM   13  F2  UNL     1      27.106   7.612  49.679  1.00  0.00    -0.211 F 
BRANCH  12  14
HETATM   14  C3  UNL     1      25.949   6.912  47.843  1.00  0.00     0.079 C 
HETATM   15  C2  UNL     1      24.739   7.460  47.946  1.00  0.00     0.091 C 
HETATM   16  C1  UNL     1      23.699   7.946  46.995  1.00  0.00     0.082 C 
HETATM   17  F1  UNL     1      24.215   7.680  49.201  1.00  0.00    -0.211 F 
ENDBRANCH  12  14
BRANCH  12  18
HETATM   18  C5  UNL     1      28.228   6.159  48.161  1.00  0.00     0.293 C 
HETATM   19  F3  UNL     1      28.578   4.830  48.151  1.00  0.00    -0.250 F 
ENDBRANCH  12  18
ENDBRANCH  10  12
ENDBRANCH   1  10
BRANCH   9  20
HETATM   20  C16 UNL     1      23.537   4.859  50.663  1.00  0.00     0.135 C 
HETATM   21  C17 UNL     1      22.434   4.185  49.836  1.00  0.00     0.055 C 
HETATM   22  C18 UNL     1      21.194   4.597  50.607  1.00  0.00     0.169 C 
HETATM   23  O2  UNL     1      21.637   4.402  51.921  1.00  0.00    -0.389 OA
HETATM   24  C19 UNL     1      22.812   5.150  51.950  1.00  0.00     0.194 C 
ENDBRANCH   9  20
BRANCH   6  25
HETATM   25  N4  UNL     1      23.227   0.103  53.087  1.00  0.00    -0.214 N 
HETATM   26  C10 UNL     1      21.901   0.236  52.574  1.00  0.00     0.143 C 
HETATM   27  C11 UNL     1      20.964   0.432  53.773  1.00  0.00     0.052 C 
HETATM   28  C12 UNL     1      20.978  -0.850  54.578  1.00  0.00     0.121 C 
HETATM   29  C13 UNL     1      22.200  -1.686  54.252  1.00  0.00     0.052 C 
HETATM   30  C14 UNL     1      23.429  -0.768  54.200  1.00  0.00     0.143 C 
BRANCH  28  31
HETATM   31  O1  UNL     1      19.835  -1.562  54.240  1.00  0.00    -0.395 OA
HETATM   32  H14 UNL     1      19.515  -1.207  53.352  1.00  0.00     0.210 HD
ENDBRANCH  28  31
ENDBRANCH   6  25
TORSDOF 7
ENDMDL
MODEL 6
REMARK VINA RESULT:      -7.5      4.717      7.511
REMARK  7 active torsions:
REMARK  status: ('A' for Active; 'I' for Inactive)
REMARK    1  A    between atoms: C3_4  and  C4_5 
REMARK    2  A    between atoms: C4_5  and  C5_7 
REMARK    3  A    between atoms: C4_5  and  N1_9 
REMARK    4  A    between atoms: N1_9  and  C6_10 
REMARK    5  A    between atoms: C9_15  and  N4_16 
REMARK    6  A    between atoms: C12_19  and  O1_20 
REMARK    7  A    between atoms: N6_25  and  C16_26 
ROOT
HETATM    1  C6  UNL     1      21.402   1.475  52.049  1.00  0.00     0.708 A 
HETATM    2  N2  UNL     1      21.324   0.436  52.940  1.00  0.00    -0.059 NA
HETATM    3  C7  UNL     1      22.588   0.142  53.330  1.00  0.00     0.141 A 
HETATM    4  C8  UNL     1      23.061  -0.808  54.202  1.00  0.00     0.172 A 
HETATM    5  N3  UNL     1      24.394  -0.798  54.332  1.00  0.00    -0.073 NA
HETATM    6  C9  UNL     1      25.181   0.062  53.670  1.00  0.00     0.726 A 
HETATM    7  N5  UNL     1      24.673   0.989  52.814  1.00  0.00    -0.042 NA
HETATM    8  C15 UNL     1      23.344   1.051  52.622  1.00  0.00     0.196 A 
HETATM    9  N6  UNL     1      22.658   1.878  51.832  1.00  0.00    -0.155 N 
ENDROOT
BRANCH   1  10
HETATM   10  N1  UNL     1      20.152   1.981  51.537  1.00  0.00    -0.181 N 
HETATM   11  H7  UNL     1      20.648   2.552  50.758  1.00  0.00     0.181 HD
BRANCH  10  12
HETATM   12  C4  UNL     1      18.969   2.463  51.050  1.00  0.00     0.237 C 
HETATM   13  F2  UNL     1      18.666   3.771  51.482  1.00  0.00    -0.211 F 
BRANCH  12  14
HETATM   14  C3  UNL     1      17.793   1.668  51.608  1.00  0.00     0.079 C 
HETATM   15  C2  UNL     1      17.576   0.357  51.699  1.00  0.00     0.091 C 
HETATM   16  C1  UNL     1      16.482  -0.515  52.217  1.00  0.00     0.082 C 
HETATM   17  F1  UNL     1      18.538  -0.509  51.227  1.00  0.00    -0.211 F 
ENDBRANCH  12  14
BRANCH  12  18
HETATM   18  C5  UNL     1      18.835   2.394  49.547  1.00  0.00     0.293 C 
HETATM   19  F3  UNL     1      19.686   1.491  48.955  1.00  0.00    -0.250 F 
ENDBRANCH  12  18
ENDBRANCH  10  12
ENDBRANCH   1  10
BRANCH   9  20
HETATM   20  C16 UNL     1      23.088   2.928  50.977  1.00  0.00     0.135 C 
HETATM   21  C17 UNL     1      22.658   2.676  49.526  1.00  0.00     0.055 C 
HETATM   22  C18 UNL     1      22.255   4.072  49.090  1.00  0.00     0.169 C 
HETATM   23  O2  UNL     1      21.548   4.496  50.221  1.00  0.00    -0.389 OA
HETATM   24  C19 UNL     1      22.466   4.273  51.245  1.00  0.00     0.194 C 
ENDBRANCH   9  20
BRANCH   6  25
HETATM   25  N4  UNL     1      26.591   0.058  53.821  1.00  0.00    -0.214 N 
HETATM   26  C10 UNL     1      27.381  -0.221  52.665  1.00  0.00     0.143 C 
HETATM   27  C11 UNL     1      28.454  -1.236  53.078  1.00  0.00     0.052 C 
HETATM   28  C12 UNL     1      29.376  -0.551  54.064  1.00  0.00     0.121 C 
HETATM   29  C13 UNL     1      28.715   0.672  54.671  1.00  0.00     0.052 C 
HETATM   30  C14 UNL     1      27.270   0.317  55.049  1.00  0.00     0.143 C 
BRANCH  28  31
HETATM   31  O1  UNL     1      30.509  -0.156  53.364  1.00  0.00    -0.395 OA
HETATM   32  H14 UNL     1      31.247  -0.799  53.606  1.00  0.00     0.210 HD
ENDBRANCH  28  31
ENDBRANCH   6  25
TORSDOF 7
ENDMDL
MODEL 7
REMARK VINA RESULT:      -7.3      5.476      8.803
REMARK  7 active torsions:
REMARK  status: ('A' for Active; 'I' for Inactive)
REMARK    1  A    between atoms: C3_4  and  C4_5 
REMARK    2  A    between atoms: C4_5  and  C5_7 
REMARK    3  A    between atoms: C4_5  and  N1_9 
REMARK    4  A    between atoms: N1_9  and  C6_10 
REMARK    5  A    between atoms: C9_15  and  N4_16 
REMARK    6  A    between atoms: C12_19  and  O1_20 
REMARK    7  A    between atoms: N6_25  and  C16_26 
ROOT
HETATM    1  C6  UNL     1      20.238  -0.108  52.657  1.00  0.00     0.708 A 
HETATM    2  N2  UNL     1      20.609  -0.933  53.686  1.00  0.00    -0.059 NA
HETATM    3  C7  UNL     1      21.929  -0.727  53.915  1.00  0.00     0.141 A 
HETATM    4  C8  UNL     1      22.783  -1.295  54.828  1.00  0.00     0.172 A 
HETATM    5  N3  UNL     1      24.037  -0.830  54.749  1.00  0.00    -0.073 NA
HETATM    6  C9  UNL     1      24.411   0.100  53.860  1.00  0.00     0.726 A 
HETATM    7  N5  UNL     1      23.534   0.639  52.970  1.00  0.00    -0.042 NA
HETATM    8  C15 UNL     1      22.253   0.232  52.978  1.00  0.00     0.196 A 
HETATM    9  N6  UNL     1      21.251   0.632  52.195  1.00  0.00    -0.155 N 
ENDROOT
BRANCH   1  10
HETATM   10  N1  UNL     1      18.847  -0.136  52.278  1.00  0.00    -0.181 N 
HETATM   11  H7  UNL     1      18.922  -1.150  51.896  1.00  0.00     0.181 HD
BRANCH  10  12
HETATM   12  C4  UNL     1      17.529  -0.165  51.917  1.00  0.00     0.237 C 
HETATM   13  F2  UNL     1      16.687   0.569  52.779  1.00  0.00    -0.211 F 
BRANCH  12  14
HETATM   14  C3  UNL     1      16.964  -1.575  52.051  1.00  0.00     0.079 C 
HETATM   15  C2  UNL     1      17.052  -2.473  53.031  1.00  0.00     0.091 C 
HETATM   16  C1  UNL     1      16.548  -3.857  53.264  1.00  0.00     0.082 C 
HETATM   17  F1  UNL     1      17.766  -2.151  54.164  1.00  0.00    -0.211 F 
ENDBRANCH  12  14
BRANCH  12  18
HETATM   18  C5  UNL     1      17.259   0.251  50.489  1.00  0.00     0.293 C 
HETATM   19  F3  UNL     1      17.002  -0.802  49.644  1.00  0.00    -0.250 F 
ENDBRANCH  12  18
ENDBRANCH  10  12
ENDBRANCH   1  10
BRANCH   9  20
HETATM   20  C16 UNL     1      21.208   1.589  51.145  1.00  0.00     0.135 C 
HETATM   21  C17 UNL     1      21.639   2.976  51.638  1.00  0.00     0.055 C 
HETATM   22  C18 UNL     1      22.465   3.464  50.462  1.00  0.00     0.169 C 
HETATM   23  O2  UNL     1      23.191   2.304  50.164  1.00  0.00    -0.389 OA
HETATM   24  C19 UNL     1      22.182   1.354  50.020  1.00  0.00     0.194 C 
ENDBRANCH   9  20
BRANCH   6  25
HETATM   25  N4  UNL     1      25.744   0.580  53.791  1.00  0.00    -0.214 N 
HETATM   26  C10 UNL     1      25.939   1.947  53.429  1.00  0.00     0.143 C 
HETATM   27  C11 UNL     1      27.056   1.987  52.378  1.00  0.00     0.052 C 
HETATM   28  C12 UNL     1      28.335   1.543  53.055  1.00  0.00     0.121 C 
HETATM   29  C13 UNL     1      28.041   0.779  54.331  1.00  0.00     0.052 C 
HETATM   30  C14 UNL     1      26.900  -0.212  54.063  1.00  0.00     0.143 C 
BRANCH  28  31
HETATM   31  O1  UNL     1      29.057   2.688  53.365  1.00  0.00    -0.395 OA
HETATM   32  H14 UNL     1      28.663   3.443  52.826  1.00  0.00     0.210 HD
ENDBRANCH  28  31
ENDBRANCH   6  25
TORSDOF 7
ENDMDL
MODEL 8
REMARK VINA RESULT:      -7.2      3.490      7.642
REMARK  7 active torsions:
REMARK  status: ('A' for Active; 'I' for Inactive)
REMARK    1  A    between atoms: C3_4  and  C4_5 
REMARK    2  A    between atoms: C4_5  and  C5_7 
REMARK    3  A    between atoms: C4_5  and  N1_9 
REMARK    4  A    between atoms: N1_9  and  C6_10 
REMARK    5  A    between atoms: C9_15  and  N4_16 
REMARK    6  A    between atoms: C12_19  and  O1_20 
REMARK    7  A    between atoms: N6_25  and  C16_26 
ROOT
HETATM    1  C6  UNL     1      25.747   2.172  51.458  1.00  0.00     0.708 A 
HETATM    2  N2  UNL     1      26.813   2.526  50.674  1.00  0.00    -0.059 NA
HETATM    3  C7  UNL     1      26.473   3.659  50.014  1.00  0.00     0.141 A 
HETATM    4  C8  UNL     1      27.175   4.419  49.111  1.00  0.00     0.172 A 
HETATM    5  N3  UNL     1      26.495   5.485  48.665  1.00  0.00    -0.073 NA
HETATM    6  C9  UNL     1      25.249   5.770  49.069  1.00  0.00     0.726 A 
HETATM    7  N5  UNL     1      24.586   4.991  49.965  1.00  0.00    -0.042 NA
HETATM    8  C15 UNL     1      25.193   3.901  50.466  1.00  0.00     0.196 A 
HETATM    9  N6  UNL     1      24.718   3.018  51.345  1.00  0.00    -0.155 N 
ENDROOT
BRANCH   1  10
HETATM   10  N1  UNL     1      25.916   1.005  52.288  1.00  0.00    -0.181 N 
HETATM   11  H7  UNL     1      26.993   1.136  52.336  1.00  0.00     0.181 HD
BRANCH  10  12
HETATM   12  C4  UNL     1      26.078  -0.101  53.075  1.00  0.00     0.237 C 
HETATM   13  F2  UNL     1      26.117  -1.312  52.353  1.00  0.00    -0.211 F 
BRANCH  12  14
HETATM   14  C3  UNL     1      24.861  -0.309  53.971  1.00  0.00     0.079 C 
HETATM   15  C2  UNL     1      23.566  -0.436  53.687  1.00  0.00     0.091 C 
HETATM   16  C1  UNL     1      22.313  -0.640  54.469  1.00  0.00     0.082 C 
HETATM   17  F1  UNL     1      23.167  -0.381  52.369  1.00  0.00    -0.211 F 
ENDBRANCH  12  14
BRANCH  12  18
HETATM   18  C5  UNL     1      27.267  -0.040  54.006  1.00  0.00     0.293 C 
HETATM   19  F3  UNL     1      26.936   0.242  55.310  1.00  0.00    -0.250 F 
ENDBRANCH  12  18
ENDBRANCH  10  12
ENDBRANCH   1  10
BRANCH   9  20
HETATM   20  C16 UNL     1      23.469   2.948  52.020  1.00  0.00     0.135 C 
HETATM   21  C17 UNL     1      23.042   4.325  52.545  1.00  0.00     0.055 C 
HETATM   22  C18 UNL     1      21.553   4.303  52.255  1.00  0.00     0.169 C 
HETATM   23  O2  UNL     1      21.553   3.744  50.971  1.00  0.00    -0.389 OA
HETATM   24  C19 UNL     1      22.291   2.577  51.158  1.00  0.00     0.194 C 
ENDBRANCH   9  20
BRANCH   6  25
HETATM   25  N4  UNL     1      24.545   6.903  48.585  1.00  0.00    -0.214 N 
HETATM   26  C10 UNL     1      23.642   6.707  47.497  1.00  0.00     0.143 C 
HETATM   27  C11 UNL     1      23.898   7.829  46.482  1.00  0.00     0.052 C 
HETATM   28  C12 UNL     1      23.497   9.135  47.134  1.00  0.00     0.121 C 
HETATM   29  C13 UNL     1      23.441   8.997  48.643  1.00  0.00     0.052 C 
HETATM   30  C14 UNL     1      24.678   8.221  49.116  1.00  0.00     0.143 C 
BRANCH  28  31
HETATM   31  O1  UNL     1      22.234   9.462  46.659  1.00  0.00    -0.395 OA
HETATM   32  H14 UNL     1      22.250  10.442  46.422  1.00  0.00     0.210 HD
ENDBRANCH  28  31
ENDBRANCH   6  25
TORSDOF 7
ENDMDL
MODEL 9
REMARK VINA RESULT:      -7.2      3.527      7.248
REMARK  7 active torsions:
REMARK  status: ('A' for Active; 'I' for Inactive)
REMARK    1  A    between atoms: C3_4  and  C4_5 
REMARK    2  A    between atoms: C4_5  and  C5_7 
REMARK    3  A    between atoms: C4_5  and  N1_9 
REMARK    4  A    between atoms: N1_9  and  C6_10 
REMARK    5  A    between atoms: C9_15  and  N4_16 
REMARK    6  A    between atoms: C12_19  and  O1_20 
REMARK    7  A    between atoms: N6_25  and  C16_26 
ROOT
HETATM    1  C6  UNL     1      25.749   2.299  51.859  1.00  0.00     0.708 A 
HETATM    2  N2  UNL     1      26.842   2.610  51.094  1.00  0.00    -0.059 NA
HETATM    3  C7  UNL     1      26.479   3.610  50.255  1.00  0.00     0.141 A 
HETATM    4  C8  UNL     1      27.193   4.279  49.291  1.00  0.00     0.172 A 
HETATM    5  N3  UNL     1      26.481   5.219  48.654  1.00  0.00    -0.073 NA
HETATM    6  C9  UNL     1      25.196   5.472  48.939  1.00  0.00     0.726 A 
HETATM    7  N5  UNL     1      24.523   4.786  49.901  1.00  0.00    -0.042 NA
HETATM    8  C15 UNL     1      25.159   3.825  50.592  1.00  0.00     0.196 A 
HETATM    9  N6  UNL     1      24.681   3.046  51.563  1.00  0.00    -0.155 N 
ENDROOT
BRANCH   1  10
HETATM   10  N1  UNL     1      25.932   1.278  52.861  1.00  0.00    -0.181 N 
HETATM   11  H7  UNL     1      27.006   1.439  52.897  1.00  0.00     0.181 HD
BRANCH  10  12
HETATM   12  C4  UNL     1      26.108   0.311  53.811  1.00  0.00     0.237 C 
HETATM   13  F2  UNL     1      26.331   0.821  55.108  1.00  0.00    -0.211 F 
BRANCH  12  14
HETATM   14  C3  UNL     1      27.393  -0.469  53.555  1.00  0.00     0.079 C 
HETATM   15  C2  UNL     1      28.672  -0.153  53.748  1.00  0.00     0.091 C 
HETATM   16  C1  UNL     1      29.986  -0.827  53.537  1.00  0.00     0.082 C 
HETATM   17  F1  UNL     1      28.979   1.084  54.270  1.00  0.00    -0.211 F 
ENDBRANCH  12  14
BRANCH  12  18
HETATM   18  C5  UNL     1      25.005  -0.720  53.868  1.00  0.00     0.293 C 
HETATM   19  F3  UNL     1      23.902  -0.395  53.116  1.00  0.00    -0.250 F 
ENDBRANCH  12  18
ENDBRANCH  10  12
ENDBRANCH   1  10
BRANCH   9  20
HETATM   20  C16 UNL     1      23.396   2.987  52.168  1.00  0.00     0.135 C 
HETATM   21  C17 UNL     1      22.847   4.393  52.447  1.00  0.00     0.055 C 
HETATM   22  C18 UNL     1      21.386   4.217  52.079  1.00  0.00     0.169 C 
HETATM   23  O2  UNL     1      21.508   3.472  50.900  1.00  0.00    -0.389 OA
HETATM   24  C19 UNL     1      22.305   2.404  51.308  1.00  0.00     0.194 C 
ENDBRANCH   9  20
BRANCH   6  25
HETATM   25  N4  UNL     1      24.459   6.471  48.253  1.00  0.00    -0.214 N 
HETATM   26  C10 UNL     1      23.054   6.269  48.096  1.00  0.00     0.143 C 
HETATM   27  C11 UNL     1      22.706   6.593  46.637  1.00  0.00     0.052 C 
HETATM   28  C12 UNL     1      22.945   8.073  46.429  1.00  0.00     0.121 C 
HETATM   29  C13 UNL     1      23.857   8.635  47.502  1.00  0.00     0.052 C 
HETATM   30  C14 UNL     1      25.027   7.665  47.715  1.00  0.00     0.143 C 
BRANCH  28  31
HETATM   31  O1  UNL     1      21.710   8.704  46.504  1.00  0.00    -0.395 OA
HETATM   32  H14 UNL     1      21.751   9.347  47.279  1.00  0.00     0.210 HD
ENDBRANCH  28  31
ENDBRANCH   6  25
TORSDOF 7
ENDMDL
