MODEL 1
REMARK VINA RESULT:      -8.1      0.000      0.000
REMARK  8 active torsions:
REMARK  status: ('A' for Active; 'I' for Inactive)
REMARK    1  A    between atoms: C2_2  and  C3_3 
REMARK    2  A    between atoms: C3_3  and  C4_4 
REMARK    3  A    between atoms: C6_8  and  N3_9 
REMARK    4  A    between atoms: N3_9  and  C7_10 
REMARK    5  A    between atoms: C13_18  and  C14_19 
REMARK    6  A    between atoms: C16_21  and  N4_22 
REMARK    7  A    between atoms: N4_22  and  C17_23 
REMARK    8  A    between atoms: P1_26  and  N5_27 
ROOT
HETATM    1  C4  UNL     1      21.886   0.172  53.930  1.00  0.00     0.068 A 
HETATM    2  N1  UNL     1      22.321  -0.793  54.746  1.00  0.00    -0.241 NA
HETATM    3  C5  UNL     1      23.618  -1.183  54.713  1.00  0.00     0.235 A 
HETATM    4  N2  UNL     1      24.460  -0.595  53.860  1.00  0.00    -0.224 NA
HETATM    5  C6  UNL     1      24.044   0.377  53.029  1.00  0.00     0.142 A 
HETATM    6  C13 UNL     1      22.736   0.769  53.063  1.00  0.00     0.039 A 
ENDROOT
BRANCH   6   7
HETATM    7  C14 UNL     1      22.390   1.717  52.242  1.00  0.00     0.029 C 
HETATM    8  C15 UNL     1      22.745   3.030  51.779  1.00  0.00    -0.011 A 
HETATM    9  C16 UNL     1      22.060   3.657  50.844  1.00  0.00     0.156 A 
HETATM   10  P1  UNL     1      23.805   4.420  51.870  1.00  0.00    -0.018 P 
HETATM   11  H20 UNL     1      24.908   4.518  50.993  1.00  0.00     0.081 HD
BRANCH   9  12
HETATM   12  N4  UNL     1      20.976   2.794  50.436  1.00  0.00    -0.404 N 
HETATM   13  H14 UNL     1      20.248   2.584  51.197  1.00  0.00     0.154 HD
BRANCH  12  14
HETATM   14  C17 UNL     1      20.701   2.150  49.136  1.00  0.00     0.077 A 
HETATM   15  C18 UNL     1      21.292   0.800  48.904  1.00  0.00     0.027 A 
HETATM   16  C19 UNL     1      21.835   1.986  48.194  1.00  0.00     0.027 A 
ENDBRANCH  12  14
ENDBRANCH   9  12
BRANCH  10  17
HETATM   17  N5  UNL     1      23.711   5.523  53.205  1.00  0.00    -0.408 N 
HETATM   18  H21 UNL     1      23.850   6.521  53.043  1.00  0.00     0.154 HD
HETATM   19  H22 UNL     1      22.982   5.239  53.868  1.00  0.00     0.154 HD
ENDBRANCH  10  17
ENDBRANCH   6   7
BRANCH   1  20
HETATM   20  C3  UNL     1      20.637   0.561  53.950  1.00  0.00     0.005 C 
BRANCH  20  21
HETATM   21  C2  UNL     1      19.662  -0.431  53.455  1.00  0.00     0.025 C 
HETATM   22  C1  UNL     1      19.168  -0.032  52.068  1.00  0.00     0.009 C 
ENDBRANCH  20  21
ENDBRANCH   1  20
BRANCH   5  23
HETATM   23  N3  UNL     1      25.154   0.793  52.255  1.00  0.00    -0.340 N 
HETATM   24  H8  UNL     1      25.007   1.412  51.431  1.00  0.00     0.167 HD
BRANCH  23  25
HETATM   25  C7  UNL     1      26.437   0.309  52.709  1.00  0.00     0.035 A 
HETATM   26  C8  UNL     1      26.796  -0.982  52.487  1.00  0.00     0.032 A 
HETATM   27  C9  UNL     1      28.049  -1.393  52.947  1.00  0.00     0.046 A 
HETATM   28  C10 UNL     1      28.905  -0.513  53.613  1.00  0.00     0.138 A 
HETATM   29  F1  UNL     1      30.122  -0.902  54.066  1.00  0.00    -0.204 F 
HETATM   30  C11 UNL     1      28.543   0.795  53.839  1.00  0.00     0.074 A 
HETATM   31 CL1  UNL     1      29.518   1.992  54.655  1.00  0.00    -0.081 Cl
HETATM   32  C12 UNL     1      27.299   1.172  53.372  1.00  0.00     0.056 A 
ENDBRANCH  23  25
ENDBRANCH   5  23
TORSDOF 8
ENDMDL
MODEL 2
REMARK VINA RESULT:      -8.0      2.037      4.346
REMARK  8 active torsions:
REMARK  status: ('A' for Active; 'I' for Inactive)
REMARK    1  A    between atoms: C2_2  and  C3_3 
REMARK    2  A    between atoms: C3_3  and  C4_4 
REMARK    3  A    between atoms: C6_8  and  N3_9 
REMARK    4  A    between atoms: N3_9  and  C7_10 
REMARK    5  A    between atoms: C13_18  and  C14_19 
REMARK    6  A    between atoms: C16_21  and  N4_22 
REMARK    7  A    between atoms: N4_22  and  C17_23 
REMARK    8  A    between atoms: P1_26  and  N5_27 
ROOT
HETATM    1  C4  UNL     1      24.046   3.020  50.072  1.00  0.00     0.068 A 
HETATM    2  N1  UNL     1      25.147   3.487  49.473  1.00  0.00    -0.241 NA
HETATM    3  C5  UNL     1      26.353   3.379  50.081  1.00  0.00     0.235 A 
HETATM    4  N2  UNL     1      26.436   2.802  51.282  1.00  0.00    -0.224 NA
HETATM    5  C6  UNL     1      25.341   2.326  51.903  1.00  0.00     0.142 A 
HETATM    6  C13 UNL     1      24.126   2.435  51.290  1.00  0.00     0.039 A 
ENDROOT
BRANCH   6   7
HETATM    7  C14 UNL     1      23.103   1.953  51.933  1.00  0.00     0.029 C 
HETATM    8  C15 UNL     1      21.668   1.937  51.971  1.00  0.00    -0.011 A 
HETATM    9  C16 UNL     1      20.994   1.241  52.864  1.00  0.00     0.156 A 
HETATM   10  P1  UNL     1      20.140   2.479  51.309  1.00  0.00    -0.018 P 
HETATM   11  H20 UNL     1      19.479   1.693  50.339  1.00  0.00     0.081 HD
BRANCH   9  12
HETATM   12  N4  UNL     1      21.949   0.566  53.711  1.00  0.00    -0.404 N 
HETATM   13  H14 UNL     1      22.977   0.812  53.525  1.00  0.00     0.154 HD
BRANCH  12  14
HETATM   14  C17 UNL     1      21.743  -0.412  54.798  1.00  0.00     0.077 A 
HETATM   15  C18 UNL     1      22.897  -1.286  55.159  1.00  0.00     0.027 A 
HETATM   16  C19 UNL     1      21.728  -1.850  54.438  1.00  0.00     0.027 A 
ENDBRANCH  12  14
ENDBRANCH   9  12
BRANCH  10  17
HETATM   17  N5  UNL     1      19.574   4.094  51.588  1.00  0.00    -0.408 N 
HETATM   18  H21 UNL     1      19.613   4.484  52.531  1.00  0.00     0.154 HD
HETATM   19  H22 UNL     1      19.809   4.710  50.803  1.00  0.00     0.154 HD
ENDBRANCH  10  17
ENDBRANCH   6   7
BRANCH   1  20
HETATM   20  C3  UNL     1      22.874   3.115  49.499  1.00  0.00     0.005 C 
BRANCH  20  21
HETATM   21  C2  UNL     1      22.789   2.536  48.144  1.00  0.00     0.025 C 
HETATM   22  C1  UNL     1      21.837   1.345  48.143  1.00  0.00     0.009 C 
ENDBRANCH  20  21
ENDBRANCH   1  20
BRANCH   5  23
HETATM   23  N3  UNL     1      25.748   1.783  53.145  1.00  0.00    -0.340 N 
HETATM   24  H8  UNL     1      25.537   2.294  54.027  1.00  0.00     0.167 HD
BRANCH  23  25
HETATM   25  C7  UNL     1      26.436   0.515  53.068  1.00  0.00     0.035 A 
HETATM   26  C8  UNL     1      25.755  -0.611  52.732  1.00  0.00     0.032 A 
HETATM   27  C9  UNL     1      26.473  -1.808  52.672  1.00  0.00     0.046 A 
HETATM   28  C10 UNL     1      27.842  -1.850  52.947  1.00  0.00     0.138 A 
HETATM   29  F1  UNL     1      28.547  -3.006  52.894  1.00  0.00    -0.204 F 
HETATM   30  C11 UNL     1      28.533  -0.711  53.287  1.00  0.00     0.074 A 
HETATM   31 CL1  UNL     1      30.239  -0.629  53.653  1.00  0.00    -0.081 Cl
HETATM   32  C12 UNL     1      27.796   0.457  53.338  1.00  0.00     0.056 A 
ENDBRANCH  23  25
ENDBRANCH   5  23
TORSDOF 8
ENDMDL
MODEL 3
REMARK VINA RESULT:      -7.8      1.947      2.631
REMARK  8 active torsions:
REMARK  status: ('A' for Active; 'I' for Inactive)
REMARK    1  A    between atoms: C2_2  and  C3_3 
REMARK    2  A    between atoms: C3_3  and  C4_4 
REMARK    3  A    between atoms: C6_8  and  N3_9 
REMARK    4  A    between atoms: N3_9  and  C7_10 
REMARK    5  A    between atoms: C13_18  and  C14_19 
REMARK    6  A    between atoms: C16_21  and  N4_22 
REMARK    7  A    between atoms: N4_22  and  C17_23 
REMARK    8  A    between atoms: P1_26  and  N5_27 
ROOT
HETATM    1  C4  UNL     1      22.703  -0.180  53.347  1.00  0.00     0.068 A 
HETATM    2  N1  UNL     1      23.043  -1.044  54.309  1.00  0.00    -0.241 NA
HETATM    3  C5  UNL     1      24.284  -1.010  54.851  1.00  0.00     0.235 A 
HETATM    4  N2  UNL     1      25.166  -0.106  54.420  1.00  0.00    -0.224 NA
HETATM    5  C6  UNL     1      24.846   0.773  53.453  1.00  0.00     0.142 A 
HETATM    6  C13 UNL     1      23.595   0.738  52.907  1.00  0.00     0.039 A 
ENDROOT
BRANCH   6   7
HETATM    7  C14 UNL     1      23.338   1.614  51.979  1.00  0.00     0.029 C 
HETATM    8  C15 UNL     1      22.454   2.686  51.619  1.00  0.00    -0.011 A 
HETATM    9  C16 UNL     1      22.585   3.361  50.494  1.00  0.00     0.156 A 
HETATM   10  P1  UNL     1      21.067   3.685  52.001  1.00  0.00    -0.018 P 
HETATM   11  H20 UNL     1      21.256   4.924  52.654  1.00  0.00     0.081 HD
BRANCH   9  12
HETATM   12  N4  UNL     1      23.720   2.819  49.783  1.00  0.00    -0.404 N 
HETATM   13  H14 UNL     1      23.677   1.763  49.594  1.00  0.00     0.154 HD
BRANCH  12  14
HETATM   14  C17 UNL     1      24.935   3.481  49.270  1.00  0.00     0.077 A 
HETATM   15  C18 UNL     1      26.231   3.133  49.923  1.00  0.00     0.027 A 
HETATM   16  C19 UNL     1      25.611   4.462  50.154  1.00  0.00     0.027 A 
ENDBRANCH  12  14
ENDBRANCH   9  12
BRANCH  10  17
HETATM   17  N5  UNL     1      19.457   3.055  51.873  1.00  0.00    -0.408 N 
HETATM   18  H21 UNL     1      18.935   3.183  51.005  1.00  0.00     0.154 HD
HETATM   19  H22 UNL     1      19.371   2.156  52.358  1.00  0.00     0.154 HD
ENDBRANCH  10  17
ENDBRANCH   6   7
BRANCH   1  20
HETATM   20  C3  UNL     1      21.509  -0.199  52.813  1.00  0.00     0.005 C 
BRANCH  20  21
HETATM   21  C2  UNL     1      20.391  -0.104  53.773  1.00  0.00     0.025 C 
HETATM   22  C1  UNL     1      19.092  -0.547  53.107  1.00  0.00     0.009 C 
ENDBRANCH  20  21
ENDBRANCH   1  20
BRANCH   5  23
HETATM   23  N3  UNL     1      25.978   1.590  53.215  1.00  0.00    -0.340 N 
HETATM   24  H8  UNL     1      25.848   2.583  52.931  1.00  0.00     0.167 HD
BRANCH  23  25
HETATM   25  C7  UNL     1      27.255   0.944  53.408  1.00  0.00     0.035 A 
HETATM   26  C8  UNL     1      28.318   1.656  53.864  1.00  0.00     0.032 A 
HETATM   27  C9  UNL     1      29.527   0.977  54.032  1.00  0.00     0.046 A 
HETATM   28  C10 UNL     1      29.644  -0.384  53.743  1.00  0.00     0.138 A 
HETATM   29  F1  UNL     1      30.813  -1.052  53.900  1.00  0.00    -0.204 F 
HETATM   30  C11 UNL     1      28.569  -1.107  53.281  1.00  0.00     0.074 A 
HETATM   31 CL1  UNL     1      28.583  -2.807  52.884  1.00  0.00    -0.081 Cl
HETATM   32  C12 UNL     1      27.387  -0.409  53.125  1.00  0.00     0.056 A 
ENDBRANCH  23  25
ENDBRANCH   5  23
TORSDOF 8
ENDMDL
MODEL 4
REMARK VINA RESULT:      -7.7      2.395      4.251
REMARK  8 active torsions:
REMARK  status: ('A' for Active; 'I' for Inactive)
REMARK    1  A    between atoms: C2_2  and  C3_3 
REMARK    2  A    between atoms: C3_3  and  C4_4 
REMARK    3  A    between atoms: C6_8  and  N3_9 
REMARK    4  A    between atoms: N3_9  and  C7_10 
REMARK    5  A    between atoms: C13_18  and  C14_19 
REMARK    6  A    between atoms: C16_21  and  N4_22 
REMARK    7  A    between atoms: N4_22  and  C17_23 
REMARK    8  A    between atoms: P1_26  and  N5_27 
ROOT
HETATM    1  C4  UNL     1      23.962   3.298  49.603  1.00  0.00     0.068 A 
HETATM    2  N1  UNL     1      25.107   3.569  48.967  1.00  0.00    -0.241 NA
HETATM    3  C5  UNL     1      26.286   3.519  49.632  1.00  0.00     0.235 A 
HETATM    4  N2  UNL     1      26.299   3.195  50.927  1.00  0.00    -0.224 NA
HETATM    5  C6  UNL     1      25.159   2.919  51.587  1.00  0.00     0.142 A 
HETATM    6  C13 UNL     1      23.971   2.970  50.916  1.00  0.00     0.039 A 
ENDROOT
BRANCH   6   7
HETATM    7  C14 UNL     1      22.901   2.689  51.602  1.00  0.00     0.029 C 
HETATM    8  C15 UNL     1      22.347   1.758  52.545  1.00  0.00    -0.011 A 
HETATM    9  C16 UNL     1      21.124   1.879  53.019  1.00  0.00     0.156 A 
HETATM   10  P1  UNL     1      22.532   0.314  53.517  1.00  0.00    -0.018 P 
HETATM   11  H20 UNL     1      22.959   0.424  54.859  1.00  0.00     0.081 HD
BRANCH   9  12
HETATM   12  N4  UNL     1      20.533   3.055  52.425  1.00  0.00    -0.404 N 
HETATM   13  H14 UNL     1      21.129   3.946  52.486  1.00  0.00     0.154 HD
BRANCH  12  14
HETATM   14  C17 UNL     1      19.238   3.235  51.740  1.00  0.00     0.077 A 
HETATM   15  C18 UNL     1      19.155   2.812  50.312  1.00  0.00     0.027 A 
HETATM   16  C19 UNL     1      19.162   4.254  50.665  1.00  0.00     0.027 A 
ENDBRANCH  12  14
ENDBRANCH   9  12
BRANCH  10  17
HETATM   17  N5  UNL     1      22.495  -1.259  52.788  1.00  0.00    -0.408 N 
HETATM   18  H21 UNL     1      22.215  -2.066  53.347  1.00  0.00     0.154 HD
HETATM   19  H22 UNL     1      22.168  -1.209  51.817  1.00  0.00     0.154 HD
ENDBRANCH  10  17
ENDBRANCH   6   7
BRANCH   1  20
HETATM   20  C3  UNL     1      22.815   3.341  48.976  1.00  0.00     0.005 C 
BRANCH  20  21
HETATM   21  C2  UNL     1      22.634   2.318  47.927  1.00  0.00     0.025 C 
HETATM   22  C1  UNL     1      21.694   1.223  48.420  1.00  0.00     0.009 C 
ENDBRANCH  20  21
ENDBRANCH   1  20
BRANCH   5  23
HETATM   23  N3  UNL     1      25.496   2.618  52.929  1.00  0.00    -0.340 N 
HETATM   24  H8  UNL     1      24.980   3.079  53.706  1.00  0.00     0.167 HD
BRANCH  23  25
HETATM   25  C7  UNL     1      26.558   1.654  53.096  1.00  0.00     0.035 A 
HETATM   26  C8  UNL     1      27.755   2.039  53.608  1.00  0.00     0.032 A 
HETATM   27  C9  UNL     1      28.743   1.062  53.747  1.00  0.00     0.046 A 
HETATM   28  C10 UNL     1      28.514  -0.264  53.374  1.00  0.00     0.138 A 
HETATM   29  F1  UNL     1      29.467  -1.220  53.503  1.00  0.00    -0.204 F 
HETATM   30  C11 UNL     1      27.302  -0.656  52.855  1.00  0.00     0.074 A 
HETATM   31 CL1  UNL     1      26.889  -2.277  52.352  1.00  0.00    -0.081 Cl
HETATM   32  C12 UNL     1      26.344   0.332  52.730  1.00  0.00     0.056 A 
ENDBRANCH  23  25
ENDBRANCH   5  23
TORSDOF 8
ENDMDL
MODEL 5
REMARK VINA RESULT:      -7.6      3.832      5.905
REMARK  8 active torsions:
REMARK  status: ('A' for Active; 'I' for Inactive)
REMARK    1  A    between atoms: C2_2  and  C3_3 
REMARK    2  A    between atoms: C3_3  and  C4_4 
REMARK    3  A    between atoms: C6_8  and  N3_9 
REMARK    4  A    between atoms: N3_9  and  C7_10 
REMARK    5  A    between atoms: C13_18  and  C14_19 
REMARK    6  A    between atoms: C16_21  and  N4_22 
REMARK    7  A    between atoms: N4_22  and  C17_23 
REMARK    8  A    between atoms: P1_26  and  N5_27 
ROOT
HETATM    1  C4  UNL     1      25.114   0.967  52.664  1.00  0.00     0.068 A 
HETATM    2  N1  UNL     1      26.436   1.147  52.737  1.00  0.00    -0.241 NA
HETATM    3  C5  UNL     1      27.058   1.999  51.886  1.00  0.00     0.235 A 
HETATM    4  N2  UNL     1      26.340   2.658  50.974  1.00  0.00    -0.224 NA
HETATM    5  C6  UNL     1      25.008   2.492  50.882  1.00  0.00     0.142 A 
HETATM    6  C13 UNL     1      24.382   1.633  51.741  1.00  0.00     0.039 A 
ENDROOT
BRANCH   6   7
HETATM    7  C14 UNL     1      23.093   1.515  51.611  1.00  0.00     0.029 C 
HETATM    8  C15 UNL     1      22.040   1.366  50.646  1.00  0.00    -0.011 A 
HETATM    9  C16 UNL     1      20.773   1.262  50.996  1.00  0.00     0.156 A 
HETATM   10  P1  UNL     1      21.540   1.242  48.973  1.00  0.00    -0.018 P 
HETATM   11  H20 UNL     1      21.382  -0.031  48.382  1.00  0.00     0.081 HD
BRANCH   9  12
HETATM   12  N4  UNL     1      20.705   1.326  52.437  1.00  0.00    -0.404 N 
HETATM   13  H14 UNL     1      21.077   2.235  52.871  1.00  0.00     0.154 HD
BRANCH  12  14
HETATM   14  C17 UNL     1      20.205   0.342  53.417  1.00  0.00     0.077 A 
HETATM   15  C18 UNL     1      20.997   0.160  54.668  1.00  0.00     0.027 A 
HETATM   16  C19 UNL     1      21.000  -0.893  53.622  1.00  0.00     0.027 A 
ENDBRANCH  12  14
ENDBRANCH   9  12
BRANCH  10  17
HETATM   17  N5  UNL     1      21.530   2.638  47.943  1.00  0.00    -0.408 N 
HETATM   18  H21 UNL     1      20.941   3.436  48.184  1.00  0.00     0.154 HD
HETATM   19  H22 UNL     1      22.465   2.826  47.567  1.00  0.00     0.154 HD
ENDBRANCH  10  17
ENDBRANCH   6   7
BRANCH   1  20
HETATM   20  C3  UNL     1      24.498   0.149  53.479  1.00  0.00     0.005 C 
BRANCH  20  21
HETATM   21  C2  UNL     1      25.373  -0.580  54.417  1.00  0.00     0.025 C 
HETATM   22  C1  UNL     1      24.538  -1.222  55.520  1.00  0.00     0.009 C 
ENDBRANCH  20  21
ENDBRANCH   1  20
BRANCH   5  23
HETATM   23  N3  UNL     1      24.538   3.315  49.831  1.00  0.00    -0.340 N 
HETATM   24  H8  UNL     1      24.045   2.887  49.021  1.00  0.00     0.167 HD
BRANCH  23  25
HETATM   25  C7  UNL     1      24.788   4.728  49.995  1.00  0.00     0.035 A 
HETATM   26  C8  UNL     1      24.135   5.429  50.957  1.00  0.00     0.032 A 
HETATM   27  C9  UNL     1      24.419   6.792  51.069  1.00  0.00     0.046 A 
HETATM   28  C10 UNL     1      25.340   7.416  50.225  1.00  0.00     0.138 A 
HETATM   29  F1  UNL     1      25.622   8.738  50.324  1.00  0.00    -0.204 F 
HETATM   30  C11 UNL     1      26.003   6.707  49.250  1.00  0.00     0.074 A 
HETATM   31 CL1  UNL     1      27.174   7.366  48.135  1.00  0.00    -0.081 Cl
HETATM   32  C12 UNL     1      25.702   5.362  49.164  1.00  0.00     0.056 A 
ENDBRANCH  23  25
ENDBRANCH   5  23
TORSDOF 8
ENDMDL
MODEL 6
REMARK VINA RESULT:      -7.6      3.646      5.635
REMARK  8 active torsions:
REMARK  status: ('A' for Active; 'I' for Inactive)
REMARK    1  A    between atoms: C2_2  and  C3_3 
REMARK    2  A    between atoms: C3_3  and  C4_4 
REMARK    3  A    between atoms: C6_8  and  N3_9 
REMARK    4  A    between atoms: N3_9  and  C7_10 
REMARK    5  A    between atoms: C13_18  and  C14_19 
REMARK    6  A    between atoms: C16_21  and  N4_22 
REMARK    7  A    between atoms: N4_22  and  C17_23 
REMARK    8  A    between atoms: P1_26  and  N5_27 
ROOT
HETATM    1  C4  UNL     1      26.293   3.087  50.376  1.00  0.00     0.068 A 
HETATM    2  N1  UNL     1      27.270   2.708  51.206  1.00  0.00    -0.241 NA
HETATM    3  C5  UNL     1      26.985   2.362  52.484  1.00  0.00     0.235 A 
HETATM    4  N2  UNL     1      25.721   2.400  52.910  1.00  0.00    -0.224 NA
HETATM    5  C6  UNL     1      24.721   2.779  52.093  1.00  0.00     0.142 A 
HETATM    6  C13 UNL     1      25.010   3.128  50.804  1.00  0.00     0.039 A 
ENDROOT
BRANCH   6   7
HETATM    7  C14 UNL     1      24.005   3.481  50.057  1.00  0.00     0.029 C 
HETATM    8  C15 UNL     1      23.156   4.587  49.711  1.00  0.00    -0.011 A 
HETATM    9  C16 UNL     1      22.194   4.484  48.817  1.00  0.00     0.156 A 
HETATM   10  P1  UNL     1      22.704   6.263  49.939  1.00  0.00    -0.018 P 
HETATM   11  H20 UNL     1      23.250   7.256  49.096  1.00  0.00     0.081 HD
BRANCH   9  12
HETATM   12  N4  UNL     1      22.197   3.130  48.317  1.00  0.00    -0.404 N 
HETATM   13  H14 UNL     1      23.122   2.807  47.878  1.00  0.00     0.154 HD
BRANCH  12  14
HETATM   14  C17 UNL     1      21.131   2.108  48.310  1.00  0.00     0.077 A 
HETATM   15  C18 UNL     1      20.391   1.884  49.586  1.00  0.00     0.027 A 
HETATM   16  C19 UNL     1      21.358   0.870  49.095  1.00  0.00     0.027 A 
ENDBRANCH  12  14
ENDBRANCH   9  12
BRANCH  10  17
HETATM   17  N5  UNL     1      21.844   6.766  51.358  1.00  0.00    -0.408 N 
HETATM   18  H21 UNL     1      21.669   6.092  52.105  1.00  0.00     0.154 HD
HETATM   19  H22 UNL     1      22.095   7.724  51.623  1.00  0.00     0.154 HD
ENDBRANCH  10  17
ENDBRANCH   6   7
BRANCH   1  20
HETATM   20  C3  UNL     1      26.551   3.424  49.138  1.00  0.00     0.005 C 
BRANCH  20  21
HETATM   21  C2  UNL     1      27.426   4.602  48.977  1.00  0.00     0.025 C 
HETATM   22  C1  UNL     1      26.582   5.853  48.757  1.00  0.00     0.009 C 
ENDBRANCH  20  21
ENDBRANCH   1  20
BRANCH   5  23
HETATM   23  N3  UNL     1      23.512   2.720  52.827  1.00  0.00    -0.340 N 
HETATM   24  H8  UNL     1      23.049   3.600  53.131  1.00  0.00     0.167 HD
BRANCH  23  25
HETATM   25  C7  UNL     1      23.013   1.389  53.084  1.00  0.00     0.035 A 
HETATM   26  C8  UNL     1      23.863   0.404  53.470  1.00  0.00     0.032 A 
HETATM   27  C9  UNL     1      23.322  -0.862  53.706  1.00  0.00     0.046 A 
HETATM   28  C10 UNL     1      21.957  -1.111  53.551  1.00  0.00     0.138 A 
HETATM   29  F1  UNL     1      21.421  -2.336  53.774  1.00  0.00    -0.204 F 
HETATM   30  C11 UNL     1      21.094  -0.114  53.159  1.00  0.00     0.074 A 
HETATM   31 CL1  UNL     1      19.372  -0.294  52.929  1.00  0.00    -0.081 Cl
HETATM   32  C12 UNL     1      21.658   1.127  52.934  1.00  0.00     0.056 A 
ENDBRANCH  23  25
ENDBRANCH   5  23
TORSDOF 8
ENDMDL
MODEL 7
REMARK VINA RESULT:      -7.5      2.226      4.549
REMARK  8 active torsions:
REMARK  status: ('A' for Active; 'I' for Inactive)
REMARK    1  A    between atoms: C2_2  and  C3_3 
REMARK    2  A    between atoms: C3_3  and  C4_4 
REMARK    3  A    between atoms: C6_8  and  N3_9 
REMARK    4  A    between atoms: N3_9  and  C7_10 
REMARK    5  A    between atoms: C13_18  and  C14_19 
REMARK    6  A    between atoms: C16_21  and  N4_22 
REMARK    7  A    between atoms: N4_22  and  C17_23 
REMARK    8  A    between atoms: P1_26  and  N5_27 
ROOT
HETATM    1  C4  UNL     1      22.962   4.137  51.506  1.00  0.00     0.068 A 
HETATM    2  N1  UNL     1      23.978   4.820  50.969  1.00  0.00    -0.241 NA
HETATM    3  C5  UNL     1      25.141   4.191  50.668  1.00  0.00     0.235 A 
HETATM    4  N2  UNL     1      25.264   2.884  50.911  1.00  0.00    -0.224 NA
HETATM    5  C6  UNL     1      24.254   2.178  51.451  1.00  0.00     0.142 A 
HETATM    6  C13 UNL     1      23.083   2.812  51.754  1.00  0.00     0.039 A 
ENDROOT
BRANCH   6   7
HETATM    7  C14 UNL     1      22.140   2.079  52.269  1.00  0.00     0.029 C 
HETATM    8  C15 UNL     1      20.859   1.490  51.998  1.00  0.00    -0.011 A 
HETATM    9  C16 UNL     1      20.221   0.750  52.883  1.00  0.00     0.156 A 
HETATM   10  P1  UNL     1      19.522   1.241  50.895  1.00  0.00    -0.018 P 
HETATM   11  H20 UNL     1      19.501   0.096  50.067  1.00  0.00     0.081 HD
BRANCH   9  12
HETATM   12  N4  UNL     1      21.038   0.681  54.072  1.00  0.00    -0.404 N 
HETATM   13  H14 UNL     1      21.392   1.626  54.438  1.00  0.00     0.154 HD
BRANCH  12  14
HETATM   14  C17 UNL     1      21.468  -0.483  54.872  1.00  0.00     0.077 A 
HETATM   15  C18 UNL     1      22.850  -0.997  54.643  1.00  0.00     0.027 A 
HETATM   16  C19 UNL     1      21.676  -1.769  54.163  1.00  0.00     0.027 A 
ENDBRANCH  12  14
ENDBRANCH   9  12
BRANCH  10  17
HETATM   17  N5  UNL     1      18.384   2.510  50.579  1.00  0.00    -0.408 N 
HETATM   18  H21 UNL     1      17.796   2.462  49.745  1.00  0.00     0.154 HD
HETATM   19  H22 UNL     1      17.960   2.852  51.448  1.00  0.00     0.154 HD
ENDBRANCH  10  17
ENDBRANCH   6   7
BRANCH   1  20
HETATM   20  C3  UNL     1      21.833   4.728  51.802  1.00  0.00     0.005 C 
BRANCH  20  21
HETATM   21  C2  UNL     1      21.521   5.925  50.996  1.00  0.00     0.025 C 
HETATM   22  C1  UNL     1      20.355   5.634  50.057  1.00  0.00     0.009 C 
ENDBRANCH  20  21
ENDBRANCH   1  20
BRANCH   5  23
HETATM   23  N3  UNL     1      24.686   0.836  51.586  1.00  0.00    -0.340 N 
HETATM   24  H8  UNL     1      24.288   0.100  50.968  1.00  0.00     0.167 HD
BRANCH  23  25
HETATM   25  C7  UNL     1      25.686   0.611  52.604  1.00  0.00     0.035 A 
HETATM   26  C8  UNL     1      25.673   1.342  53.747  1.00  0.00     0.032 A 
HETATM   27  C9  UNL     1      26.665   1.079  54.696  1.00  0.00     0.046 A 
HETATM   28  C10 UNL     1      27.637   0.100  54.480  1.00  0.00     0.138 A 
HETATM   29  F1  UNL     1      28.605  -0.163  55.391  1.00  0.00    -0.204 F 
HETATM   30  C11 UNL     1      27.652  -0.642  53.322  1.00  0.00     0.074 A 
HETATM   31 CL1  UNL     1      28.808  -1.891  52.931  1.00  0.00    -0.081 Cl
HETATM   32  C12 UNL     1      26.659  -0.359  52.403  1.00  0.00     0.056 A 
ENDBRANCH  23  25
ENDBRANCH   5  23
TORSDOF 8
ENDMDL
MODEL 8
REMARK VINA RESULT:      -7.5      1.999      2.748
REMARK  8 active torsions:
REMARK  status: ('A' for Active; 'I' for Inactive)
REMARK    1  A    between atoms: C2_2  and  C3_3 
REMARK    2  A    between atoms: C3_3  and  C4_4 
REMARK    3  A    between atoms: C6_8  and  N3_9 
REMARK    4  A    between atoms: N3_9  and  C7_10 
REMARK    5  A    between atoms: C13_18  and  C14_19 
REMARK    6  A    between atoms: C16_21  and  N4_22 
REMARK    7  A    between atoms: N4_22  and  C17_23 
REMARK    8  A    between atoms: P1_26  and  N5_27 
ROOT
HETATM    1  C4  UNL     1      21.540   0.459  51.857  1.00  0.00     0.068 A 
HETATM    2  N1  UNL     1      21.396  -0.524  52.751  1.00  0.00    -0.241 NA
HETATM    3  C5  UNL     1      22.286  -0.663  53.763  1.00  0.00     0.235 A 
HETATM    4  N2  UNL     1      23.309   0.189  53.862  1.00  0.00    -0.224 NA
HETATM    5  C6  UNL     1      23.474   1.185  52.973  1.00  0.00     0.142 A 
HETATM    6  C13 UNL     1      22.576   1.325  51.953  1.00  0.00     0.039 A 
ENDROOT
BRANCH   6   7
HETATM    7  C14 UNL     1      22.781   2.308  51.126  1.00  0.00     0.029 C 
HETATM    8  C15 UNL     1      22.176   3.477  50.551  1.00  0.00    -0.011 A 
HETATM    9  C16 UNL     1      22.812   4.251  49.694  1.00  0.00     0.156 A 
HETATM   10  P1  UNL     1      20.790   4.536  50.408  1.00  0.00    -0.018 P 
HETATM   11  H20 UNL     1      20.697   5.684  51.227  1.00  0.00     0.081 HD
BRANCH   9  12
HETATM   12  N4  UNL     1      24.130   3.697  49.493  1.00  0.00    -0.404 N 
HETATM   13  H14 UNL     1      24.187   2.905  48.771  1.00  0.00     0.154 HD
BRANCH  12  14
HETATM   14  C17 UNL     1      25.422   4.045  50.118  1.00  0.00     0.077 A 
HETATM   15  C18 UNL     1      26.604   4.178  49.217  1.00  0.00     0.027 A 
HETATM   16  C19 UNL     1      26.484   3.010  50.127  1.00  0.00     0.027 A 
ENDBRANCH  12  14
ENDBRANCH   9  12
BRANCH  10  17
HETATM   17  N5  UNL     1      19.390   4.050  49.506  1.00  0.00    -0.408 N 
HETATM   18  H21 UNL     1      18.939   3.160  49.720  1.00  0.00     0.154 HD
HETATM   19  H22 UNL     1      18.791   4.854  49.291  1.00  0.00     0.154 HD
ENDBRANCH  10  17
ENDBRANCH   6   7
BRANCH   1  20
HETATM   20  C3  UNL     1      20.689   0.609  50.874  1.00  0.00     0.005 C 
BRANCH  20  21
HETATM   21  C2  UNL     1      19.279   0.339  51.219  1.00  0.00     0.025 C 
HETATM   22  C1  UNL     1      18.371   0.751  50.064  1.00  0.00     0.009 C 
ENDBRANCH  20  21
ENDBRANCH   1  20
BRANCH   5  23
HETATM   23  N3  UNL     1      24.635   1.908  53.339  1.00  0.00    -0.340 N 
HETATM   24  H8  UNL     1      24.550   2.895  53.658  1.00  0.00     0.167 HD
BRANCH  23  25
HETATM   25  C7  UNL     1      25.874   1.172  53.243  1.00  0.00     0.035 A 
HETATM   26  C8  UNL     1      25.921   0.002  52.555  1.00  0.00     0.032 A 
HETATM   27  C9  UNL     1      27.148  -0.664  52.495  1.00  0.00     0.046 A 
HETATM   28  C10 UNL     1      28.287  -0.150  53.119  1.00  0.00     0.138 A 
HETATM   29  F1  UNL     1      29.481  -0.789  53.069  1.00  0.00    -0.204 F 
HETATM   30  C11 UNL     1      28.241   1.035  53.816  1.00  0.00     0.074 A 
HETATM   31 CL1  UNL     1      29.588   1.783  54.637  1.00  0.00    -0.081 Cl
HETATM   32  C12 UNL     1      27.015   1.671  53.857  1.00  0.00     0.056 A 
ENDBRANCH  23  25
ENDBRANCH   5  23
TORSDOF 8
ENDMDL
MODEL 9
REMARK VINA RESULT:      -7.5      3.998      6.928
REMARK  8 active torsions:
REMARK  status: ('A' for Active; 'I' for Inactive)
REMARK    1  A    between atoms: C2_2  and  C3_3 
REMARK    2  A    between atoms: C3_3  and  C4_4 
REMARK    3  A    between atoms: C6_8  and  N3_9 
REMARK    4  A    between atoms: N3_9  and  C7_10 
REMARK    5  A    between atoms: C13_18  and  C14_19 
REMARK    6  A    between atoms: C16_21  and  N4_22 
REMARK    7  A    between atoms: N4_22  and  C17_23 
REMARK    8  A    between atoms: P1_26  and  N5_27 
ROOT
HETATM    1  C4  UNL     1      25.281   1.199  51.921  1.00  0.00     0.068 A 
HETATM    2  N1  UNL     1      26.406   1.681  51.383  1.00  0.00    -0.241 NA
HETATM    3  C5  UNL     1      26.368   2.785  50.597  1.00  0.00     0.235 A 
HETATM    4  N2  UNL     1      25.200   3.388  50.365  1.00  0.00    -0.224 NA
HETATM    5  C6  UNL     1      24.056   2.920  50.896  1.00  0.00     0.142 A 
HETATM    6  C13 UNL     1      24.095   1.808  51.688  1.00  0.00     0.039 A 
ENDROOT
BRANCH   6   7
HETATM    7  C14 UNL     1      22.960   1.401  52.179  1.00  0.00     0.029 C 
HETATM    8  C15 UNL     1      21.596   1.106  51.841  1.00  0.00    -0.011 A 
HETATM    9  C16 UNL     1      20.728   0.671  52.731  1.00  0.00     0.156 A 
HETATM   10  P1  UNL     1      20.327   1.038  50.637  1.00  0.00    -0.018 P 
HETATM   11  H20 UNL     1      20.081  -0.170  49.948  1.00  0.00     0.081 HD
BRANCH   9  12
HETATM   12  N4  UNL     1      21.408   0.570  54.001  1.00  0.00    -0.404 N 
HETATM   13  H14 UNL     1      21.935   1.454  54.308  1.00  0.00     0.154 HD
BRANCH  12  14
HETATM   14  C17 UNL     1      21.498  -0.554  54.954  1.00  0.00     0.077 A 
HETATM   15  C18 UNL     1      22.833  -1.195  55.131  1.00  0.00     0.027 A 
HETATM   16  C19 UNL     1      21.753  -1.907  54.402  1.00  0.00     0.027 A 
ENDBRANCH  12  14
ENDBRANCH   9  12
BRANCH  10  17
HETATM   17  N5  UNL     1      19.574   2.488  50.058  1.00  0.00    -0.408 N 
HETATM   18  H21 UNL     1      19.290   2.551  49.079  1.00  0.00     0.154 HD
HETATM   19  H22 UNL     1      18.951   2.890  50.767  1.00  0.00     0.154 HD
ENDBRANCH  10  17
ENDBRANCH   6   7
BRANCH   1  20
HETATM   20  C3  UNL     1      25.300   0.135  52.683  1.00  0.00     0.005 C 
BRANCH  20  21
HETATM   21  C2  UNL     1      26.644  -0.379  53.010  1.00  0.00     0.025 C 
HETATM   22  C1  UNL     1      26.798  -1.805  52.493  1.00  0.00     0.009 C 
ENDBRANCH  20  21
ENDBRANCH   1  20
BRANCH   5  23
HETATM   23  N3  UNL     1      23.001   3.763  50.471  1.00  0.00    -0.340 N 
HETATM   24  H8  UNL     1      22.510   4.364  51.163  1.00  0.00     0.167 HD
BRANCH  23  25
HETATM   25  C7  UNL     1      22.704   3.712  49.058  1.00  0.00     0.035 A 
HETATM   26  C8  UNL     1      22.658   2.519  48.413  1.00  0.00     0.032 A 
HETATM   27  C9  UNL     1      22.365   2.533  47.047  1.00  0.00     0.046 A 
HETATM   28  C10 UNL     1      22.128   3.728  46.365  1.00  0.00     0.138 A 
HETATM   29  F1  UNL     1      21.846   3.754  45.040  1.00  0.00    -0.204 F 
HETATM   30  C11 UNL     1      22.176   4.939  47.017  1.00  0.00     0.074 A 
HETATM   31 CL1  UNL     1      21.900   6.499  46.283  1.00  0.00    -0.081 Cl
HETATM   32  C12 UNL     1      22.467   4.893  48.367  1.00  0.00     0.056 A 
ENDBRANCH  23  25
ENDBRANCH   5  23
TORSDOF 8
ENDMDL
