MODEL 1
REMARK VINA RESULT:      -8.7      0.000      0.000
REMARK  7 active torsions:
REMARK  status: ('A' for Active; 'I' for Inactive)
REMARK    1  A    between atoms: C2_2  and  C3_3 
REMARK       I    between atoms: C3_3  and  N1_5 
REMARK    2  A    between atoms: N1_5  and  C4_6 
REMARK    3  A    between atoms: C4_6  and  C7_9 
REMARK    4  A    between atoms: C8_11  and  N3_12 
REMARK    5  A    between atoms: N3_12  and  C9_13 
REMARK    6  A    between atoms: C12_16  and  C13_17 
REMARK    7  A    between atoms: C13_17  and  N4_18 
REMARK       I    between atoms: N5_21  and  C16_22 
ROOT
HETATM    1  C9  UNL     1      26.594   4.383  49.357  1.00  0.00     0.135 C 
HETATM    2  C10 UNL     1      25.655   4.387  50.286  1.00  0.00     0.048 A 
HETATM    3  C11 UNL     1      25.399   3.216  51.115  1.00  0.00     0.039 A 
HETATM    4  C12 UNL     1      24.465   3.137  52.080  1.00  0.00    -0.037 A 
HETATM    5  C20 UNL     1      23.700   4.363  52.238  1.00  0.00     0.026 A 
HETATM    6  C21 UNL     1      23.876   5.462  51.523  1.00  0.00     0.089 A 
HETATM    7  N6  UNL     1      24.862   5.550  50.499  1.00  0.00    -0.365 N 
HETATM    8  H27 UNL     1      25.046   6.383  49.906  1.00  0.00     0.165 HD
ENDROOT
BRANCH   1   9
HETATM    9  N3  UNL     1      26.808   5.548  48.571  1.00  0.00    -0.196 N 
HETATM   10  H9  UNL     1      25.944   6.081  48.263  1.00  0.00     0.183 HD
BRANCH   9  11
HETATM   11  C8  UNL     1      28.087   6.010  48.198  1.00  0.00     0.722 A 
HETATM   12  N2  UNL     1      29.338   5.522  48.661  1.00  0.00    -0.064 NA
HETATM   13  C7  UNL     1      30.298   6.181  48.109  1.00  0.00     0.100 A 
HETATM   14  C22 UNL     1      29.693   7.187  47.206  1.00  0.00     0.231 A 
HETATM   15  N7  UNL     1      28.280   6.967  47.361  1.00  0.00    -0.099 NA
BRANCH  13  16
HETATM   16  C4  UNL     1      31.726   5.974  48.329  1.00  0.00     0.058 C 
HETATM   17  C5  UNL     1      32.395   6.850  49.099  1.00  0.00     0.001 C 
HETATM   18  C6  UNL     1      31.727   8.024  49.729  1.00  0.00     0.038 C 
BRANCH  16  19
HETATM   19  N1  UNL     1      32.448   4.886  47.771  1.00  0.00    -0.322 N 
HETATM   20  C3  UNL     1      33.044   4.603  46.520  1.00  0.00     0.244 C 
HETATM   21  O1  UNL     1      33.019   5.405  45.552  1.00  0.00    -0.268 OA
HETATM   22  H4  UNL     1      32.516   4.150  48.537  1.00  0.00     0.169 HD
BRANCH  20  23
HETATM   23  C2  UNL     1      33.716   3.323  46.346  1.00  0.00     0.064 C 
HETATM   24  C1  UNL     1      34.975   3.255  46.000  1.00  0.00     0.017 C 
ENDBRANCH  20  23
ENDBRANCH  16  19
ENDBRANCH  13  16
ENDBRANCH   9  11
ENDBRANCH   1   9
BRANCH   4  25
HETATM   25  C13 UNL     1      24.314   1.884  52.846  1.00  0.00     0.155 C 
BRANCH  25  26
HETATM   26  N4  UNL     1      25.474   1.066  52.937  1.00  0.00    -0.405 N 
HETATM   27  C14 UNL     1      26.376   1.399  53.987  1.00  0.00     0.137 C 
HETATM   28  C15 UNL     1      27.768   0.929  53.527  1.00  0.00     0.145 C 
HETATM   29  N5  UNL     1      27.626  -0.509  53.350  1.00  0.00    -0.349 N 
HETATM   30  C16 UNL     1      28.753  -1.403  53.421  1.00  0.00     0.215 C 
HETATM   31  C18 UNL     1      26.399  -1.199  53.094  1.00  0.00     0.145 C 
HETATM   32  C17 UNL     1      30.133  -0.917  53.674  1.00  0.00     0.117 C 
HETATM   33  O2  UNL     1      28.749  -2.671  53.284  1.00  0.00    -0.274 OA
HETATM   34  C19 UNL     1      25.225  -0.331  52.787  1.00  0.00     0.137 C 
ENDBRANCH  25  26
ENDBRANCH   4  25
TORSDOF 7
ENDMDL
MODEL 2
REMARK VINA RESULT:      -8.4      1.808      8.612
REMARK  7 active torsions:
REMARK  status: ('A' for Active; 'I' for Inactive)
REMARK    1  A    between atoms: C2_2  and  C3_3 
REMARK       I    between atoms: C3_3  and  N1_5 
REMARK    2  A    between atoms: N1_5  and  C4_6 
REMARK    3  A    between atoms: C4_6  and  C7_9 
REMARK    4  A    between atoms: C8_11  and  N3_12 
REMARK    5  A    between atoms: N3_12  and  C9_13 
REMARK    6  A    between atoms: C12_16  and  C13_17 
REMARK    7  A    between atoms: C13_17  and  N4_18 
REMARK       I    between atoms: N5_21  and  C16_22 
ROOT
HETATM    1  C9  UNL     1      27.266   4.472  49.022  1.00  0.00     0.135 C 
HETATM    2  C10 UNL     1      27.312   5.680  48.490  1.00  0.00     0.048 A 
HETATM    3  C11 UNL     1      28.580   6.310  48.142  1.00  0.00     0.039 A 
HETATM    4  C12 UNL     1      28.715   7.533  47.598  1.00  0.00    -0.037 A 
HETATM    5  C20 UNL     1      27.445   8.204  47.376  1.00  0.00     0.026 A 
HETATM    6  C21 UNL     1      26.259   7.695  47.667  1.00  0.00     0.089 A 
HETATM    7  N6  UNL     1      26.111   6.401  48.243  1.00  0.00    -0.365 N 
HETATM    8  H27 UNL     1      25.209   5.950  48.494  1.00  0.00     0.165 HD
ENDROOT
BRANCH   1   9
HETATM    9  N3  UNL     1      26.007   3.896  49.347  1.00  0.00    -0.196 N 
HETATM   10  H9  UNL     1      25.235   4.005  48.628  1.00  0.00     0.183 HD
BRANCH   9  11
HETATM   11  C8  UNL     1      25.755   3.205  50.550  1.00  0.00     0.722 A 
HETATM   12  N2  UNL     1      26.244   1.923  50.915  1.00  0.00    -0.064 NA
HETATM   13  C7  UNL     1      25.809   1.604  52.085  1.00  0.00     0.100 A 
HETATM   14  C22 UNL     1      24.968   2.721  52.574  1.00  0.00     0.231 A 
HETATM   15  N7  UNL     1      25.021   3.673  51.495  1.00  0.00    -0.099 NA
BRANCH  13  16
HETATM   16  C4  UNL     1      26.093   0.366  52.805  1.00  0.00     0.058 C 
HETATM   17  C5  UNL     1      25.063  -0.363  53.269  1.00  0.00     0.001 C 
HETATM   18  C6  UNL     1      23.645   0.054  53.075  1.00  0.00     0.038 C 
BRANCH  16  19
HETATM   19  N1  UNL     1      27.410  -0.112  53.039  1.00  0.00    -0.322 N 
HETATM   20  C3  UNL     1      28.405   0.104  54.021  1.00  0.00     0.244 C 
HETATM   21  O1  UNL     1      28.247   0.880  54.997  1.00  0.00    -0.268 OA
HETATM   22  H4  UNL     1      27.627  -0.786  52.245  1.00  0.00     0.169 HD
BRANCH  20  23
HETATM   23  C2  UNL     1      29.669  -0.607  53.894  1.00  0.00     0.064 C 
HETATM   24  C1  UNL     1      29.724  -1.821  53.412  1.00  0.00     0.017 C 
ENDBRANCH  20  23
ENDBRANCH  16  19
ENDBRANCH  13  16
ENDBRANCH   9  11
ENDBRANCH   1   9
BRANCH   4  25
HETATM   25  C13 UNL     1      30.064   8.050  47.295  1.00  0.00     0.155 C 
BRANCH  25  26
HETATM   26  N4  UNL     1      31.144   7.162  47.554  1.00  0.00    -0.405 N 
HETATM   27  C14 UNL     1      31.766   6.602  46.403  1.00  0.00     0.137 C 
HETATM   28  C15 UNL     1      32.363   5.254  46.846  1.00  0.00     0.145 C 
HETATM   29  N5  UNL     1      33.324   5.605  47.882  1.00  0.00    -0.349 N 
HETATM   30  C16 UNL     1      34.440   4.755  48.209  1.00  0.00     0.215 C 
HETATM   31  C18 UNL     1      33.290   6.791  48.681  1.00  0.00     0.145 C 
HETATM   32  C17 UNL     1      34.681   3.465  47.514  1.00  0.00     0.117 C 
HETATM   33  O2  UNL     1      35.338   4.958  49.090  1.00  0.00    -0.274 OA
HETATM   34  C19 UNL     1      32.050   7.612  48.561  1.00  0.00     0.137 C 
ENDBRANCH  25  26
ENDBRANCH   4  25
TORSDOF 7
ENDMDL
MODEL 3
REMARK VINA RESULT:      -8.4      2.634      3.404
REMARK  7 active torsions:
REMARK  status: ('A' for Active; 'I' for Inactive)
REMARK    1  A    between atoms: C2_2  and  C3_3 
REMARK       I    between atoms: C3_3  and  N1_5 
REMARK    2  A    between atoms: N1_5  and  C4_6 
REMARK    3  A    between atoms: C4_6  and  C7_9 
REMARK    4  A    between atoms: C8_11  and  N3_12 
REMARK    5  A    between atoms: N3_12  and  C9_13 
REMARK    6  A    between atoms: C12_16  and  C13_17 
REMARK    7  A    between atoms: C13_17  and  N4_18 
REMARK       I    between atoms: N5_21  and  C16_22 
ROOT
HETATM    1  C9  UNL     1      27.364   5.467  48.667  1.00  0.00     0.135 C 
HETATM    2  C10 UNL     1      26.248   5.517  49.372  1.00  0.00     0.048 A 
HETATM    3  C11 UNL     1      25.248   4.459  49.289  1.00  0.00     0.039 A 
HETATM    4  C12 UNL     1      24.089   4.432  49.970  1.00  0.00    -0.037 A 
HETATM    5  C20 UNL     1      23.903   5.588  50.831  1.00  0.00     0.026 A 
HETATM    6  C21 UNL     1      24.765   6.584  50.956  1.00  0.00     0.089 A 
HETATM    7  N6  UNL     1      25.993   6.618  50.236  1.00  0.00    -0.365 N 
HETATM    8  H27 UNL     1      26.707   7.371  50.292  1.00  0.00     0.165 HD
ENDROOT
BRANCH   1   9
HETATM    9  N3  UNL     1      28.311   6.522  48.779  1.00  0.00    -0.196 N 
HETATM   10  H9  UNL     1      27.984   7.406  49.266  1.00  0.00     0.183 HD
BRANCH   9  11
HETATM   11  C8  UNL     1      29.628   6.440  48.282  1.00  0.00     0.722 A 
HETATM   12  N2  UNL     1      30.632   5.518  48.678  1.00  0.00    -0.064 NA
HETATM   13  C7  UNL     1      31.716   5.737  48.016  1.00  0.00     0.100 A 
HETATM   14  C22 UNL     1      31.463   6.874  47.101  1.00  0.00     0.231 A 
HETATM   15  N7  UNL     1      30.094   7.224  47.376  1.00  0.00    -0.099 NA
BRANCH  13  16
HETATM   16  C4  UNL     1      32.969   4.999  48.140  1.00  0.00     0.058 C 
HETATM   17  C5  UNL     1      34.088   5.672  48.460  1.00  0.00     0.001 C 
HETATM   18  C6  UNL     1      34.089   7.145  48.687  1.00  0.00     0.038 C 
BRANCH  16  19
HETATM   19  N1  UNL     1      33.066   3.595  47.942  1.00  0.00    -0.322 N 
HETATM   20  C3  UNL     1      32.402   2.639  47.140  1.00  0.00     0.244 C 
HETATM   21  O1  UNL     1      31.470   2.936  46.350  1.00  0.00    -0.268 OA
HETATM   22  H4  UNL     1      33.844   3.257  48.584  1.00  0.00     0.169 HD
BRANCH  20  23
HETATM   23  C2  UNL     1      32.816   1.247  47.235  1.00  0.00     0.064 C 
HETATM   24  C1  UNL     1      32.081   0.281  46.749  1.00  0.00     0.017 C 
ENDBRANCH  20  23
ENDBRANCH  16  19
ENDBRANCH  13  16
ENDBRANCH   9  11
ENDBRANCH   1   9
BRANCH   4  25
HETATM   25  C13 UNL     1      23.165   3.294  49.790  1.00  0.00     0.155 C 
BRANCH  25  26
HETATM   26  N4  UNL     1      23.088   2.377  50.875  1.00  0.00    -0.405 N 
HETATM   27  C14 UNL     1      22.200   1.281  50.687  1.00  0.00     0.137 C 
HETATM   28  C15 UNL     1      21.745   0.847  52.092  1.00  0.00     0.145 C 
HETATM   29  N5  UNL     1      22.974   0.458  52.768  1.00  0.00    -0.349 N 
HETATM   30  C16 UNL     1      22.979  -0.460  53.879  1.00  0.00     0.215 C 
HETATM   31  C18 UNL     1      24.288   0.915  52.434  1.00  0.00     0.145 C 
HETATM   32  C17 UNL     1      21.730  -1.064  54.409  1.00  0.00     0.117 C 
HETATM   33  O2  UNL     1      23.986  -0.871  54.543  1.00  0.00    -0.274 OA
HETATM   34  C19 UNL     1      24.350   2.031  51.446  1.00  0.00     0.137 C 
ENDBRANCH  25  26
ENDBRANCH   4  25
TORSDOF 7
ENDMDL
MODEL 4
REMARK VINA RESULT:      -8.4      7.706     13.223
REMARK  7 active torsions:
REMARK  status: ('A' for Active; 'I' for Inactive)
REMARK    1  A    between atoms: C2_2  and  C3_3 
REMARK       I    between atoms: C3_3  and  N1_5 
REMARK    2  A    between atoms: N1_5  and  C4_6 
REMARK    3  A    between atoms: C4_6  and  C7_9 
REMARK    4  A    between atoms: C8_11  and  N3_12 
REMARK    5  A    between atoms: N3_12  and  C9_13 
REMARK    6  A    between atoms: C12_16  and  C13_17 
REMARK    7  A    between atoms: C13_17  and  N4_18 
REMARK       I    between atoms: N5_21  and  C16_22 
ROOT
HETATM    1  C9  UNL     1      19.197  -0.019  52.130  1.00  0.00     0.135 C 
HETATM    2  C10 UNL     1      20.283  -0.139  52.874  1.00  0.00     0.048 A 
HETATM    3  C11 UNL     1      21.441   0.723  52.675  1.00  0.00     0.039 A 
HETATM    4  C12 UNL     1      22.581   0.667  53.386  1.00  0.00    -0.037 A 
HETATM    5  C20 UNL     1      22.567  -0.362  54.411  1.00  0.00     0.026 A 
HETATM    6  C21 UNL     1      21.554  -1.180  54.649  1.00  0.00     0.089 A 
HETATM    7  N6  UNL     1      20.345  -1.125  53.898  1.00  0.00    -0.365 N 
HETATM    8  H27 UNL     1      19.518  -1.739  54.037  1.00  0.00     0.165 HD
ENDROOT
BRANCH   1   9
HETATM    9  N3  UNL     1      18.091  -0.882  52.360  1.00  0.00    -0.196 N 
HETATM   10  H9  UNL     1      18.314  -1.863  52.696  1.00  0.00     0.183 HD
BRANCH   9  11
HETATM   11  C8  UNL     1      16.749  -0.494  52.165  1.00  0.00     0.722 A 
HETATM   12  N2  UNL     1      15.811  -0.139  53.169  1.00  0.00    -0.064 NA
HETATM   13  C7  UNL     1      14.679   0.157  52.629  1.00  0.00     0.100 A 
HETATM   14  C22 UNL     1      14.827   0.005  51.162  1.00  0.00     0.231 A 
HETATM   15  N7  UNL     1      16.195  -0.415  51.008  1.00  0.00    -0.099 NA
BRANCH  13  16
HETATM   16  C4  UNL     1      13.467   0.571  53.329  1.00  0.00     0.058 C 
HETATM   17  C5  UNL     1      12.531  -0.354  53.605  1.00  0.00     0.001 C 
HETATM   18  C6  UNL     1      12.690  -1.783  53.214  1.00  0.00     0.038 C 
BRANCH  16  19
HETATM   19  N1  UNL     1      13.228   1.909  53.742  1.00  0.00    -0.322 N 
HETATM   20  C3  UNL     1      13.358   3.188  53.152  1.00  0.00     0.244 C 
HETATM   21  O1  UNL     1      13.776   3.362  51.979  1.00  0.00    -0.268 OA
HETATM   22  H4  UNL     1      12.866   1.852  54.741  1.00  0.00     0.169 HD
BRANCH  20  23
HETATM   23  C2  UNL     1      12.992   4.355  53.940  1.00  0.00     0.064 C 
HETATM   24  C1  UNL     1      11.930   4.357  54.703  1.00  0.00     0.017 C 
ENDBRANCH  20  23
ENDBRANCH  16  19
ENDBRANCH  13  16
ENDBRANCH   9  11
ENDBRANCH   1   9
BRANCH   4  25
HETATM   25  C13 UNL     1      23.679   1.606  53.076  1.00  0.00     0.155 C 
BRANCH  25  26
HETATM   26  N4  UNL     1      24.997   1.104  53.258  1.00  0.00    -0.405 N 
HETATM   27  C14 UNL     1      25.462   0.224  52.240  1.00  0.00     0.137 C 
HETATM   28  C15 UNL     1      26.507  -0.691  52.904  1.00  0.00     0.145 C 
HETATM   29  N5  UNL     1      27.544   0.218  53.370  1.00  0.00    -0.349 N 
HETATM   30  C16 UNL     1      28.900  -0.215  53.585  1.00  0.00     0.215 C 
HETATM   31  C18 UNL     1      27.362   1.607  53.664  1.00  0.00     0.145 C 
HETATM   32  C17 UNL     1      29.329  -1.617  53.349  1.00  0.00     0.117 C 
HETATM   33  O2  UNL     1      29.885   0.487  53.987  1.00  0.00    -0.274 OA
HETATM   34  C19 UNL     1      25.948   2.081  53.681  1.00  0.00     0.137 C 
ENDBRANCH  25  26
ENDBRANCH   4  25
TORSDOF 7
ENDMDL
MODEL 5
REMARK VINA RESULT:      -8.2      2.720      3.933
REMARK  7 active torsions:
REMARK  status: ('A' for Active; 'I' for Inactive)
REMARK    1  A    between atoms: C2_2  and  C3_3 
REMARK       I    between atoms: C3_3  and  N1_5 
REMARK    2  A    between atoms: N1_5  and  C4_6 
REMARK    3  A    between atoms: C4_6  and  C7_9 
REMARK    4  A    between atoms: C8_11  and  N3_12 
REMARK    5  A    between atoms: N3_12  and  C9_13 
REMARK    6  A    between atoms: C12_16  and  C13_17 
REMARK    7  A    between atoms: C13_17  and  N4_18 
REMARK       I    between atoms: N5_21  and  C16_22 
ROOT
HETATM    1  C9  UNL     1      27.707   4.687  48.755  1.00  0.00     0.135 C 
HETATM    2  C10 UNL     1      26.537   4.932  49.316  1.00  0.00     0.048 A 
HETATM    3  C11 UNL     1      25.446   3.967  49.255  1.00  0.00     0.039 A 
HETATM    4  C12 UNL     1      24.228   4.137  49.798  1.00  0.00    -0.037 A 
HETATM    5  C20 UNL     1      24.078   5.412  50.480  1.00  0.00     0.026 A 
HETATM    6  C21 UNL     1      25.021   6.334  50.576  1.00  0.00     0.089 A 
HETATM    7  N6  UNL     1      26.313   6.159  50.001  1.00  0.00    -0.365 N 
HETATM    8  H27 UNL     1      27.092   6.845  50.043  1.00  0.00     0.165 HD
ENDROOT
BRANCH   1   9
HETATM    9  N3  UNL     1      28.743   5.658  48.840  1.00  0.00    -0.196 N 
HETATM   10  H9  UNL     1      28.465   6.620  49.189  1.00  0.00     0.183 HD
BRANCH   9  11
HETATM   11  C8  UNL     1      30.083   5.397  48.488  1.00  0.00     0.722 A 
HETATM   12  N2  UNL     1      30.541   4.618  47.393  1.00  0.00    -0.064 NA
HETATM   13  C7  UNL     1      31.829   4.593  47.380  1.00  0.00     0.100 A 
HETATM   14  C22 UNL     1      32.308   5.400  48.526  1.00  0.00     0.231 A 
HETATM   15  N7  UNL     1      31.090   5.852  49.146  1.00  0.00    -0.099 NA
BRANCH  13  16
HETATM   16  C4  UNL     1      32.671   3.899  46.410  1.00  0.00     0.058 C 
HETATM   17  C5  UNL     1      33.238   2.732  46.763  1.00  0.00     0.001 C 
HETATM   18  C6  UNL     1      33.038   2.130  48.112  1.00  0.00     0.038 C 
BRANCH  16  19
HETATM   19  N1  UNL     1      32.919   4.394  45.102  1.00  0.00    -0.322 N 
HETATM   20  C3  UNL     1      34.062   4.573  44.289  1.00  0.00     0.244 C 
HETATM   21  O1  UNL     1      35.223   4.272  44.663  1.00  0.00    -0.268 OA
HETATM   22  H4  UNL     1      31.972   4.675  44.706  1.00  0.00     0.169 HD
BRANCH  20  23
HETATM   23  C2  UNL     1      33.883   5.133  42.957  1.00  0.00     0.064 C 
HETATM   24  C1  UNL     1      33.644   4.369  41.922  1.00  0.00     0.017 C 
ENDBRANCH  20  23
ENDBRANCH  16  19
ENDBRANCH  13  16
ENDBRANCH   9  11
ENDBRANCH   1   9
BRANCH   4  25
HETATM   25  C13 UNL     1      23.214   3.072  49.660  1.00  0.00     0.155 C 
BRANCH  25  26
HETATM   26  N4  UNL     1      23.033   2.233  50.793  1.00  0.00    -0.405 N 
HETATM   27  C14 UNL     1      22.059   1.206  50.644  1.00  0.00     0.137 C 
HETATM   28  C15 UNL     1      21.536   0.897  52.059  1.00  0.00     0.145 C 
HETATM   29  N5  UNL     1      22.712   0.447  52.791  1.00  0.00    -0.349 N 
HETATM   30  C16 UNL     1      22.612  -0.398  53.953  1.00  0.00     0.215 C 
HETATM   31  C18 UNL     1      24.067   0.771  52.468  1.00  0.00     0.145 C 
HETATM   32  C17 UNL     1      21.304  -0.863  54.481  1.00  0.00     0.117 C 
HETATM   33  O2  UNL     1      23.565  -0.852  54.667  1.00  0.00    -0.274 OA
HETATM   34  C19 UNL     1      24.247   1.817  51.419  1.00  0.00     0.137 C 
ENDBRANCH  25  26
ENDBRANCH   4  25
TORSDOF 7
ENDMDL
MODEL 6
REMARK VINA RESULT:      -8.1      2.548      9.958
REMARK  7 active torsions:
REMARK  status: ('A' for Active; 'I' for Inactive)
REMARK    1  A    between atoms: C2_2  and  C3_3 
REMARK       I    between atoms: C3_3  and  N1_5 
REMARK    2  A    between atoms: N1_5  and  C4_6 
REMARK    3  A    between atoms: C4_6  and  C7_9 
REMARK    4  A    between atoms: C8_11  and  N3_12 
REMARK    5  A    between atoms: N3_12  and  C9_13 
REMARK    6  A    between atoms: C12_16  and  C13_17 
REMARK    7  A    between atoms: C13_17  and  N4_18 
REMARK       I    between atoms: N5_21  and  C16_22 
ROOT
HETATM    1  C9  UNL     1      26.723   3.917  49.569  1.00  0.00     0.135 C 
HETATM    2  C10 UNL     1      26.920   5.202  49.335  1.00  0.00     0.048 A 
HETATM    3  C11 UNL     1      27.896   5.654  48.351  1.00  0.00     0.039 A 
HETATM    4  C12 UNL     1      28.158   6.940  48.053  1.00  0.00    -0.037 A 
HETATM    5  C20 UNL     1      27.358   7.880  48.820  1.00  0.00     0.026 A 
HETATM    6  C21 UNL     1      26.456   7.543  49.727  1.00  0.00     0.089 A 
HETATM    7  N6  UNL     1      26.176   6.183  50.047  1.00  0.00    -0.365 N 
HETATM    8  H27 UNL     1      25.482   5.857  50.749  1.00  0.00     0.165 HD
ENDROOT
BRANCH   1   9
HETATM    9  N3  UNL     1      25.760   3.520  50.539  1.00  0.00    -0.196 N 
HETATM   10  H9  UNL     1      24.958   4.191  50.714  1.00  0.00     0.183 HD
BRANCH   9  11
HETATM   11  C8  UNL     1      25.830   2.306  51.252  1.00  0.00     0.722 A 
HETATM   12  N2  UNL     1      24.989   1.895  52.319  1.00  0.00    -0.064 NA
HETATM   13  C7  UNL     1      25.344   0.728  52.734  1.00  0.00     0.100 A 
HETATM   14  C22 UNL     1      26.497   0.290  51.915  1.00  0.00     0.231 A 
HETATM   15  N7  UNL     1      26.701   1.391  51.011  1.00  0.00    -0.099 NA
BRANCH  13  16
HETATM   16  C4  UNL     1      24.722  -0.031  53.815  1.00  0.00     0.058 C 
HETATM   17  C5  UNL     1      25.455  -0.326  54.903  1.00  0.00     0.001 C 
HETATM   18  C6  UNL     1      26.879   0.093  55.037  1.00  0.00     0.038 C 
BRANCH  16  19
HETATM   19  N1  UNL     1      23.373  -0.473  53.778  1.00  0.00    -0.322 N 
HETATM   20  C3  UNL     1      22.526  -1.211  54.638  1.00  0.00     0.244 C 
HETATM   21  O1  UNL     1      22.903  -1.661  55.749  1.00  0.00    -0.268 OA
HETATM   22  H4  UNL     1      22.972  -0.129  52.854  1.00  0.00     0.169 HD
BRANCH  20  23
HETATM   23  C2  UNL     1      21.156  -1.459  54.215  1.00  0.00     0.064 C 
HETATM   24  C1  UNL     1      20.490  -0.583  53.509  1.00  0.00     0.017 C 
ENDBRANCH  20  23
ENDBRANCH  16  19
ENDBRANCH  13  16
ENDBRANCH   9  11
ENDBRANCH   1   9
BRANCH   4  25
HETATM   25  C13 UNL     1      29.175   7.257  47.030  1.00  0.00     0.155 C 
BRANCH  25  26
HETATM   26  N4  UNL     1      30.530   7.182  47.456  1.00  0.00    -0.405 N 
HETATM   27  C14 UNL     1      31.239   6.022  47.037  1.00  0.00     0.137 C 
HETATM   28  C15 UNL     1      32.342   5.787  48.086  1.00  0.00     0.145 C 
HETATM   29  N5  UNL     1      33.159   6.990  48.030  1.00  0.00    -0.349 N 
HETATM   30  C16 UNL     1      34.537   6.998  48.450  1.00  0.00     0.215 C 
HETATM   31  C18 UNL     1      32.723   8.272  47.570  1.00  0.00     0.145 C 
HETATM   32  C17 UNL     1      35.212   5.782  48.970  1.00  0.00     0.117 C 
HETATM   33  O2  UNL     1      35.345   7.984  48.445  1.00  0.00    -0.274 OA
HETATM   34  C19 UNL     1      31.257   8.404  47.327  1.00  0.00     0.137 C 
ENDBRANCH  25  26
ENDBRANCH   4  25
TORSDOF 7
ENDMDL
MODEL 7
REMARK VINA RESULT:      -8.1      3.203      9.727
REMARK  7 active torsions:
REMARK  status: ('A' for Active; 'I' for Inactive)
REMARK    1  A    between atoms: C2_2  and  C3_3 
REMARK       I    between atoms: C3_3  and  N1_5 
REMARK    2  A    between atoms: N1_5  and  C4_6 
REMARK    3  A    between atoms: C4_6  and  C7_9 
REMARK    4  A    between atoms: C8_11  and  N3_12 
REMARK    5  A    between atoms: N3_12  and  C9_13 
REMARK    6  A    between atoms: C12_16  and  C13_17 
REMARK    7  A    between atoms: C13_17  and  N4_18 
REMARK       I    between atoms: N5_21  and  C16_22 
ROOT
HETATM    1  C9  UNL     1      24.778   5.593  50.193  1.00  0.00     0.135 C 
HETATM    2  C10 UNL     1      25.895   5.991  49.610  1.00  0.00     0.048 A 
HETATM    3  C11 UNL     1      26.255   7.402  49.540  1.00  0.00     0.039 A 
HETATM    4  C12 UNL     1      27.369   7.891  48.967  1.00  0.00    -0.037 A 
HETATM    5  C20 UNL     1      28.221   6.859  48.400  1.00  0.00     0.026 A 
HETATM    6  C21 UNL     1      27.959   5.563  48.426  1.00  0.00     0.089 A 
HETATM    7  N6  UNL     1      26.780   5.041  49.031  1.00  0.00    -0.365 N 
HETATM    8  H27 UNL     1      26.520   4.036  49.081  1.00  0.00     0.165 HD
ENDROOT
BRANCH   1   9
HETATM    9  N3  UNL     1      24.467   4.206  50.238  1.00  0.00    -0.196 N 
HETATM   10  H9  UNL     1      24.048   3.784  49.360  1.00  0.00     0.183 HD
BRANCH   9  11
HETATM   11  C8  UNL     1      24.687   3.396  51.371  1.00  0.00     0.722 A 
HETATM   12  N2  UNL     1      25.333   2.132  51.402  1.00  0.00    -0.064 NA
HETATM   13  C7  UNL     1      25.354   1.679  52.608  1.00  0.00     0.100 A 
HETATM   14  C22 UNL     1      24.689   2.677  53.476  1.00  0.00     0.231 A 
HETATM   15  N7  UNL     1      24.313   3.720  52.558  1.00  0.00    -0.099 NA
BRANCH  13  16
HETATM   16  C4  UNL     1      25.930   0.411  53.045  1.00  0.00     0.058 C 
HETATM   17  C5  UNL     1      25.103  -0.602  53.359  1.00  0.00     0.001 C 
HETATM   18  C6  UNL     1      23.621  -0.469  53.280  1.00  0.00     0.038 C 
BRANCH  16  19
HETATM   19  N1  UNL     1      27.329   0.190  53.152  1.00  0.00    -0.322 N 
HETATM   20  C3  UNL     1      28.412   0.849  53.778  1.00  0.00     0.244 C 
HETATM   21  O1  UNL     1      28.278   1.906  54.446  1.00  0.00    -0.268 OA
HETATM   22  H4  UNL     1      27.532  -0.700  52.606  1.00  0.00     0.169 HD
BRANCH  20  23
HETATM   23  C2  UNL     1      29.744   0.276  53.643  1.00  0.00     0.064 C 
HETATM   24  C1  UNL     1      29.933  -1.017  53.637  1.00  0.00     0.017 C 
ENDBRANCH  20  23
ENDBRANCH  16  19
ENDBRANCH  13  16
ENDBRANCH   9  11
ENDBRANCH   1   9
BRANCH   4  25
HETATM   25  C13 UNL     1      27.609   9.348  48.968  1.00  0.00     0.155 C 
BRANCH  25  26
HETATM   26  N4  UNL     1      28.809   9.782  48.341  1.00  0.00    -0.405 N 
HETATM   27  C14 UNL     1      28.646  10.759  47.318  1.00  0.00     0.137 C 
HETATM   28  C15 UNL     1      29.839  10.585  46.361  1.00  0.00     0.145 C 
HETATM   29  N5  UNL     1      31.009  10.837  47.189  1.00  0.00    -0.349 N 
HETATM   30  C16 UNL     1      32.263  11.272  46.628  1.00  0.00     0.215 C 
HETATM   31  C18 UNL     1      31.069  10.693  48.611  1.00  0.00     0.145 C 
HETATM   32  C17 UNL     1      32.444  11.488  45.170  1.00  0.00     0.117 C 
HETATM   33  O2  UNL     1      33.347  11.522  47.250  1.00  0.00    -0.274 OA
HETATM   34  C19 UNL     1      29.887  10.037  49.242  1.00  0.00     0.137 C 
ENDBRANCH  25  26
ENDBRANCH   4  25
TORSDOF 7
ENDMDL
MODEL 8
REMARK VINA RESULT:      -8.1      3.306      9.850
REMARK  7 active torsions:
REMARK  status: ('A' for Active; 'I' for Inactive)
REMARK    1  A    between atoms: C2_2  and  C3_3 
REMARK       I    between atoms: C3_3  and  N1_5 
REMARK    2  A    between atoms: N1_5  and  C4_6 
REMARK    3  A    between atoms: C4_6  and  C7_9 
REMARK    4  A    between atoms: C8_11  and  N3_12 
REMARK    5  A    between atoms: N3_12  and  C9_13 
REMARK    6  A    between atoms: C12_16  and  C13_17 
REMARK    7  A    between atoms: C13_17  and  N4_18 
REMARK       I    between atoms: N5_21  and  C16_22 
ROOT
HETATM    1  C9  UNL     1      25.489   5.696  49.972  1.00  0.00     0.135 C 
HETATM    2  C10 UNL     1      26.339   6.672  49.708  1.00  0.00     0.048 A 
HETATM    3  C11 UNL     1      27.333   6.549  48.649  1.00  0.00     0.039 A 
HETATM    4  C12 UNL     1      28.232   7.492  48.316  1.00  0.00    -0.037 A 
HETATM    5  C20 UNL     1      28.131   8.693  49.128  1.00  0.00     0.026 A 
HETATM    6  C21 UNL     1      27.256   8.875  50.104  1.00  0.00     0.089 A 
HETATM    7  N6  UNL     1      26.303   7.879  50.461  1.00  0.00    -0.365 N 
HETATM    8  H27 UNL     1      25.594   7.963  51.216  1.00  0.00     0.165 HD
ENDROOT
BRANCH   1   9
HETATM    9  N3  UNL     1      24.536   5.859  51.015  1.00  0.00    -0.196 N 
HETATM   10  H9  UNL     1      24.646   6.717  51.630  1.00  0.00     0.183 HD
BRANCH   9  11
HETATM   11  C8  UNL     1      23.483   4.953  51.255  1.00  0.00     0.722 A 
HETATM   12  N2  UNL     1      23.524   3.542  51.110  1.00  0.00    -0.064 NA
HETATM   13  C7  UNL     1      22.378   3.035  51.412  1.00  0.00     0.100 A 
HETATM   14  C22 UNL     1      21.479   4.149  51.793  1.00  0.00     0.231 A 
HETATM   15  N7  UNL     1      22.313   5.313  51.648  1.00  0.00    -0.099 NA
BRANCH  13  16
HETATM   16  C4  UNL     1      22.025   1.619  51.388  1.00  0.00     0.058 C 
HETATM   17  C5  UNL     1      21.777   1.034  50.203  1.00  0.00     0.001 C 
HETATM   18  C6  UNL     1      21.847   1.786  48.917  1.00  0.00     0.038 C 
BRANCH  16  19
HETATM   19  N1  UNL     1      21.934   0.821  52.559  1.00  0.00    -0.322 N 
HETATM   20  C3  UNL     1      22.831   0.033  53.318  1.00  0.00     0.244 C 
HETATM   21  O1  UNL     1      24.045  -0.102  53.021  1.00  0.00    -0.268 OA
HETATM   22  H4  UNL     1      20.922   0.880  52.882  1.00  0.00     0.169 HD
BRANCH  20  23
HETATM   23  C2  UNL     1      22.323  -0.652  54.498  1.00  0.00     0.064 C 
HETATM   24  C1  UNL     1      21.390  -1.564  54.408  1.00  0.00     0.017 C 
ENDBRANCH  20  23
ENDBRANCH  16  19
ENDBRANCH  13  16
ENDBRANCH   9  11
ENDBRANCH   1   9
BRANCH   4  25
HETATM   25  C13 UNL     1      29.184   7.234  47.217  1.00  0.00     0.155 C 
BRANCH  25  26
HETATM   26  N4  UNL     1      30.551   7.121  47.591  1.00  0.00    -0.405 N 
HETATM   27  C14 UNL     1      31.162   5.867  47.304  1.00  0.00     0.137 C 
HETATM   28  C15 UNL     1      32.299   5.696  48.327  1.00  0.00     0.145 C 
HETATM   29  N5  UNL     1      33.189   6.820  48.073  1.00  0.00    -0.349 N 
HETATM   30  C16 UNL     1      34.585   6.786  48.430  1.00  0.00     0.215 C 
HETATM   31  C18 UNL     1      32.813   8.058  47.462  1.00  0.00     0.145 C 
HETATM   32  C17 UNL     1      35.205   5.604  49.081  1.00  0.00     0.117 C 
HETATM   33  O2  UNL     1      35.453   7.702  48.256  1.00  0.00    -0.274 OA
HETATM   34  C19 UNL     1      31.348   8.260  47.267  1.00  0.00     0.137 C 
ENDBRANCH  25  26
ENDBRANCH   4  25
TORSDOF 7
ENDMDL
MODEL 9
REMARK VINA RESULT:      -8.0      2.003      3.494
REMARK  7 active torsions:
REMARK  status: ('A' for Active; 'I' for Inactive)
REMARK    1  A    between atoms: C2_2  and  C3_3 
REMARK       I    between atoms: C3_3  and  N1_5 
REMARK    2  A    between atoms: N1_5  and  C4_6 
REMARK    3  A    between atoms: C4_6  and  C7_9 
REMARK    4  A    between atoms: C8_11  and  N3_12 
REMARK    5  A    between atoms: N3_12  and  C9_13 
REMARK    6  A    between atoms: C12_16  and  C13_17 
REMARK    7  A    between atoms: C13_17  and  N4_18 
REMARK       I    between atoms: N5_21  and  C16_22 
ROOT
HETATM    1  C9  UNL     1      26.904   4.212  49.269  1.00  0.00     0.135 C 
HETATM    2  C10 UNL     1      25.921   4.248  50.150  1.00  0.00     0.048 A 
HETATM    3  C11 UNL     1      25.621   3.104  51.002  1.00  0.00     0.039 A 
HETATM    4  C12 UNL     1      24.641   3.057  51.923  1.00  0.00    -0.037 A 
HETATM    5  C20 UNL     1      23.873   4.288  52.004  1.00  0.00     0.026 A 
HETATM    6  C21 UNL     1      24.087   5.364  51.264  1.00  0.00     0.089 A 
HETATM    7  N6  UNL     1      25.123   5.417  50.288  1.00  0.00    -0.365 N 
HETATM    8  H27 UNL     1      25.338   6.231  49.679  1.00  0.00     0.165 HD
ENDROOT
BRANCH   1   9
HETATM    9  N3  UNL     1      27.161   5.352  48.458  1.00  0.00    -0.196 N 
HETATM   10  H9  UNL     1      26.319   5.816  48.010  1.00  0.00     0.183 HD
BRANCH   9  11
HETATM   11  C8  UNL     1      28.452   5.873  48.236  1.00  0.00     0.722 A 
HETATM   12  N2  UNL     1      28.781   7.064  47.537  1.00  0.00    -0.064 NA
HETATM   13  C7  UNL     1      30.059   7.229  47.527  1.00  0.00     0.100 A 
HETATM   14  C22 UNL     1      30.666   6.094  48.260  1.00  0.00     0.231 A 
HETATM   15  N7  UNL     1      29.527   5.308  48.657  1.00  0.00    -0.099 NA
BRANCH  13  16
HETATM   16  C4  UNL     1      30.784   8.334  46.907  1.00  0.00     0.058 C 
HETATM   17  C5  UNL     1      31.705   8.058  45.968  1.00  0.00     0.001 C 
HETATM   18  C6  UNL     1      32.012   6.662  45.544  1.00  0.00     0.038 C 
BRANCH  16  19
HETATM   19  N1  UNL     1      30.561   9.695  47.246  1.00  0.00    -0.322 N 
HETATM   20  C3  UNL     1      30.390  10.424  48.446  1.00  0.00     0.244 C 
HETATM   21  O1  UNL     1      30.413   9.888  49.582  1.00  0.00    -0.268 OA
HETATM   22  H4  UNL     1      30.526  10.229  46.326  1.00  0.00     0.169 HD
BRANCH  20  23
HETATM   23  C2  UNL     1      30.177  11.861  48.359  1.00  0.00     0.064 C 
HETATM   24  C1  UNL     1      30.619  12.674  49.283  1.00  0.00     0.017 C 
ENDBRANCH  20  23
ENDBRANCH  16  19
ENDBRANCH  13  16
ENDBRANCH   9  11
ENDBRANCH   1   9
BRANCH   4  25
HETATM   25  C13 UNL     1      24.449   1.829  52.720  1.00  0.00     0.155 C 
BRANCH  25  26
HETATM   26  N4  UNL     1      25.588   0.987  52.852  1.00  0.00    -0.405 N 
HETATM   27  C14 UNL     1      26.458   1.302  53.934  1.00  0.00     0.137 C 
HETATM   28  C15 UNL     1      27.855   0.803  53.524  1.00  0.00     0.145 C 
HETATM   29  N5  UNL     1      27.690  -0.632  53.341  1.00  0.00    -0.349 N 
HETATM   30  C16 UNL     1      28.796  -1.548  53.452  1.00  0.00     0.215 C 
HETATM   31  C18 UNL     1      26.460  -1.296  53.040  1.00  0.00     0.145 C 
HETATM   32  C17 UNL     1      30.175  -1.090  53.756  1.00  0.00     0.117 C 
HETATM   33  O2  UNL     1      28.771  -2.815  53.313  1.00  0.00    -0.274 OA
HETATM   34  C19 UNL     1      25.316  -0.405  52.691  1.00  0.00     0.137 C 
ENDBRANCH  25  26
ENDBRANCH   4  25
TORSDOF 7
ENDMDL
