MODEL 1
REMARK VINA RESULT:      -7.8      0.000      0.000
REMARK  9 active torsions:
REMARK  status: ('A' for Active; 'I' for Inactive)
REMARK    1  A    between atoms: O1_2  and  C2_3 
REMARK    2  A    between atoms: C2_3  and  C3_4 
REMARK    3  A    between atoms: C3_4  and  N1_5 
REMARK    4  A    between atoms: C7_9  and  C8_10 
REMARK    5  A    between atoms: C9_11  and  C10_12 
REMARK    6  A    between atoms: C14_16  and  N2_17 
REMARK    7  A    between atoms: C17_21  and  O2_22 
REMARK    8  A    between atoms: O2_22  and  C18_23 
REMARK    9  A    between atoms: C18_23  and  C19_24 
ROOT
HETATM    1  C10 UNL     1      25.339   1.871  51.840  1.00  0.00     0.068 C 
HETATM    2  C11 UNL     1      25.055   0.634  52.294  1.00  0.00     0.006 C 
HETATM    3  C12 UNL     1      26.386  -0.122  52.050  1.00  0.00     0.093 C 
HETATM    4  C13 UNL     1      26.938   0.549  53.340  1.00  0.00     0.034 C 
HETATM    5  C14 UNL     1      27.015   0.083  54.608  1.00  0.00     0.134 C 
HETATM    6  N3  UNL     1      26.086  -0.949  55.079  1.00  0.00    -0.243 NA
HETATM    7  C15 UNL     1      24.747  -0.904  55.145  1.00  0.00     0.122 C 
HETATM    8  C16 UNL     1      23.700  -0.524  54.110  1.00  0.00     0.056 C 
HETATM    9  C17 UNL     1      23.813   0.264  52.982  1.00  0.00     0.079 C 
HETATM   10  S1  UNL     1      27.149   2.075  52.295  1.00  0.00    -0.081 SA
ENDROOT
BRANCH   1  11
HETATM   11  C9  UNL     1      24.287   2.613  51.251  1.00  0.00    -0.057 C 
HETATM   12  C8  UNL     1      23.418   3.246  50.746  1.00  0.00    -0.064 C 
BRANCH  12  13
HETATM   13  C7  UNL     1      22.388   4.010  50.117  1.00  0.00     0.301 C 
HETATM   14  N1  UNL     1      22.932   5.208  49.529  1.00  0.00     0.106 N 
HETATM   15  C4  UNL     1      21.768   5.887  49.065  1.00  0.00     0.274 C 
HETATM   16  C5  UNL     1      20.784   5.684  50.228  1.00  0.00     0.033 C 
HETATM   17  C6  UNL     1      21.391   4.595  51.098  1.00  0.00     0.050 C 
BRANCH  14  18
HETATM   18  C3  UNL     1      23.802   5.855  50.429  1.00  0.00     0.300 C 
BRANCH  18  19
HETATM   19  C2  UNL     1      25.098   6.364  49.920  1.00  0.00     0.197 C 
BRANCH  19  20
HETATM   20  O1  UNL     1      25.659   5.746  48.846  1.00  0.00    -0.394 OA
HETATM   21  C1  UNL     1      26.533   4.707  49.144  1.00  0.00     0.201 C 
ENDBRANCH  19  20
ENDBRANCH  18  19
ENDBRANCH  14  18
ENDBRANCH  12  13
ENDBRANCH   1  11
BRANCH   9  22
HETATM   22  O2  UNL     1      22.811   0.857  52.284  1.00  0.00    -0.346 OA
BRANCH  22  23
HETATM   23  C18 UNL     1      21.601   1.140  53.012  1.00  0.00     0.214 C 
BRANCH  23  24
HETATM   24  C19 UNL     1      20.384   0.740  52.273  1.00  0.00    -0.034 A 
HETATM   25  C20 UNL     1      19.908   1.120  51.039  1.00  0.00     0.009 A 
HETATM   26  C21 UNL     1      18.725   0.610  50.553  1.00  0.00     0.001 A 
HETATM   27  C22 UNL     1      17.960  -0.311  51.281  1.00  0.00     0.007 A 
HETATM   28  C23 UNL     1      18.445  -0.693  52.527  1.00  0.00    -0.061 A 
HETATM   29  C24 UNL     1      17.615  -1.665  53.267  1.00  0.00     0.048 C 
HETATM   30  C25 UNL     1      19.630  -0.180  53.012  1.00  0.00     0.016 A 
ENDBRANCH  23  24
ENDBRANCH  22  23
ENDBRANCH   9  22
BRANCH   5  31
HETATM   31  N2  UNL     1      28.081   0.942  54.982  1.00  0.00    -0.383 N 
HETATM   32  H17 UNL     1      28.506   0.515  55.859  1.00  0.00     0.157 HD
HETATM   33  H18 UNL     1      28.211   1.764  54.348  1.00  0.00     0.157 HD
ENDBRANCH   5  31
TORSDOF 9
ENDMDL
MODEL 2
REMARK VINA RESULT:      -7.8      1.610      1.997
REMARK  9 active torsions:
REMARK  status: ('A' for Active; 'I' for Inactive)
REMARK    1  A    between atoms: O1_2  and  C2_3 
REMARK    2  A    between atoms: C2_3  and  C3_4 
REMARK    3  A    between atoms: C3_4  and  N1_5 
REMARK    4  A    between atoms: C7_9  and  C8_10 
REMARK    5  A    between atoms: C9_11  and  C10_12 
REMARK    6  A    between atoms: C14_16  and  N2_17 
REMARK    7  A    between atoms: C17_21  and  O2_22 
REMARK    8  A    between atoms: O2_22  and  C18_23 
REMARK    9  A    between atoms: C18_23  and  C19_24 
ROOT
HETATM    1  C10 UNL     1      25.546   2.186  51.840  1.00  0.00     0.068 C 
HETATM    2  C11 UNL     1      25.165   0.931  52.153  1.00  0.00     0.006 C 
HETATM    3  C12 UNL     1      26.460   0.118  51.899  1.00  0.00     0.093 C 
HETATM    4  C13 UNL     1      26.979   0.623  53.276  1.00  0.00     0.034 C 
HETATM    5  C14 UNL     1      26.959   0.031  54.492  1.00  0.00     0.134 C 
HETATM    6  N3  UNL     1      25.945  -0.979  54.811  1.00  0.00    -0.243 NA
HETATM    7  C15 UNL     1      24.609  -0.855  54.815  1.00  0.00     0.122 C 
HETATM    8  C16 UNL     1      23.646  -0.309  53.774  1.00  0.00     0.056 C 
HETATM    9  C17 UNL     1      23.867   0.577  52.738  1.00  0.00     0.079 C 
HETATM   10  S1  UNL     1      27.337   2.227  52.401  1.00  0.00    -0.081 SA
ENDROOT
BRANCH   1  11
HETATM   11  C9  UNL     1      24.573   3.048  51.278  1.00  0.00    -0.057 C 
HETATM   12  C8  UNL     1      23.757   3.783  50.825  1.00  0.00    -0.064 C 
BRANCH  12  13
HETATM   13  C7  UNL     1      22.786   4.685  50.295  1.00  0.00     0.301 C 
HETATM   14  N1  UNL     1      23.428   5.781  49.616  1.00  0.00     0.106 N 
HETATM   15  C4  UNL     1      22.330   6.621  49.268  1.00  0.00     0.274 C 
HETATM   16  C5  UNL     1      21.468   6.580  50.539  1.00  0.00     0.033 C 
HETATM   17  C6  UNL     1      22.005   5.422  51.365  1.00  0.00     0.050 C 
BRANCH  14  18
HETATM   18  C3  UNL     1      24.481   6.302  50.395  1.00  0.00     0.300 C 
BRANCH  18  19
HETATM   19  C2  UNL     1      25.818   6.446  49.771  1.00  0.00     0.197 C 
BRANCH  19  20
HETATM   20  O1  UNL     1      26.126   5.653  48.710  1.00  0.00    -0.394 OA
HETATM   21  C1  UNL     1      27.079   4.670  48.955  1.00  0.00     0.201 C 
ENDBRANCH  19  20
ENDBRANCH  18  19
ENDBRANCH  14  18
ENDBRANCH  12  13
ENDBRANCH   1  11
BRANCH   9  22
HETATM   22  O2  UNL     1      22.942   1.298  52.055  1.00  0.00    -0.346 OA
BRANCH  22  23
HETATM   23  C18 UNL     1      21.884   0.554  51.423  1.00  0.00     0.214 C 
BRANCH  23  24
HETATM   24  C19 UNL     1      21.204   1.320  50.358  1.00  0.00    -0.034 A 
HETATM   25  C20 UNL     1      21.387   1.333  48.994  1.00  0.00     0.009 A 
HETATM   26  C21 UNL     1      20.626   2.151  48.189  1.00  0.00     0.001 A 
HETATM   27  C22 UNL     1      19.639   2.997  48.713  1.00  0.00     0.007 A 
HETATM   28  C23 UNL     1      19.457   2.980  50.091  1.00  0.00    -0.061 A 
HETATM   29  C24 UNL     1      18.410   3.883  50.610  1.00  0.00     0.048 C 
HETATM   30  C25 UNL     1      20.221   2.161  50.895  1.00  0.00     0.016 A 
ENDBRANCH  23  24
ENDBRANCH  22  23
ENDBRANCH   9  22
BRANCH   5  31
HETATM   31  N2  UNL     1      28.051   0.780  55.002  1.00  0.00    -0.383 N 
HETATM   32  H17 UNL     1      27.691   1.773  55.124  1.00  0.00     0.157 HD
HETATM   33  H18 UNL     1      28.926   0.222  55.139  1.00  0.00     0.157 HD
ENDBRANCH   5  31
TORSDOF 9
ENDMDL
MODEL 3
REMARK VINA RESULT:      -7.8      2.235      6.153
REMARK  9 active torsions:
REMARK  status: ('A' for Active; 'I' for Inactive)
REMARK    1  A    between atoms: O1_2  and  C2_3 
REMARK    2  A    between atoms: C2_3  and  C3_4 
REMARK    3  A    between atoms: C3_4  and  N1_5 
REMARK    4  A    between atoms: C7_9  and  C8_10 
REMARK    5  A    between atoms: C9_11  and  C10_12 
REMARK    6  A    between atoms: C14_16  and  N2_17 
REMARK    7  A    between atoms: C17_21  and  O2_22 
REMARK    8  A    between atoms: O2_22  and  C18_23 
REMARK    9  A    between atoms: C18_23  and  C19_24 
ROOT
HETATM    1  C10 UNL     1      23.847   4.483  51.170  1.00  0.00     0.068 C 
HETATM    2  C11 UNL     1      22.768   4.389  50.367  1.00  0.00     0.006 C 
HETATM    3  C12 UNL     1      22.232   5.843  50.361  1.00  0.00     0.093 C 
HETATM    4  C13 UNL     1      23.342   6.188  49.328  1.00  0.00     0.034 C 
HETATM    5  C14 UNL     1      23.292   6.264  47.978  1.00  0.00     0.134 C 
HETATM    6  N3  UNL     1      22.293   5.499  47.226  1.00  0.00    -0.243 NA
HETATM    7  C15 UNL     1      22.108   4.171  47.188  1.00  0.00     0.122 C 
HETATM    8  C16 UNL     1      21.968   3.142  48.299  1.00  0.00     0.056 C 
HETATM    9  C17 UNL     1      22.395   3.188  49.611  1.00  0.00     0.079 C 
HETATM   10  S1  UNL     1      24.505   6.198  50.782  1.00  0.00    -0.081 SA
ENDROOT
BRANCH   1  11
HETATM   11  C9  UNL     1      24.176   3.357  51.964  1.00  0.00    -0.057 C 
HETATM   12  C8  UNL     1      24.472   2.419  52.630  1.00  0.00    -0.064 C 
BRANCH  12  13
HETATM   13  C7  UNL     1      24.847   1.306  53.441  1.00  0.00     0.301 C 
HETATM   14  N1  UNL     1      26.075   1.581  54.143  1.00  0.00     0.106 N 
HETATM   15  C4  UNL     1      26.351   0.341  54.791  1.00  0.00     0.274 C 
HETATM   16  C5  UNL     1      26.015  -0.684  53.697  1.00  0.00     0.033 C 
HETATM   17  C6  UNL     1      25.239   0.083  52.637  1.00  0.00     0.050 C 
BRANCH  14  18
HETATM   18  C3  UNL     1      27.034   2.138  53.273  1.00  0.00     0.300 C 
BRANCH  18  19
HETATM   19  C2  UNL     1      28.458   2.115  53.681  1.00  0.00     0.197 C 
BRANCH  19  20
HETATM   20  O1  UNL     1      29.314   1.306  53.000  1.00  0.00    -0.394 OA
HETATM   21  C1  UNL     1      29.717   0.160  53.675  1.00  0.00     0.201 C 
ENDBRANCH  19  20
ENDBRANCH  18  19
ENDBRANCH  14  18
ENDBRANCH  12  13
ENDBRANCH   1  11
BRANCH   9  22
HETATM   22  O2  UNL     1      22.562   2.145  50.463  1.00  0.00    -0.346 OA
BRANCH  22  23
HETATM   23  C18 UNL     1      21.899   0.915  50.111  1.00  0.00     0.214 C 
BRANCH  23  24
HETATM   24  C19 UNL     1      20.981   0.439  51.168  1.00  0.00    -0.034 A 
HETATM   25  C20 UNL     1      19.608   0.383  51.215  1.00  0.00     0.009 A 
HETATM   26  C21 UNL     1      18.961  -0.103  52.330  1.00  0.00     0.001 A 
HETATM   27  C22 UNL     1      19.662  -0.558  53.455  1.00  0.00     0.007 A 
HETATM   28  C23 UNL     1      21.051  -0.499  53.402  1.00  0.00    -0.061 A 
HETATM   29  C24 UNL     1      21.758  -0.987  54.604  1.00  0.00     0.048 C 
HETATM   30  C25 UNL     1      21.696  -0.012  52.285  1.00  0.00     0.016 A 
ENDBRANCH  23  24
ENDBRANCH  22  23
ENDBRANCH   9  22
BRANCH   5  31
HETATM   31  N2  UNL     1      24.404   7.140  47.871  1.00  0.00    -0.383 N 
HETATM   32  H17 UNL     1      25.268   6.520  47.919  1.00  0.00     0.157 HD
HETATM   33  H18 UNL     1      24.147   8.149  47.774  1.00  0.00     0.157 HD
ENDBRANCH   5  31
TORSDOF 9
ENDMDL
MODEL 4
REMARK VINA RESULT:      -7.7      2.536      7.597
REMARK  9 active torsions:
REMARK  status: ('A' for Active; 'I' for Inactive)
REMARK    1  A    between atoms: O1_2  and  C2_3 
REMARK    2  A    between atoms: C2_3  and  C3_4 
REMARK    3  A    between atoms: C3_4  and  N1_5 
REMARK    4  A    between atoms: C7_9  and  C8_10 
REMARK    5  A    between atoms: C9_11  and  C10_12 
REMARK    6  A    between atoms: C14_16  and  N2_17 
REMARK    7  A    between atoms: C17_21  and  O2_22 
REMARK    8  A    between atoms: O2_22  and  C18_23 
REMARK    9  A    between atoms: C18_23  and  C19_24 
ROOT
HETATM    1  C10 UNL     1      22.555   3.628  50.168  1.00  0.00     0.068 C 
HETATM    2  C11 UNL     1      23.596   4.046  49.421  1.00  0.00     0.006 C 
HETATM    3  C12 UNL     1      22.891   4.651  48.180  1.00  0.00     0.093 C 
HETATM    4  C13 UNL     1      22.607   5.922  49.031  1.00  0.00     0.034 C 
HETATM    5  C14 UNL     1      23.277   7.095  49.107  1.00  0.00     0.134 C 
HETATM    6  N3  UNL     1      24.706   7.158  48.787  1.00  0.00    -0.243 NA
HETATM    7  C15 UNL     1      25.725   6.506  49.366  1.00  0.00     0.122 C 
HETATM    8  C16 UNL     1      25.926   5.033  49.684  1.00  0.00     0.056 C 
HETATM    9  C17 UNL     1      24.996   4.027  49.859  1.00  0.00     0.079 C 
HETATM   10  S1  UNL     1      21.245   4.927  49.818  1.00  0.00    -0.081 SA
ENDROOT
BRANCH   1  11
HETATM   11  C9  UNL     1      22.739   2.472  50.965  1.00  0.00    -0.057 C 
HETATM   12  C8  UNL     1      22.874   1.496  51.628  1.00  0.00    -0.064 C 
BRANCH  12  13
HETATM   13  C7  UNL     1      23.020   0.309  52.409  1.00  0.00     0.301 C 
HETATM   14  N1  UNL     1      21.785  -0.432  52.442  1.00  0.00     0.106 N 
HETATM   15  C4  UNL     1      22.080  -1.494  53.346  1.00  0.00     0.274 C 
HETATM   16  C5  UNL     1      22.860  -0.774  54.456  1.00  0.00     0.033 C 
HETATM   17  C6  UNL     1      23.232   0.585  53.884  1.00  0.00     0.050 C 
BRANCH  14  18
HETATM   18  C3  UNL     1      20.696   0.423  52.706  1.00  0.00     0.300 C 
BRANCH  18  19
HETATM   19  C2  UNL     1      19.328  -0.058  52.399  1.00  0.00     0.197 C 
BRANCH  19  20
HETATM   20  O1  UNL     1      18.663  -0.768  53.349  1.00  0.00    -0.394 OA
HETATM   21  C1  UNL     1      17.451  -1.317  52.946  1.00  0.00     0.201 C 
ENDBRANCH  19  20
ENDBRANCH  18  19
ENDBRANCH  14  18
ENDBRANCH  12  13
ENDBRANCH   1  11
BRANCH   9  22
HETATM   22  O2  UNL     1      25.179   2.829  50.469  1.00  0.00    -0.346 OA
BRANCH  22  23
HETATM   23  C18 UNL     1      26.532   2.490  50.828  1.00  0.00     0.214 C 
BRANCH  23  24
HETATM   24  C19 UNL     1      26.608   1.661  52.050  1.00  0.00    -0.034 A 
HETATM   25  C20 UNL     1      26.638   2.010  53.380  1.00  0.00     0.009 A 
HETATM   26  C21 UNL     1      26.719   1.045  54.360  1.00  0.00     0.001 A 
HETATM   27  C22 UNL     1      26.772  -0.321  54.052  1.00  0.00     0.007 A 
HETATM   28  C23 UNL     1      26.740  -0.669  52.706  1.00  0.00    -0.061 A 
HETATM   29  C24 UNL     1      26.798  -2.116  52.418  1.00  0.00     0.048 C 
HETATM   30  C25 UNL     1      26.660   0.299  51.728  1.00  0.00     0.016 A 
ENDBRANCH  23  24
ENDBRANCH  22  23
ENDBRANCH   9  22
BRANCH   5  31
HETATM   31  N2  UNL     1      22.155   7.838  49.559  1.00  0.00    -0.383 N 
HETATM   32  H17 UNL     1      22.508   8.434  50.367  1.00  0.00     0.157 HD
HETATM   33  H18 UNL     1      21.273   7.648  49.030  1.00  0.00     0.157 HD
ENDBRANCH   5  31
TORSDOF 9
ENDMDL
MODEL 5
REMARK VINA RESULT:      -7.4      2.471      8.222
REMARK  9 active torsions:
REMARK  status: ('A' for Active; 'I' for Inactive)
REMARK    1  A    between atoms: O1_2  and  C2_3 
REMARK    2  A    between atoms: C2_3  and  C3_4 
REMARK    3  A    between atoms: C3_4  and  N1_5 
REMARK    4  A    between atoms: C7_9  and  C8_10 
REMARK    5  A    between atoms: C9_11  and  C10_12 
REMARK    6  A    between atoms: C14_16  and  N2_17 
REMARK    7  A    between atoms: C17_21  and  O2_22 
REMARK    8  A    between atoms: O2_22  and  C18_23 
REMARK    9  A    between atoms: C18_23  and  C19_24 
ROOT
HETATM    1  C10 UNL     1      23.374   1.512  51.352  1.00  0.00     0.068 C 
HETATM    2  C11 UNL     1      23.053   2.474  50.465  1.00  0.00     0.006 C 
HETATM    3  C12 UNL     1      21.874   1.831  49.690  1.00  0.00     0.093 C 
HETATM    4  C13 UNL     1      20.955   2.209  50.886  1.00  0.00     0.034 C 
HETATM    5  C14 UNL     1      20.135   3.272  51.062  1.00  0.00     0.134 C 
HETATM    6  N3  UNL     1      20.393   4.534  50.360  1.00  0.00    -0.243 NA
HETATM    7  C15 UNL     1      21.477   5.321  50.422  1.00  0.00     0.122 C 
HETATM    8  C16 UNL     1      22.957   5.010  50.273  1.00  0.00     0.056 C 
HETATM    9  C17 UNL     1      23.637   3.820  50.449  1.00  0.00     0.079 C 
HETATM   10  S1  UNL     1      21.708   0.745  51.755  1.00  0.00    -0.081 SA
ENDROOT
BRANCH   1  11
HETATM   11  C9  UNL     1      24.733   1.394  51.730  1.00  0.00    -0.057 C 
HETATM   12  C8  UNL     1      25.873   1.314  52.055  1.00  0.00    -0.064 C 
BRANCH  12  13
HETATM   13  C7  UNL     1      27.239   1.235  52.465  1.00  0.00     0.301 C 
HETATM   14  N1  UNL     1      27.377   0.365  53.605  1.00  0.00     0.106 N 
HETATM   15  C4  UNL     1      28.757   0.502  53.939  1.00  0.00     0.274 C 
HETATM   16  C5  UNL     1      28.984   2.014  53.783  1.00  0.00     0.033 C 
HETATM   17  C6  UNL     1      27.773   2.537  53.026  1.00  0.00     0.050 C 
BRANCH  14  18
HETATM   18  C3  UNL     1      26.396   0.652  54.574  1.00  0.00     0.300 C 
BRANCH  18  19
HETATM   19  C2  UNL     1      25.990  -0.422  55.511  1.00  0.00     0.197 C 
BRANCH  19  20
HETATM   20  O1  UNL     1      25.126  -1.375  55.069  1.00  0.00    -0.394 OA
HETATM   21  C1  UNL     1      24.006  -0.900  54.396  1.00  0.00     0.201 C 
ENDBRANCH  19  20
ENDBRANCH  18  19
ENDBRANCH  14  18
ENDBRANCH  12  13
ENDBRANCH   1  11
BRANCH   9  22
HETATM   22  O2  UNL     1      24.968   3.650  50.645  1.00  0.00    -0.346 OA
BRANCH  22  23
HETATM   23  C18 UNL     1      25.783   3.540  49.462  1.00  0.00     0.214 C 
BRANCH  23  24
HETATM   24  C19 UNL     1      26.447   4.811  49.105  1.00  0.00    -0.034 A 
HETATM   25  C20 UNL     1      25.979   6.105  49.098  1.00  0.00     0.009 A 
HETATM   26  C21 UNL     1      26.795   7.147  48.713  1.00  0.00     0.001 A 
HETATM   27  C22 UNL     1      28.123   6.940  48.317  1.00  0.00     0.007 A 
HETATM   28  C23 UNL     1      28.591   5.631  48.327  1.00  0.00    -0.061 A 
HETATM   29  C24 UNL     1      29.996   5.450  47.905  1.00  0.00     0.048 C 
HETATM   30  C25 UNL     1      27.773   4.591  48.712  1.00  0.00     0.016 A 
ENDBRANCH  23  24
ENDBRANCH  22  23
ENDBRANCH   9  22
BRANCH   5  31
HETATM   31  N2  UNL     1      19.299   2.617  52.003  1.00  0.00    -0.383 N 
HETATM   32  H17 UNL     1      18.310   2.698  51.618  1.00  0.00     0.157 HD
HETATM   33  H18 UNL     1      19.808   2.220  52.825  1.00  0.00     0.157 HD
ENDBRANCH   5  31
TORSDOF 9
ENDMDL
MODEL 6
REMARK VINA RESULT:      -7.4      2.735      7.692
REMARK  9 active torsions:
REMARK  status: ('A' for Active; 'I' for Inactive)
REMARK    1  A    between atoms: O1_2  and  C2_3 
REMARK    2  A    between atoms: C2_3  and  C3_4 
REMARK    3  A    between atoms: C3_4  and  N1_5 
REMARK    4  A    between atoms: C7_9  and  C8_10 
REMARK    5  A    between atoms: C9_11  and  C10_12 
REMARK    6  A    between atoms: C14_16  and  N2_17 
REMARK    7  A    between atoms: C17_21  and  O2_22 
REMARK    8  A    between atoms: O2_22  and  C18_23 
REMARK    9  A    between atoms: C18_23  and  C19_24 
ROOT
HETATM    1  C10 UNL     1      22.048   1.932  50.049  1.00  0.00     0.068 C 
HETATM    2  C11 UNL     1      22.919   2.960  50.035  1.00  0.00     0.006 C 
HETATM    3  C12 UNL     1      23.092   3.226  48.517  1.00  0.00     0.093 C 
HETATM    4  C13 UNL     1      21.735   3.986  48.554  1.00  0.00     0.034 C 
HETATM    5  C14 UNL     1      21.473   5.310  48.661  1.00  0.00     0.134 C 
HETATM    6  N3  UNL     1      22.435   6.209  49.305  1.00  0.00    -0.243 NA
HETATM    7  C15 UNL     1      22.908   6.171  50.560  1.00  0.00     0.122 C 
HETATM    8  C16 UNL     1      23.518   5.040  51.372  1.00  0.00     0.056 C 
HETATM    9  C17 UNL     1      23.386   3.672  51.229  1.00  0.00     0.079 C 
HETATM   10  S1  UNL     1      20.945   2.301  48.575  1.00  0.00    -0.081 SA
ENDROOT
BRANCH   1  11
HETATM   11  C9  UNL     1      22.166   0.984  51.094  1.00  0.00    -0.057 C 
HETATM   12  C8  UNL     1      22.247   0.180  51.966  1.00  0.00    -0.064 C 
BRANCH  12  13
HETATM   13  C7  UNL     1      22.330  -0.801  53.000  1.00  0.00     0.301 C 
HETATM   14  N1  UNL     1      21.015  -1.267  53.363  1.00  0.00     0.106 N 
HETATM   15  C4  UNL     1      21.282  -2.131  54.466  1.00  0.00     0.274 C 
HETATM   16  C5  UNL     1      22.332  -1.337  55.258  1.00  0.00     0.033 C 
HETATM   17  C6  UNL     1      22.816  -0.241  54.321  1.00  0.00     0.050 C 
BRANCH  14  18
HETATM   18  C3  UNL     1      20.130  -0.184  53.528  1.00  0.00     0.300 C 
BRANCH  18  19
HETATM   19  C2  UNL     1      18.817  -0.231  52.842  1.00  0.00     0.197 C 
BRANCH  19  20
HETATM   20  O1  UNL     1      18.798  -0.261  51.482  1.00  0.00    -0.394 OA
HETATM   21  C1  UNL     1      17.553  -0.058  50.897  1.00  0.00     0.201 C 
ENDBRANCH  19  20
ENDBRANCH  18  19
ENDBRANCH  14  18
ENDBRANCH  12  13
ENDBRANCH   1  11
BRANCH   9  22
HETATM   22  O2  UNL     1      23.652   2.715  52.153  1.00  0.00    -0.346 OA
BRANCH  22  23
HETATM   23  C18 UNL     1      24.846   2.894  52.938  1.00  0.00     0.214 C 
BRANCH  23  24
HETATM   24  C19 UNL     1      25.773   1.746  52.837  1.00  0.00    -0.034 A 
HETATM   25  C20 UNL     1      25.697   0.583  52.106  1.00  0.00     0.009 A 
HETATM   26  C21 UNL     1      26.697  -0.362  52.179  1.00  0.00     0.001 A 
HETATM   27  C22 UNL     1      27.825  -0.185  52.992  1.00  0.00     0.007 A 
HETATM   28  C23 UNL     1      27.898   0.992  53.728  1.00  0.00    -0.061 A 
HETATM   29  C24 UNL     1      29.100   1.146  54.572  1.00  0.00     0.048 C 
HETATM   30  C25 UNL     1      26.895   1.936  53.653  1.00  0.00     0.016 A 
ENDBRANCH  23  24
ENDBRANCH  22  23
ENDBRANCH   9  22
BRANCH   5  31
HETATM   31  N2  UNL     1      20.194   5.222  48.053  1.00  0.00    -0.383 N 
HETATM   32  H17 UNL     1      20.370   5.219  47.004  1.00  0.00     0.157 HD
HETATM   33  H18 UNL     1      19.399   5.183  48.732  1.00  0.00     0.157 HD
ENDBRANCH   5  31
TORSDOF 9
ENDMDL
MODEL 7
REMARK VINA RESULT:      -7.3      2.732      8.166
REMARK  9 active torsions:
REMARK  status: ('A' for Active; 'I' for Inactive)
REMARK    1  A    between atoms: O1_2  and  C2_3 
REMARK    2  A    between atoms: C2_3  and  C3_4 
REMARK    3  A    between atoms: C3_4  and  N1_5 
REMARK    4  A    between atoms: C7_9  and  C8_10 
REMARK    5  A    between atoms: C9_11  and  C10_12 
REMARK    6  A    between atoms: C14_16  and  N2_17 
REMARK    7  A    between atoms: C17_21  and  O2_22 
REMARK    8  A    between atoms: O2_22  and  C18_23 
REMARK    9  A    between atoms: C18_23  and  C19_24 
ROOT
HETATM    1  C10 UNL     1      20.851   1.253  51.081  1.00  0.00     0.068 C 
HETATM    2  C11 UNL     1      20.596   2.245  50.206  1.00  0.00     0.006 C 
HETATM    3  C12 UNL     1      19.480   1.629  49.323  1.00  0.00     0.093 C 
HETATM    4  C13 UNL     1      18.473   1.968  50.459  1.00  0.00     0.034 C 
HETATM    5  C14 UNL     1      17.640   3.025  50.608  1.00  0.00     0.134 C 
HETATM    6  N3  UNL     1      17.948   4.309  49.970  1.00  0.00    -0.243 NA
HETATM    7  C15 UNL     1      19.023   5.093  50.140  1.00  0.00     0.122 C 
HETATM    8  C16 UNL     1      20.511   4.786  50.092  1.00  0.00     0.056 C 
HETATM    9  C17 UNL     1      21.177   3.590  50.278  1.00  0.00     0.079 C 
HETATM   10  S1  UNL     1      19.161   0.475  51.331  1.00  0.00    -0.081 SA
ENDROOT
BRANCH   1  11
HETATM   11  C9  UNL     1      22.179   1.121  51.556  1.00  0.00    -0.057 C 
HETATM   12  C8  UNL     1      23.285   1.001  51.972  1.00  0.00    -0.064 C 
BRANCH  12  13
HETATM   13  C7  UNL     1      24.607   0.837  52.486  1.00  0.00     0.301 C 
HETATM   14  N1  UNL     1      24.653  -0.252  53.428  1.00  0.00     0.106 N 
HETATM   15  C4  UNL     1      25.992  -0.189  53.915  1.00  0.00     0.274 C 
HETATM   16  C5  UNL     1      26.204   1.321  54.100  1.00  0.00     0.033 C 
HETATM   17  C6  UNL     1      25.061   1.993  53.355  1.00  0.00     0.050 C 
BRANCH  14  18
HETATM   18  C3  UNL     1      23.579  -0.173  54.337  1.00  0.00     0.300 C 
BRANCH  18  19
HETATM   19  C2  UNL     1      23.199  -1.390  55.093  1.00  0.00     0.197 C 
BRANCH  19  20
HETATM   20  O1  UNL     1      21.879  -1.622  55.324  1.00  0.00    -0.394 OA
HETATM   21  C1  UNL     1      21.052  -1.531  54.210  1.00  0.00     0.201 C 
ENDBRANCH  19  20
ENDBRANCH  18  19
ENDBRANCH  14  18
ENDBRANCH  12  13
ENDBRANCH   1  11
BRANCH   9  22
HETATM   22  O2  UNL     1      22.491   3.413  50.568  1.00  0.00    -0.346 OA
BRANCH  22  23
HETATM   23  C18 UNL     1      23.310   4.597  50.591  1.00  0.00     0.214 C 
BRANCH  23  24
HETATM   24  C19 UNL     1      24.662   4.367  50.040  1.00  0.00    -0.034 A 
HETATM   25  C20 UNL     1      25.422   3.223  49.953  1.00  0.00     0.009 A 
HETATM   26  C21 UNL     1      26.681   3.253  49.395  1.00  0.00     0.001 A 
HETATM   27  C22 UNL     1      27.240   4.437  48.894  1.00  0.00     0.007 A 
HETATM   28  C23 UNL     1      26.469   5.590  48.984  1.00  0.00    -0.061 A 
HETATM   29  C24 UNL     1      27.089   6.818  48.446  1.00  0.00     0.048 C 
HETATM   30  C25 UNL     1      25.209   5.556  49.543  1.00  0.00     0.016 A 
ENDBRANCH  23  24
ENDBRANCH  22  23
ENDBRANCH   9  22
BRANCH   5  31
HETATM   31  N2  UNL     1      16.737   2.339  51.460  1.00  0.00    -0.383 N 
HETATM   32  H17 UNL     1      15.806   2.847  51.366  1.00  0.00     0.157 HD
HETATM   33  H18 UNL     1      17.159   1.529  51.969  1.00  0.00     0.157 HD
ENDBRANCH   5  31
TORSDOF 9
ENDMDL
MODEL 8
REMARK VINA RESULT:      -7.1      3.796      7.926
REMARK  9 active torsions:
REMARK  status: ('A' for Active; 'I' for Inactive)
REMARK    1  A    between atoms: O1_2  and  C2_3 
REMARK    2  A    between atoms: C2_3  and  C3_4 
REMARK    3  A    between atoms: C3_4  and  N1_5 
REMARK    4  A    between atoms: C7_9  and  C8_10 
REMARK    5  A    between atoms: C9_11  and  C10_12 
REMARK    6  A    between atoms: C14_16  and  N2_17 
REMARK    7  A    between atoms: C17_21  and  O2_22 
REMARK    8  A    between atoms: O2_22  and  C18_23 
REMARK    9  A    between atoms: C18_23  and  C19_24 
ROOT
HETATM    1  C10 UNL     1      18.675   0.306  51.682  1.00  0.00     0.068 C 
HETATM    2  C11 UNL     1      17.871   1.251  51.155  1.00  0.00     0.006 C 
HETATM    3  C12 UNL     1      16.750   0.404  50.499  1.00  0.00     0.093 C 
HETATM    4  C13 UNL     1      16.126   0.237  51.914  1.00  0.00     0.034 C 
HETATM    5  C14 UNL     1      15.126   0.920  52.518  1.00  0.00     0.134 C 
HETATM    6  N3  UNL     1      14.824   2.300  52.124  1.00  0.00    -0.243 NA
HETATM    7  C15 UNL     1      15.622   3.377  52.162  1.00  0.00     0.122 C 
HETATM    8  C16 UNL     1      17.032   3.604  51.639  1.00  0.00     0.056 C 
HETATM    9  C17 UNL     1      18.034   2.694  51.363  1.00  0.00     0.079 C 
HETATM   10  S1  UNL     1      17.461  -1.026  52.207  1.00  0.00    -0.081 SA
ENDROOT
BRANCH   1  11
HETATM   11  C9  UNL     1      20.064   0.578  51.731  1.00  0.00    -0.057 C 
HETATM   12  C8  UNL     1      21.224   0.826  51.779  1.00  0.00    -0.064 C 
BRANCH  12  13
HETATM   13  C7  UNL     1      22.615   1.141  51.854  1.00  0.00     0.301 C 
HETATM   14  N1  UNL     1      23.295   0.229  52.738  1.00  0.00     0.106 N 
HETATM   15  C4  UNL     1      24.617   0.761  52.782  1.00  0.00     0.274 C 
HETATM   16  C5  UNL     1      24.360   2.272  52.886  1.00  0.00     0.033 C 
HETATM   17  C6  UNL     1      22.894   2.467  52.534  1.00  0.00     0.050 C 
BRANCH  14  18
HETATM   18  C3  UNL     1      22.573   0.063  53.936  1.00  0.00     0.300 C 
BRANCH  18  19
HETATM   19  C2  UNL     1      22.871  -1.115  54.785  1.00  0.00     0.197 C 
BRANCH  19  20
HETATM   20  O1  UNL     1      21.844  -1.936  55.136  1.00  0.00    -0.394 OA
HETATM   21  C1  UNL     1      20.703  -1.837  54.348  1.00  0.00     0.201 C 
ENDBRANCH  19  20
ENDBRANCH  18  19
ENDBRANCH  14  18
ENDBRANCH  12  13
ENDBRANCH   1  11
BRANCH   9  22
HETATM   22  O2  UNL     1      19.361   2.941  51.232  1.00  0.00    -0.346 OA
BRANCH  22  23
HETATM   23  C18 UNL     1      19.733   4.286  50.875  1.00  0.00     0.214 C 
BRANCH  23  24
HETATM   24  C19 UNL     1      21.052   4.356  50.210  1.00  0.00    -0.034 A 
HETATM   25  C20 UNL     1      22.091   5.246  50.352  1.00  0.00     0.009 A 
HETATM   26  C21 UNL     1      23.241   5.112  49.606  1.00  0.00     0.001 A 
HETATM   27  C22 UNL     1      23.405   4.074  48.678  1.00  0.00     0.007 A 
HETATM   28  C23 UNL     1      22.352   3.176  48.539  1.00  0.00    -0.061 A 
HETATM   29  C24 UNL     1      22.559   2.095  47.553  1.00  0.00     0.048 C 
HETATM   30  C25 UNL     1      21.202   3.314  49.287  1.00  0.00     0.016 A 
ENDBRANCH  23  24
ENDBRANCH  22  23
ENDBRANCH   9  22
BRANCH   5  31
HETATM   31  N2  UNL     1      14.793  -0.131  53.411  1.00  0.00    -0.383 N 
HETATM   32  H17 UNL     1      15.612  -0.211  54.085  1.00  0.00     0.157 HD
HETATM   33  H18 UNL     1      13.864  -0.575  53.223  1.00  0.00     0.157 HD
ENDBRANCH   5  31
TORSDOF 9
ENDMDL
MODEL 9
REMARK VINA RESULT:      -7.0      5.288     10.492
REMARK  9 active torsions:
REMARK  status: ('A' for Active; 'I' for Inactive)
REMARK    1  A    between atoms: O1_2  and  C2_3 
REMARK    2  A    between atoms: C2_3  and  C3_4 
REMARK    3  A    between atoms: C3_4  and  N1_5 
REMARK    4  A    between atoms: C7_9  and  C8_10 
REMARK    5  A    between atoms: C9_11  and  C10_12 
REMARK    6  A    between atoms: C14_16  and  N2_17 
REMARK    7  A    between atoms: C17_21  and  O2_22 
REMARK    8  A    between atoms: O2_22  and  C18_23 
REMARK    9  A    between atoms: C18_23  and  C19_24 
ROOT
HETATM    1  C10 UNL     1      27.174   5.089  48.926  1.00  0.00     0.068 C 
HETATM    2  C11 UNL     1      26.083   5.879  48.943  1.00  0.00     0.006 C 
HETATM    3  C12 UNL     1      24.938   4.868  48.674  1.00  0.00     0.093 C 
HETATM    4  C13 UNL     1      25.030   4.454  50.171  1.00  0.00     0.034 C 
HETATM    5  C14 UNL     1      24.299   4.852  51.238  1.00  0.00     0.134 C 
HETATM    6  N3  UNL     1      23.641   6.162  51.241  1.00  0.00    -0.243 NA
HETATM    7  C15 UNL     1      24.194   7.379  51.127  1.00  0.00     0.122 C 
HETATM    8  C16 UNL     1      25.178   7.947  50.117  1.00  0.00     0.056 C 
HETATM    9  C17 UNL     1      26.089   7.301  49.305  1.00  0.00     0.079 C 
HETATM   10  S1  UNL     1      26.540   3.487  49.672  1.00  0.00    -0.081 SA
ENDROOT
BRANCH   1  11
HETATM   11  C9  UNL     1      28.383   5.648  48.444  1.00  0.00    -0.057 C 
HETATM   12  C8  UNL     1      29.404   6.119  48.059  1.00  0.00    -0.064 C 
BRANCH  12  13
HETATM   13  C7  UNL     1      30.642   6.676  47.618  1.00  0.00     0.301 C 
HETATM   14  N1  UNL     1      31.382   5.714  46.840  1.00  0.00     0.106 N 
HETATM   15  C4  UNL     1      32.614   6.390  46.595  1.00  0.00     0.274 C 
HETATM   16  C5  UNL     1      32.910   7.037  47.956  1.00  0.00     0.033 C 
HETATM   17  C6  UNL     1      31.615   6.946  48.748  1.00  0.00     0.050 C 
BRANCH  14  18
HETATM   18  C3  UNL     1      31.394   4.458  47.479  1.00  0.00     0.300 C 
BRANCH  18  19
HETATM   19  C2  UNL     1      32.354   3.433  47.007  1.00  0.00     0.197 C 
BRANCH  19  20
HETATM   20  O1  UNL     1      33.256   2.933  47.894  1.00  0.00    -0.394 OA
HETATM   21  C1  UNL     1      34.567   3.358  47.717  1.00  0.00     0.201 C 
ENDBRANCH  19  20
ENDBRANCH  18  19
ENDBRANCH  14  18
ENDBRANCH  12  13
ENDBRANCH   1  11
BRANCH   9  22
HETATM   22  O2  UNL     1      27.168   7.838  48.683  1.00  0.00    -0.346 OA
BRANCH  22  23
HETATM   23  C18 UNL     1      27.314   9.268  48.767  1.00  0.00     0.214 C 
BRANCH  23  24
HETATM   24  C19 UNL     1      28.682   9.723  48.443  1.00  0.00    -0.034 A 
HETATM   25  C20 UNL     1      29.717  10.130  49.253  1.00  0.00     0.009 A 
HETATM   26  C21 UNL     1      30.922  10.524  48.713  1.00  0.00     0.001 A 
HETATM   27  C22 UNL     1      31.148  10.527  47.330  1.00  0.00     0.007 A 
HETATM   28  C23 UNL     1      30.100  10.114  46.515  1.00  0.00    -0.061 A 
HETATM   29  C24 UNL     1      30.373  10.129  45.064  1.00  0.00     0.048 C 
HETATM   30  C25 UNL     1      28.895   9.721  47.058  1.00  0.00     0.016 A 
ENDBRANCH  23  24
ENDBRANCH  22  23
ENDBRANCH   9  22
BRANCH   5  31
HETATM   31  N2  UNL     1      24.561   3.683  51.999  1.00  0.00    -0.383 N 
HETATM   32  H17 UNL     1      23.619   3.365  52.377  1.00  0.00     0.157 HD
HETATM   33  H18 UNL     1      25.569   3.404  52.022  1.00  0.00     0.157 HD
ENDBRANCH   5  31
TORSDOF 9
ENDMDL
