MODEL 1
REMARK VINA RESULT:      -9.2      0.000      0.000
REMARK  6 active torsions:
REMARK  status: ('A' for Active; 'I' for Inactive)
REMARK    1  A    between atoms: N1_2  and  C2_3 
REMARK    2  A    between atoms: C8_9  and  O1_10 
REMARK    3  A    between atoms: C8_9  and  N2_11 
REMARK    4  A    between atoms: N2_11  and  C9_12 
REMARK    5  A    between atoms: C13_16  and  C14_17 
REMARK    6  A    between atoms: C14_17  and  C15_19 
ROOT
HETATM    1  C9  UNL     1      23.914   1.767  51.557  1.00  0.00     0.035 A 
HETATM    2  C10 UNL     1      22.643   1.282  51.591  1.00  0.00     0.029 A 
HETATM    3  C11 UNL     1      22.274   0.236  52.409  1.00  0.00     0.003 A 
HETATM    4  C12 UNL     1      23.253  -0.324  53.215  1.00  0.00     0.015 A 
HETATM    5  C13 UNL     1      24.543   0.151  53.196  1.00  0.00     0.017 A 
HETATM    6  C21 UNL     1      24.902   1.199  52.373  1.00  0.00     0.045 A 
ENDROOT
BRANCH   1   7
HETATM    7  N2  UNL     1      24.462   2.825  50.752  1.00  0.00    -0.337 N 
HETATM    8  H11 UNL     1      24.810   2.195  49.967  1.00  0.00     0.168 HD
BRANCH   7   9
HETATM    9  C8  UNL     1      24.597   4.235  50.798  1.00  0.00     0.149 C 
HETATM   10  C7  UNL     1      25.474   4.952  50.148  1.00  0.00     0.022 A 
HETATM   11  C2  UNL     1      25.615   6.393  50.191  1.00  0.00     0.038 A 
HETATM   12  C6  UNL     1      26.416   4.173  49.268  1.00  0.00     0.072 A 
HETATM   13  C3  UNL     1      26.456   7.120  49.486  1.00  0.00     0.029 A 
HETATM   14  C4  UNL     1      27.394   6.448  48.565  1.00  0.00    -0.001 A 
HETATM   15  C5  UNL     1      27.278   5.151  48.559  1.00  0.00    -0.022 A 
BRANCH  11  16
HETATM   16  N1  UNL     1      24.690   6.989  51.099  1.00  0.00    -0.394 N 
HETATM   17  C1  UNL     1      23.940   8.104  50.540  1.00  0.00     0.146 C 
HETATM   18  H4  UNL     1      24.728   6.505  52.008  1.00  0.00     0.159 HD
ENDBRANCH  11  16
BRANCH   9  19
HETATM   19  O1  UNL     1      23.620   4.758  51.671  1.00  0.00    -0.346 OA
HETATM   20  H10 UNL     1      23.451   4.218  52.507  1.00  0.00     0.219 HD
ENDBRANCH   9  19
ENDBRANCH   7   9
ENDBRANCH   1   7
BRANCH   5  21
HETATM   21  C14 UNL     1      25.517  -0.498  54.027  1.00  0.00     0.192 C 
HETATM   22  O2  UNL     1      25.103  -1.115  55.068  1.00  0.00    -0.287 OA
BRANCH  21  23
HETATM   23  C15 UNL     1      26.949  -0.578  53.889  1.00  0.00     0.015 A 
HETATM   24  C16 UNL     1      27.687   0.364  54.595  1.00  0.00     0.015 A 
HETATM   25  C17 UNL     1      29.076   0.395  54.532  1.00  0.00     0.001 A 
HETATM   26  C18 UNL     1      29.791  -0.510  53.765  1.00  0.00     0.000 A 
HETATM   27  C19 UNL     1      29.025  -1.450  53.064  1.00  0.00     0.001 A 
HETATM   28  C20 UNL     1      27.640  -1.488  53.121  1.00  0.00     0.015 A 
ENDBRANCH  21  23
ENDBRANCH   5  21
TORSDOF 6
ENDMDL
MODEL 2
REMARK VINA RESULT:      -8.9      3.563      6.681
REMARK  6 active torsions:
REMARK  status: ('A' for Active; 'I' for Inactive)
REMARK    1  A    between atoms: N1_2  and  C2_3 
REMARK    2  A    between atoms: C8_9  and  O1_10 
REMARK    3  A    between atoms: C8_9  and  N2_11 
REMARK    4  A    between atoms: N2_11  and  C9_12 
REMARK    5  A    between atoms: C13_16  and  C14_17 
REMARK    6  A    between atoms: C14_17  and  C15_19 
ROOT
HETATM    1  C9  UNL     1      22.562   1.195  52.723  1.00  0.00     0.035 A 
HETATM    2  C10 UNL     1      23.025   1.863  51.632  1.00  0.00     0.029 A 
HETATM    3  C11 UNL     1      24.347   1.827  51.249  1.00  0.00     0.003 A 
HETATM    4  C12 UNL     1      25.218   1.074  52.022  1.00  0.00     0.015 A 
HETATM    5  C13 UNL     1      24.772   0.390  53.129  1.00  0.00     0.017 A 
HETATM    6  C21 UNL     1      23.444   0.434  53.503  1.00  0.00     0.045 A 
ENDROOT
BRANCH   1   7
HETATM    7  N2  UNL     1      21.231   1.148  53.265  1.00  0.00    -0.337 N 
HETATM    8  H11 UNL     1      21.243   2.134  53.667  1.00  0.00     0.168 HD
BRANCH   7   9
HETATM    9  C8  UNL     1      20.147   0.239  53.347  1.00  0.00     0.149 C 
HETATM   10  C7  UNL     1      19.187   0.097  52.474  1.00  0.00     0.022 A 
HETATM   11  C2  UNL     1      18.077  -0.831  52.553  1.00  0.00     0.038 A 
HETATM   12  C6  UNL     1      19.272   0.999  51.271  1.00  0.00     0.072 A 
HETATM   13  C3  UNL     1      17.146  -1.020  51.642  1.00  0.00     0.029 A 
HETATM   14  C4  UNL     1      17.169  -0.209  50.408  1.00  0.00    -0.001 A 
HETATM   15  C5  UNL     1      18.152   0.643  50.364  1.00  0.00    -0.022 A 
BRANCH  11  16
HETATM   16  N1  UNL     1      18.101  -1.585  53.764  1.00  0.00    -0.394 N 
HETATM   17  C1  UNL     1      17.631  -2.955  53.625  1.00  0.00     0.146 C 
HETATM   18  H4  UNL     1      18.457  -0.999  54.535  1.00  0.00     0.159 HD
ENDBRANCH  11  16
BRANCH   9  19
HETATM   19  O1  UNL     1      20.266  -0.505  54.540  1.00  0.00    -0.346 OA
HETATM   20  H10 UNL     1      20.469   0.034  55.369  1.00  0.00     0.219 HD
ENDBRANCH   9  19
ENDBRANCH   7   9
ENDBRANCH   1   7
BRANCH   5  21
HETATM   21  C14 UNL     1      25.731  -0.339  53.908  1.00  0.00     0.192 C 
HETATM   22  O2  UNL     1      25.295  -1.097  54.842  1.00  0.00    -0.287 OA
BRANCH  21  23
HETATM   23  C15 UNL     1      27.169  -0.367  53.821  1.00  0.00     0.015 A 
HETATM   24  C16 UNL     1      27.725  -1.474  53.194  1.00  0.00     0.015 A 
HETATM   25  C17 UNL     1      29.102  -1.619  53.061  1.00  0.00     0.001 A 
HETATM   26  C18 UNL     1      29.984  -0.668  53.545  1.00  0.00     0.000 A 
HETATM   27  C19 UNL     1      29.399   0.439  54.173  1.00  0.00     0.001 A 
HETATM   28  C20 UNL     1      28.028   0.592  54.310  1.00  0.00     0.015 A 
ENDBRANCH  21  23
ENDBRANCH   5  21
TORSDOF 6
ENDMDL
MODEL 3
REMARK VINA RESULT:      -8.8      1.191      2.412
REMARK  6 active torsions:
REMARK  status: ('A' for Active; 'I' for Inactive)
REMARK    1  A    between atoms: N1_2  and  C2_3 
REMARK    2  A    between atoms: C8_9  and  O1_10 
REMARK    3  A    between atoms: C8_9  and  N2_11 
REMARK    4  A    between atoms: N2_11  and  C9_12 
REMARK    5  A    between atoms: C13_16  and  C14_17 
REMARK    6  A    between atoms: C14_17  and  C15_19 
ROOT
HETATM    1  C9  UNL     1      23.878   1.682  51.586  1.00  0.00     0.035 A 
HETATM    2  C10 UNL     1      22.646   1.111  51.677  1.00  0.00     0.029 A 
HETATM    3  C11 UNL     1      22.370   0.085  52.555  1.00  0.00     0.003 A 
HETATM    4  C12 UNL     1      23.404  -0.362  53.363  1.00  0.00     0.015 A 
HETATM    5  C13 UNL     1      24.657   0.201  53.287  1.00  0.00     0.017 A 
HETATM    6  C21 UNL     1      24.922   1.227  52.404  1.00  0.00     0.045 A 
ENDROOT
BRANCH   1   7
HETATM    7  N2  UNL     1      24.331   2.733  50.716  1.00  0.00    -0.337 N 
HETATM    8  H11 UNL     1      24.377   2.134  49.837  1.00  0.00     0.168 HD
BRANCH   7   9
HETATM    9  C8  UNL     1      24.656   4.111  50.792  1.00  0.00     0.149 C 
HETATM   10  C7  UNL     1      23.816   5.109  50.744  1.00  0.00     0.022 A 
HETATM   11  C2  UNL     1      24.143   6.518  50.822  1.00  0.00     0.038 A 
HETATM   12  C6  UNL     1      22.367   4.725  50.598  1.00  0.00     0.072 A 
HETATM   13  C3  UNL     1      23.291   7.521  50.839  1.00  0.00     0.029 A 
HETATM   14  C4  UNL     1      21.845   7.241  50.741  1.00  0.00    -0.001 A 
HETATM   15  C5  UNL     1      21.566   5.973  50.639  1.00  0.00    -0.022 A 
BRANCH  11  16
HETATM   16  N1  UNL     1      25.551   6.732  50.911  1.00  0.00    -0.394 N 
HETATM   17  C1  UNL     1      26.059   7.752  50.005  1.00  0.00     0.146 C 
HETATM   18  H4  UNL     1      25.957   6.103  51.620  1.00  0.00     0.159 HD
ENDBRANCH  11  16
BRANCH   9  19
HETATM   19  O1  UNL     1      26.053   4.242  50.931  1.00  0.00    -0.346 OA
HETATM   20  H10 UNL     1      26.606   3.608  50.373  1.00  0.00     0.219 HD
ENDBRANCH   9  19
ENDBRANCH   7   9
ENDBRANCH   1   7
BRANCH   5  21
HETATM   21  C14 UNL     1      25.693  -0.335  54.124  1.00  0.00     0.192 C 
HETATM   22  O2  UNL     1      25.346  -0.932  55.201  1.00  0.00    -0.287 OA
BRANCH  21  23
HETATM   23  C15 UNL     1      27.123  -0.313  53.958  1.00  0.00     0.015 A 
HETATM   24  C16 UNL     1      27.679  -1.386  53.274  1.00  0.00     0.015 A 
HETATM   25  C17 UNL     1      29.050  -1.483  53.063  1.00  0.00     0.001 A 
HETATM   26  C18 UNL     1      29.928  -0.515  53.522  1.00  0.00     0.000 A 
HETATM   27  C19 UNL     1      29.343   0.558  54.207  1.00  0.00     0.001 A 
HETATM   28  C20 UNL     1      27.978   0.662  54.423  1.00  0.00     0.015 A 
ENDBRANCH  21  23
ENDBRANCH   5  21
TORSDOF 6
ENDMDL
MODEL 4
REMARK VINA RESULT:      -8.7      2.063      6.871
REMARK  6 active torsions:
REMARK  status: ('A' for Active; 'I' for Inactive)
REMARK    1  A    between atoms: N1_2  and  C2_3 
REMARK    2  A    between atoms: C8_9  and  O1_10 
REMARK    3  A    between atoms: C8_9  and  N2_11 
REMARK    4  A    between atoms: N2_11  and  C9_12 
REMARK    5  A    between atoms: C13_16  and  C14_17 
REMARK    6  A    between atoms: C14_17  and  C15_19 
ROOT
HETATM    1  C9  UNL     1      23.988   2.175  51.649  1.00  0.00     0.035 A 
HETATM    2  C10 UNL     1      23.031   1.515  50.942  1.00  0.00     0.029 A 
HETATM    3  C11 UNL     1      22.568   1.967  49.726  1.00  0.00     0.003 A 
HETATM    4  C12 UNL     1      23.115   3.139  49.227  1.00  0.00     0.015 A 
HETATM    5  C13 UNL     1      24.084   3.822  49.925  1.00  0.00     0.017 A 
HETATM    6  C21 UNL     1      24.540   3.360  51.143  1.00  0.00     0.045 A 
ENDROOT
BRANCH   1   7
HETATM    7  N2  UNL     1      24.558   1.853  52.930  1.00  0.00    -0.337 N 
HETATM    8  H11 UNL     1      23.632   1.823  53.456  1.00  0.00     0.168 HD
BRANCH   7   9
HETATM    9  C8  UNL     1      25.835   1.621  53.498  1.00  0.00     0.149 C 
HETATM   10  C7  UNL     1      26.547   0.533  53.385  1.00  0.00     0.022 A 
HETATM   11  C2  UNL     1      27.854   0.290  53.963  1.00  0.00     0.038 A 
HETATM   12  C6  UNL     1      25.924  -0.562  52.560  1.00  0.00     0.072 A 
HETATM   13  C3  UNL     1      28.599  -0.781  53.795  1.00  0.00     0.029 A 
HETATM   14  C4  UNL     1      28.089  -1.893  52.969  1.00  0.00    -0.001 A 
HETATM   15  C5  UNL     1      26.901  -1.676  52.482  1.00  0.00    -0.022 A 
BRANCH  11  16
HETATM   16  N1  UNL     1      28.296   1.393  54.754  1.00  0.00    -0.394 N 
HETATM   17  C1  UNL     1      29.541   1.993  54.299  1.00  0.00     0.146 C 
HETATM   18  H4  UNL     1      27.631   1.562  55.524  1.00  0.00     0.159 HD
ENDBRANCH  11  16
BRANCH   9  19
HETATM   19  O1  UNL     1      26.229   2.768  54.218  1.00  0.00    -0.346 OA
HETATM   20  H10 UNL     1      26.811   2.595  55.025  1.00  0.00     0.219 HD
ENDBRANCH   9  19
ENDBRANCH   7   9
ENDBRANCH   1   7
BRANCH   5  21
HETATM   21  C14 UNL     1      24.581   5.049  49.372  1.00  0.00     0.192 C 
HETATM   22  O2  UNL     1      23.755   6.013  49.209  1.00  0.00    -0.287 OA
BRANCH  21  23
HETATM   23  C15 UNL     1      25.910   5.403  48.943  1.00  0.00     0.015 A 
HETATM   24  C16 UNL     1      26.074   6.691  48.451  1.00  0.00     0.015 A 
HETATM   25  C17 UNL     1      27.307   7.144  47.995  1.00  0.00     0.001 A 
HETATM   26  C18 UNL     1      28.431   6.336  48.012  1.00  0.00     0.000 A 
HETATM   27  C19 UNL     1      28.240   5.042  48.513  1.00  0.00     0.001 A 
HETATM   28  C20 UNL     1      27.015   4.581  48.969  1.00  0.00     0.015 A 
ENDBRANCH  21  23
ENDBRANCH   5  21
TORSDOF 6
ENDMDL
MODEL 5
REMARK VINA RESULT:      -8.7      1.706      2.442
REMARK  6 active torsions:
REMARK  status: ('A' for Active; 'I' for Inactive)
REMARK    1  A    between atoms: N1_2  and  C2_3 
REMARK    2  A    between atoms: C8_9  and  O1_10 
REMARK    3  A    between atoms: C8_9  and  N2_11 
REMARK    4  A    between atoms: N2_11  and  C9_12 
REMARK    5  A    between atoms: C13_16  and  C14_17 
REMARK    6  A    between atoms: C14_17  and  C15_19 
ROOT
HETATM    1  C9  UNL     1      24.625   2.625  50.916  1.00  0.00     0.035 A 
HETATM    2  C10 UNL     1      23.354   2.841  51.350  1.00  0.00     0.029 A 
HETATM    3  C11 UNL     1      22.826   2.188  52.442  1.00  0.00     0.003 A 
HETATM    4  C12 UNL     1      23.642   1.283  53.104  1.00  0.00     0.015 A 
HETATM    5  C13 UNL     1      24.930   1.051  52.682  1.00  0.00     0.017 A 
HETATM    6  C21 UNL     1      25.449   1.710  51.587  1.00  0.00     0.045 A 
ENDROOT
BRANCH   1   7
HETATM    7  N2  UNL     1      25.313   3.202  49.791  1.00  0.00    -0.337 N 
HETATM    8  H11 UNL     1      25.026   2.451  49.093  1.00  0.00     0.168 HD
BRANCH   7   9
HETATM    9  C8  UNL     1      26.121   4.330  49.503  1.00  0.00     0.149 C 
HETATM   10  C7  UNL     1      25.729   5.440  48.940  1.00  0.00     0.022 A 
HETATM   11  C2  UNL     1      26.550   6.596  48.643  1.00  0.00     0.038 A 
HETATM   12  C6  UNL     1      24.267   5.498  48.579  1.00  0.00     0.072 A 
HETATM   13  C3  UNL     1      26.141   7.740  48.136  1.00  0.00     0.029 A 
HETATM   14  C4  UNL     1      24.717   7.905  47.786  1.00  0.00    -0.001 A 
HETATM   15  C5  UNL     1      23.995   6.849  48.027  1.00  0.00    -0.022 A 
BRANCH  11  16
HETATM   16  N1  UNL     1      27.916   6.380  48.997  1.00  0.00    -0.394 N 
HETATM   17  C1  UNL     1      28.862   6.674  47.931  1.00  0.00     0.146 C 
HETATM   18  H4  UNL     1      27.978   6.046  49.970  1.00  0.00     0.159 HD
ENDBRANCH  11  16
BRANCH   9  19
HETATM   19  O1  UNL     1      27.440   4.065  49.926  1.00  0.00    -0.346 OA
HETATM   20  H10 UNL     1      27.910   3.317  49.436  1.00  0.00     0.219 HD
ENDBRANCH   9  19
ENDBRANCH   7   9
ENDBRANCH   1   7
BRANCH   5  21
HETATM   21  C14 UNL     1      25.709   0.074  53.389  1.00  0.00     0.192 C 
HETATM   22  O2  UNL     1      25.087  -0.818  54.063  1.00  0.00    -0.287 OA
BRANCH  21  23
HETATM   23  C15 UNL     1      27.138  -0.084  53.479  1.00  0.00     0.015 A 
HETATM   24  C16 UNL     1      27.648  -1.309  53.068  1.00  0.00     0.015 A 
HETATM   25  C17 UNL     1      29.010  -1.584  53.121  1.00  0.00     0.001 A 
HETATM   26  C18 UNL     1      29.924  -0.653  53.583  1.00  0.00     0.000 A 
HETATM   27  C19 UNL     1      29.386   0.574  53.991  1.00  0.00     0.001 A 
HETATM   28  C20 UNL     1      28.030   0.858  53.942  1.00  0.00     0.015 A 
ENDBRANCH  21  23
ENDBRANCH   5  21
TORSDOF 6
ENDMDL
MODEL 6
REMARK VINA RESULT:      -8.6      4.246      7.651
REMARK  6 active torsions:
REMARK  status: ('A' for Active; 'I' for Inactive)
REMARK    1  A    between atoms: N1_2  and  C2_3 
REMARK    2  A    between atoms: C8_9  and  O1_10 
REMARK    3  A    between atoms: C8_9  and  N2_11 
REMARK    4  A    between atoms: N2_11  and  C9_12 
REMARK    5  A    between atoms: C13_16  and  C14_17 
REMARK    6  A    between atoms: C14_17  and  C15_19 
ROOT
HETATM    1  C9  UNL     1      23.469  -0.128  53.509  1.00  0.00     0.035 A 
HETATM    2  C10 UNL     1      23.130  -1.011  54.487  1.00  0.00     0.029 A 
HETATM    3  C11 UNL     1      21.825  -1.220  54.873  1.00  0.00     0.003 A 
HETATM    4  C12 UNL     1      20.840  -0.490  54.225  1.00  0.00     0.015 A 
HETATM    5  C13 UNL     1      21.161   0.407  53.233  1.00  0.00     0.017 A 
HETATM    6  C21 UNL     1      22.472   0.608  52.854  1.00  0.00     0.045 A 
ENDROOT
BRANCH   1   7
HETATM    7  N2  UNL     1      24.772   0.220  53.009  1.00  0.00    -0.337 N 
HETATM    8  H11 UNL     1      24.507   0.178  51.978  1.00  0.00     0.168 HD
BRANCH   7   9
HETATM    9  C8  UNL     1      26.056   0.538  53.517  1.00  0.00     0.149 C 
HETATM   10  C7  UNL     1      27.113  -0.228  53.489  1.00  0.00     0.022 A 
HETATM   11  C2  UNL     1      28.427   0.093  54.006  1.00  0.00     0.038 A 
HETATM   12  C6  UNL     1      26.915  -1.574  52.842  1.00  0.00     0.072 A 
HETATM   13  C3  UNL     1      29.508  -0.654  53.920  1.00  0.00     0.029 A 
HETATM   14  C4  UNL     1      29.422  -1.975  53.267  1.00  0.00    -0.001 A 
HETATM   15  C5  UNL     1      28.228  -2.265  52.834  1.00  0.00    -0.022 A 
BRANCH  11  16
HETATM   16  N1  UNL     1      28.453   1.376  54.630  1.00  0.00    -0.394 N 
HETATM   17  C1  UNL     1      29.441   2.289  54.076  1.00  0.00     0.146 C 
HETATM   18  H4  UNL     1      27.746   1.416  55.379  1.00  0.00     0.159 HD
ENDBRANCH  11  16
BRANCH   9  19
HETATM   19  O1  UNL     1      26.019   1.836  54.068  1.00  0.00    -0.346 OA
HETATM   20  H10 UNL     1      25.115   2.286  54.056  1.00  0.00     0.219 HD
ENDBRANCH   9  19
ENDBRANCH   7   9
ENDBRANCH   1   7
BRANCH   5  21
HETATM   21  C14 UNL     1      20.097   1.158  52.629  1.00  0.00     0.192 C 
HETATM   22  O2  UNL     1      20.048   2.417  52.854  1.00  0.00    -0.287 OA
BRANCH  21  23
HETATM   23  C15 UNL     1      19.022   0.723  51.775  1.00  0.00     0.015 A 
HETATM   24  C16 UNL     1      18.954   1.317  50.521  1.00  0.00     0.015 A 
HETATM   25  C17 UNL     1      17.953   0.987  49.614  1.00  0.00     0.001 A 
HETATM   26  C18 UNL     1      16.978   0.051  49.913  1.00  0.00     0.000 A 
HETATM   27  C19 UNL     1      17.069  -0.535  51.182  1.00  0.00     0.001 A 
HETATM   28  C20 UNL     1      18.062  -0.212  52.094  1.00  0.00     0.015 A 
ENDBRANCH  21  23
ENDBRANCH   5  21
TORSDOF 6
ENDMDL
MODEL 7
REMARK VINA RESULT:      -8.5      1.351      1.800
REMARK  6 active torsions:
REMARK  status: ('A' for Active; 'I' for Inactive)
REMARK    1  A    between atoms: N1_2  and  C2_3 
REMARK    2  A    between atoms: C8_9  and  O1_10 
REMARK    3  A    between atoms: C8_9  and  N2_11 
REMARK    4  A    between atoms: N2_11  and  C9_12 
REMARK    5  A    between atoms: C13_16  and  C14_17 
REMARK    6  A    between atoms: C14_17  and  C15_19 
ROOT
HETATM    1  C9  UNL     1      22.014   1.315  52.556  1.00  0.00     0.035 A 
HETATM    2  C10 UNL     1      20.833   0.815  53.012  1.00  0.00     0.029 A 
HETATM    3  C11 UNL     1      20.770  -0.162  53.980  1.00  0.00     0.003 A 
HETATM    4  C12 UNL     1      21.968  -0.636  54.492  1.00  0.00     0.015 A 
HETATM    5  C13 UNL     1      23.172  -0.145  54.045  1.00  0.00     0.017 A 
HETATM    6  C21 UNL     1      23.224   0.834  53.074  1.00  0.00     0.045 A 
ENDROOT
BRANCH   1   7
HETATM    7  N2  UNL     1      22.251   2.309  51.544  1.00  0.00    -0.337 N 
HETATM    8  H11 UNL     1      21.921   1.713  50.726  1.00  0.00     0.168 HD
BRANCH   7   9
HETATM    9  C8  UNL     1      22.734   3.638  51.451  1.00  0.00     0.149 C 
HETATM   10  C7  UNL     1      23.830   4.025  50.857  1.00  0.00     0.022 A 
HETATM   11  C2  UNL     1      24.328   5.382  50.759  1.00  0.00     0.038 A 
HETATM   12  C6  UNL     1      24.635   2.927  50.212  1.00  0.00     0.072 A 
HETATM   13  C3  UNL     1      25.399   5.780  50.105  1.00  0.00     0.029 A 
HETATM   14  C4  UNL     1      26.230   4.779  49.407  1.00  0.00    -0.001 A 
HETATM   15  C5  UNL     1      25.790   3.560  49.529  1.00  0.00    -0.022 A 
BRANCH  11  16
HETATM   16  N1  UNL     1      23.490   6.305  51.454  1.00  0.00    -0.394 N 
HETATM   17  C1  UNL     1      23.215   7.531  50.720  1.00  0.00     0.146 C 
HETATM   18  H4  UNL     1      23.230   5.920  52.374  1.00  0.00     0.159 HD
ENDBRANCH  11  16
BRANCH   9  19
HETATM   19  O1  UNL     1      21.832   4.498  52.112  1.00  0.00    -0.346 OA
HETATM   20  H10 UNL     1      22.008   4.638  53.096  1.00  0.00     0.219 HD
ENDBRANCH   9  19
ENDBRANCH   7   9
ENDBRANCH   1   7
BRANCH   5  21
HETATM   21  C14 UNL     1      24.377  -0.706  54.588  1.00  0.00     0.192 C 
HETATM   22  O2  UNL     1      24.282  -1.431  55.638  1.00  0.00    -0.287 OA
BRANCH  21  23
HETATM   23  C15 UNL     1      25.741  -0.587  54.139  1.00  0.00     0.015 A 
HETATM   24  C16 UNL     1      26.580   0.192  54.925  1.00  0.00     0.015 A 
HETATM   25  C17 UNL     1      27.914   0.391  54.587  1.00  0.00     0.001 A 
HETATM   26  C18 UNL     1      28.472  -0.177  53.454  1.00  0.00     0.000 A 
HETATM   27  C19 UNL     1      27.606  -0.959  52.679  1.00  0.00     0.001 A 
HETATM   28  C20 UNL     1      26.274  -1.163  53.008  1.00  0.00     0.015 A 
ENDBRANCH  21  23
ENDBRANCH   5  21
TORSDOF 6
ENDMDL
MODEL 8
REMARK VINA RESULT:      -8.4      3.037      7.411
REMARK  6 active torsions:
REMARK  status: ('A' for Active; 'I' for Inactive)
REMARK    1  A    between atoms: N1_2  and  C2_3 
REMARK    2  A    between atoms: C8_9  and  O1_10 
REMARK    3  A    between atoms: C8_9  and  N2_11 
REMARK    4  A    between atoms: N2_11  and  C9_12 
REMARK    5  A    between atoms: C13_16  and  C14_17 
REMARK    6  A    between atoms: C14_17  and  C15_19 
ROOT
HETATM    1  C9  UNL     1      23.955   0.176  53.376  1.00  0.00     0.035 A 
HETATM    2  C10 UNL     1      24.794  -0.894  53.423  1.00  0.00     0.029 A 
HETATM    3  C11 UNL     1      26.009  -0.907  52.774  1.00  0.00     0.003 A 
HETATM    4  C12 UNL     1      26.365   0.223  52.055  1.00  0.00     0.015 A 
HETATM    5  C13 UNL     1      25.531   1.315  51.995  1.00  0.00     0.017 A 
HETATM    6  C21 UNL     1      24.316   1.318  52.648  1.00  0.00     0.045 A 
ENDROOT
BRANCH   1   7
HETATM    7  N2  UNL     1      22.656   0.340  53.972  1.00  0.00    -0.337 N 
HETATM    8  H11 UNL     1      22.930   1.149  54.608  1.00  0.00     0.168 HD
BRANCH   7   9
HETATM    9  C8  UNL     1      21.366  -0.242  53.889  1.00  0.00     0.149 C 
HETATM   10  C7  UNL     1      20.472  -0.019  52.965  1.00  0.00     0.022 A 
HETATM   11  C2  UNL     1      19.154  -0.612  52.875  1.00  0.00     0.038 A 
HETATM   12  C6  UNL     1      20.885   0.956  51.892  1.00  0.00     0.072 A 
HETATM   13  C3  UNL     1      18.278  -0.436  51.909  1.00  0.00     0.029 A 
HETATM   14  C4  UNL     1      18.609   0.472  50.792  1.00  0.00    -0.001 A 
HETATM   15  C5  UNL     1      19.784   1.023  50.900  1.00  0.00    -0.022 A 
BRANCH  11  16
HETATM   16  N1  UNL     1      18.885  -1.475  53.980  1.00  0.00    -0.394 N 
HETATM   17  C1  UNL     1      17.871  -2.485  53.716  1.00  0.00     0.146 C 
HETATM   18  H4  UNL     1      19.476  -1.212  54.783  1.00  0.00     0.159 HD
ENDBRANCH  11  16
BRANCH   9  19
HETATM   19  O1  UNL     1      21.192  -1.120  54.980  1.00  0.00    -0.346 OA
HETATM   20  H10 UNL     1      22.044  -1.439  55.420  1.00  0.00     0.219 HD
ENDBRANCH   9  19
ENDBRANCH   7   9
ENDBRANCH   1   7
BRANCH   5  21
HETATM   21  C14 UNL     1      25.942   2.439  51.201  1.00  0.00     0.192 C 
HETATM   22  O2  UNL     1      27.162   2.816  51.280  1.00  0.00    -0.287 OA
BRANCH  21  23
HETATM   23  C15 UNL     1      25.184   3.258  50.290  1.00  0.00     0.015 A 
HETATM   24  C16 UNL     1      25.734   4.493  49.972  1.00  0.00     0.015 A 
HETATM   25  C17 UNL     1      25.089   5.376  49.113  1.00  0.00     0.001 A 
HETATM   26  C18 UNL     1      23.871   5.068  48.531  1.00  0.00     0.000 A 
HETATM   27  C19 UNL     1      23.337   3.817  48.867  1.00  0.00     0.001 A 
HETATM   28  C20 UNL     1      23.972   2.930  49.722  1.00  0.00     0.015 A 
ENDBRANCH  21  23
ENDBRANCH   5  21
TORSDOF 6
ENDMDL
MODEL 9
REMARK VINA RESULT:      -8.4      1.996      7.107
REMARK  6 active torsions:
REMARK  status: ('A' for Active; 'I' for Inactive)
REMARK    1  A    between atoms: N1_2  and  C2_3 
REMARK    2  A    between atoms: C8_9  and  O1_10 
REMARK    3  A    between atoms: C8_9  and  N2_11 
REMARK    4  A    between atoms: N2_11  and  C9_12 
REMARK    5  A    between atoms: C13_16  and  C14_17 
REMARK    6  A    between atoms: C14_17  and  C15_19 
ROOT
HETATM    1  C9  UNL     1      24.169   2.600  51.039  1.00  0.00     0.035 A 
HETATM    2  C10 UNL     1      23.127   2.127  50.301  1.00  0.00     0.029 A 
HETATM    3  C11 UNL     1      22.706   2.739  49.141  1.00  0.00     0.003 A 
HETATM    4  C12 UNL     1      23.386   3.877  48.734  1.00  0.00     0.015 A 
HETATM    5  C13 UNL     1      24.441   4.372  49.464  1.00  0.00     0.017 A 
HETATM    6  C21 UNL     1      24.854   3.750  50.625  1.00  0.00     0.045 A 
ENDROOT
BRANCH   1   7
HETATM    7  N2  UNL     1      24.713   2.097  52.272  1.00  0.00    -0.337 N 
HETATM    8  H11 UNL     1      24.384   2.911  52.875  1.00  0.00     0.168 HD
BRANCH   7   9
HETATM    9  C8  UNL     1      25.441   0.972  52.732  1.00  0.00     0.149 C 
HETATM   10  C7  UNL     1      26.676   0.969  53.156  1.00  0.00     0.022 A 
HETATM   11  C2  UNL     1      27.425  -0.178  53.628  1.00  0.00     0.038 A 
HETATM   12  C6  UNL     1      27.364   2.309  53.146  1.00  0.00     0.072 A 
HETATM   13  C3  UNL     1      28.647  -0.170  54.116  1.00  0.00     0.029 A 
HETATM   14  C4  UNL     1      29.388   1.105  54.184  1.00  0.00    -0.001 A 
HETATM   15  C5  UNL     1      28.716   2.123  53.727  1.00  0.00    -0.022 A 
BRANCH  11  16
HETATM   16  N1  UNL     1      26.664  -1.382  53.537  1.00  0.00    -0.394 N 
HETATM   17  C1  UNL     1      27.204  -2.360  52.605  1.00  0.00     0.146 C 
HETATM   18  H4  UNL     1      25.849  -1.331  54.166  1.00  0.00     0.159 HD
ENDBRANCH  11  16
BRANCH   9  19
HETATM   19  O1  UNL     1      24.612  -0.167  52.663  1.00  0.00    -0.346 OA
HETATM   20  H10 UNL     1      24.098  -0.381  53.505  1.00  0.00     0.219 HD
ENDBRANCH   9  19
ENDBRANCH   7   9
ENDBRANCH   1   7
BRANCH   5  21
HETATM   21  C14 UNL     1      25.077   5.575  49.008  1.00  0.00     0.192 C 
HETATM   22  O2  UNL     1      24.362   6.630  48.905  1.00  0.00    -0.287 OA
BRANCH  21  23
HETATM   23  C15 UNL     1      26.445   5.813  48.624  1.00  0.00     0.015 A 
HETATM   24  C16 UNL     1      26.732   7.078  48.128  1.00  0.00     0.015 A 
HETATM   25  C17 UNL     1      28.014   7.423  47.714  1.00  0.00     0.001 A 
HETATM   26  C18 UNL     1      29.066   6.525  47.776  1.00  0.00     0.000 A 
HETATM   27  C19 UNL     1      28.751   5.256  48.280  1.00  0.00     0.001 A 
HETATM   28  C20 UNL     1      27.477   4.903  48.695  1.00  0.00     0.015 A 
ENDBRANCH  21  23
ENDBRANCH   5  21
TORSDOF 6
ENDMDL
