MODEL 1
REMARK VINA RESULT:      -8.8      0.000      0.000
REMARK  2 active torsions:
REMARK  status: ('A' for Active; 'I' for Inactive)
REMARK    1  A    between atoms: C8_8  and  C9_9 
REMARK    2  A    between atoms: S1_21  and  O1_22 
ROOT
HETATM    1  C1  UNL     1      18.370   0.267  50.599  1.00  0.00     0.018 C 
HETATM    2  C2  UNL     1      19.539   0.219  51.572  1.00  0.00     0.006 C 
HETATM    3  C3  UNL     1      19.247  -0.401  52.767  1.00  0.00     0.070 C 
HETATM    4  C4  UNL     1      20.359  -0.487  53.747  1.00  0.00    -0.022 C 
HETATM    5  C5  UNL     1      21.632  -0.293  54.206  1.00  0.00    -0.003 C 
HETATM    6  C6  UNL     1      22.964   0.264  53.897  1.00  0.00     0.141 C 
HETATM    7  C7  UNL     1      24.023  -0.807  54.000  1.00  0.00     0.093 C 
HETATM    8  C8  UNL     1      25.119  -0.154  53.193  1.00  0.00     0.067 C 
HETATM    9  N1  UNL     1      24.536   0.671  52.388  1.00  0.00    -0.173 NA
HETATM   10  N2  UNL     1      23.147   0.692  52.521  1.00  0.00    -0.236 N 
HETATM   11  C15 UNL     1      22.452   1.093  51.381  1.00  0.00     0.207 A 
HETATM   12  N3  UNL     1      21.480   0.572  51.893  1.00  0.00    -0.217 NA
HETATM   13  C16 UNL     1      20.651   0.896  50.832  1.00  0.00     0.101 A 
HETATM   14  S1  UNL     1      21.734   1.652  49.920  1.00  0.00     0.031 S 
ENDROOT
BRANCH   8  15
HETATM   15  C9  UNL     1      26.549  -0.470  53.370  1.00  0.00    -0.010 A 
HETATM   16  C10 UNL     1      27.136  -1.533  52.719  1.00  0.00     0.016 A 
HETATM   17  C11 UNL     1      28.485  -1.715  52.977  1.00  0.00     0.043 A 
HETATM   18  C12 UNL     1      29.212  -0.892  53.833  1.00  0.00     0.116 A 
HETATM   19  F1  UNL     1      30.543  -1.096  54.068  1.00  0.00    -0.206 F 
HETATM   20  C13 UNL     1      28.570   0.157  54.458  1.00  0.00     0.043 A 
HETATM   21  C14 UNL     1      27.241   0.378  54.235  1.00  0.00     0.016 A 
ENDBRANCH   8  15
BRANCH  14  22
HETATM   22  O1  UNL     1      21.804   3.076  48.900  1.00  0.00    -0.328 OA
HETATM   23  H14 UNL     1      20.866   3.281  48.591  1.00  0.00     0.227 HD
ENDBRANCH  14  22
TORSDOF 2
ENDMDL
MODEL 2
REMARK VINA RESULT:      -8.7      4.920      6.083
REMARK  2 active torsions:
REMARK  status: ('A' for Active; 'I' for Inactive)
REMARK    1  A    between atoms: C8_8  and  C9_9 
REMARK    2  A    between atoms: S1_21  and  O1_22 
ROOT
HETATM    1  C1  UNL     1      22.928  -1.315  55.373  1.00  0.00     0.018 C 
HETATM    2  C2  UNL     1      22.965  -0.401  54.158  1.00  0.00     0.006 C 
HETATM    3  C3  UNL     1      21.746   0.163  53.846  1.00  0.00     0.070 C 
HETATM    4  C4  UNL     1      21.730   1.076  52.676  1.00  0.00    -0.022 C 
HETATM    5  C5  UNL     1      22.269   1.755  51.618  1.00  0.00    -0.003 C 
HETATM    6  C6  UNL     1      23.499   2.026  50.847  1.00  0.00     0.141 C 
HETATM    7  C7  UNL     1      23.796   3.506  50.826  1.00  0.00     0.093 C 
HETATM    8  C8  UNL     1      25.259   3.461  50.454  1.00  0.00     0.067 C 
HETATM    9  N1  UNL     1      25.698   2.309  50.837  1.00  0.00    -0.173 NA
HETATM   10  N2  UNL     1      24.721   1.513  51.440  1.00  0.00    -0.236 N 
HETATM   11  C15 UNL     1      25.207   0.561  52.334  1.00  0.00     0.207 A 
HETATM   12  N3  UNL     1      24.073   0.513  52.768  1.00  0.00    -0.217 NA
HETATM   13  C16 UNL     1      24.396  -0.440  53.720  1.00  0.00     0.101 A 
HETATM   14  S1  UNL     1      25.955  -0.595  53.369  1.00  0.00     0.031 S 
ENDROOT
BRANCH   8  15
HETATM   15  C9  UNL     1      25.955   4.577  49.784  1.00  0.00    -0.010 A 
HETATM   16  C10 UNL     1      25.468   5.864  49.839  1.00  0.00     0.016 A 
HETATM   17  C11 UNL     1      26.221   6.812  49.165  1.00  0.00     0.043 A 
HETATM   18  C12 UNL     1      27.389   6.503  48.475  1.00  0.00     0.116 A 
HETATM   19  F1  UNL     1      28.113   7.461  47.820  1.00  0.00    -0.206 F 
HETATM   20  C13 UNL     1      27.829   5.195  48.455  1.00  0.00     0.043 A 
HETATM   21  C14 UNL     1      27.121   4.224  49.105  1.00  0.00     0.016 A 
ENDBRANCH   8  15
BRANCH  14  22
HETATM   22  O1  UNL     1      27.133  -1.886  53.237  1.00  0.00    -0.328 OA
HETATM   23  H14 UNL     1      27.287  -2.259  54.161  1.00  0.00     0.227 HD
ENDBRANCH  14  22
TORSDOF 2
ENDMDL
MODEL 3
REMARK VINA RESULT:      -8.6      2.442      2.829
REMARK  2 active torsions:
REMARK  status: ('A' for Active; 'I' for Inactive)
REMARK    1  A    between atoms: C8_8  and  C9_9 
REMARK    2  A    between atoms: S1_21  and  O1_22 
ROOT
HETATM    1  C1  UNL     1      20.384   4.936  50.156  1.00  0.00     0.018 C 
HETATM    2  C2  UNL     1      21.121   3.899  50.989  1.00  0.00     0.006 C 
HETATM    3  C3  UNL     1      20.420   2.728  51.173  1.00  0.00     0.070 C 
HETATM    4  C4  UNL     1      21.102   1.676  51.968  1.00  0.00    -0.022 C 
HETATM    5  C5  UNL     1      22.121   1.132  52.699  1.00  0.00    -0.003 C 
HETATM    6  C6  UNL     1      23.472   1.352  53.252  1.00  0.00     0.141 C 
HETATM    7  C7  UNL     1      24.427   0.293  52.757  1.00  0.00     0.093 C 
HETATM    8  C8  UNL     1      25.738   0.993  53.025  1.00  0.00     0.067 C 
HETATM    9  N1  UNL     1      25.482   2.259  53.023  1.00  0.00    -0.173 NA
HETATM   10  N2  UNL     1      24.138   2.555  52.787  1.00  0.00    -0.236 N 
HETATM   11  C15 UNL     1      23.901   3.813  52.234  1.00  0.00     0.207 A 
HETATM   12  N3  UNL     1      22.812   3.374  51.916  1.00  0.00    -0.217 NA
HETATM   13  C16 UNL     1      22.423   4.562  51.320  1.00  0.00     0.101 A 
HETATM   14  S1  UNL     1      23.759   5.407  51.600  1.00  0.00     0.031 S 
ENDROOT
BRANCH   8  15
HETATM   15  C9  UNL     1      27.009   0.274  53.235  1.00  0.00    -0.010 A 
HETATM   16  C10 UNL     1      27.176  -1.027  52.814  1.00  0.00     0.016 A 
HETATM   17  C11 UNL     1      28.419  -1.581  53.076  1.00  0.00     0.043 A 
HETATM   18  C12 UNL     1      29.438  -0.886  53.720  1.00  0.00     0.116 A 
HETATM   19  F1  UNL     1      30.656  -1.458  53.965  1.00  0.00    -0.206 F 
HETATM   20  C13 UNL     1      29.213   0.415  54.120  1.00  0.00     0.043 A 
HETATM   21  C14 UNL     1      28.004   1.005  53.884  1.00  0.00     0.016 A 
ENDBRANCH   8  15
BRANCH  14  22
HETATM   22  O1  UNL     1      24.185   7.038  52.080  1.00  0.00    -0.328 OA
HETATM   23  H14 UNL     1      23.678   7.255  52.924  1.00  0.00     0.227 HD
ENDBRANCH  14  22
TORSDOF 2
ENDMDL
MODEL 4
REMARK VINA RESULT:      -8.4      4.233      5.092
REMARK  2 active torsions:
REMARK  status: ('A' for Active; 'I' for Inactive)
REMARK    1  A    between atoms: C8_8  and  C9_9 
REMARK    2  A    between atoms: S1_21  and  O1_22 
ROOT
HETATM    1  C1  UNL     1      19.118  -0.882  53.146  1.00  0.00     0.018 C 
HETATM    2  C2  UNL     1      20.449  -0.147  53.089  1.00  0.00     0.006 C 
HETATM    3  C3  UNL     1      21.514  -0.883  53.561  1.00  0.00     0.070 C 
HETATM    4  C4  UNL     1      22.840  -0.216  53.513  1.00  0.00    -0.022 C 
HETATM    5  C5  UNL     1      23.713   0.803  53.249  1.00  0.00    -0.003 C 
HETATM    6  C6  UNL     1      23.856   2.175  52.725  1.00  0.00     0.141 C 
HETATM    7  C7  UNL     1      24.835   2.205  51.576  1.00  0.00     0.093 C 
HETATM    8  C8  UNL     1      24.434   3.514  50.939  1.00  0.00     0.067 C 
HETATM    9  N1  UNL     1      23.204   3.721  51.276  1.00  0.00    -0.173 NA
HETATM   10  N2  UNL     1      22.671   2.715  52.084  1.00  0.00    -0.236 N 
HETATM   11  C15 UNL     1      21.285   2.579  52.017  1.00  0.00     0.207 A 
HETATM   12  N3  UNL     1      21.454   1.476  52.497  1.00  0.00    -0.217 NA
HETATM   13  C16 UNL     1      20.101   1.184  52.498  1.00  0.00     0.101 A 
HETATM   14  S1  UNL     1      19.570   2.563  51.870  1.00  0.00     0.031 S 
ENDROOT
BRANCH   8  15
HETATM   15  C9  UNL     1      25.349   4.321  50.111  1.00  0.00    -0.010 A 
HETATM   16  C10 UNL     1      25.073   5.637  49.810  1.00  0.00     0.016 A 
HETATM   17  C11 UNL     1      26.018   6.276  49.022  1.00  0.00     0.043 A 
HETATM   18  C12 UNL     1      27.170   5.647  48.558  1.00  0.00     0.116 A 
HETATM   19  F1  UNL     1      28.085   6.303  47.783  1.00  0.00    -0.206 F 
HETATM   20  C13 UNL     1      27.392   4.327  48.892  1.00  0.00     0.043 A 
HETATM   21  C14 UNL     1      26.491   3.654  49.666  1.00  0.00     0.016 A 
ENDBRANCH   8  15
BRANCH  14  22
HETATM   22  O1  UNL     1      18.234   3.671  52.116  1.00  0.00    -0.328 OA
HETATM   23  H14 UNL     1      17.478   3.154  52.538  1.00  0.00     0.227 HD
ENDBRANCH  14  22
TORSDOF 2
ENDMDL
MODEL 5
REMARK VINA RESULT:      -8.4      5.125      6.670
REMARK  2 active torsions:
REMARK  status: ('A' for Active; 'I' for Inactive)
REMARK    1  A    between atoms: C8_8  and  C9_9 
REMARK    2  A    between atoms: S1_21  and  O1_22 
ROOT
HETATM    1  C1  UNL     1      26.723   8.849  48.912  1.00  0.00     0.018 C 
HETATM    2  C2  UNL     1      26.598   7.343  49.089  1.00  0.00     0.006 C 
HETATM    3  C3  UNL     1      27.585   6.621  48.453  1.00  0.00     0.070 C 
HETATM    4  C4  UNL     1      27.517   5.146  48.607  1.00  0.00    -0.022 C 
HETATM    5  C5  UNL     1      26.998   3.964  49.055  1.00  0.00    -0.003 C 
HETATM    6  C6  UNL     1      25.925   3.329  49.846  1.00  0.00     0.141 C 
HETATM    7  C7  UNL     1      26.510   2.489  50.955  1.00  0.00     0.093 C 
HETATM    8  C8  UNL     1      25.302   2.387  51.855  1.00  0.00     0.067 C 
HETATM    9  N1  UNL     1      24.566   3.415  51.596  1.00  0.00    -0.173 NA
HETATM   10  N2  UNL     1      25.100   4.248  50.611  1.00  0.00    -0.236 N 
HETATM   11  C15 UNL     1      24.690   5.578  50.679  1.00  0.00     0.207 A 
HETATM   12  N3  UNL     1      25.653   5.823  49.978  1.00  0.00    -0.217 NA
HETATM   13  C16 UNL     1      25.382   7.181  49.948  1.00  0.00     0.101 A 
HETATM   14  S1  UNL     1      24.059   7.170  50.857  1.00  0.00     0.031 S 
ENDROOT
BRANCH   8  15
HETATM   15  C9  UNL     1      25.100   1.281  52.812  1.00  0.00    -0.010 A 
HETATM   16  C10 UNL     1      23.930   0.555  52.833  1.00  0.00     0.016 A 
HETATM   17  C11 UNL     1      23.875  -0.454  53.783  1.00  0.00     0.043 A 
HETATM   18  C12 UNL     1      24.919  -0.726  54.662  1.00  0.00     0.116 A 
HETATM   19  F1  UNL     1      24.837  -1.728  55.588  1.00  0.00    -0.206 F 
HETATM   20  C13 UNL     1      26.068   0.036  54.593  1.00  0.00     0.043 A 
HETATM   21  C14 UNL     1      26.170   1.041  53.674  1.00  0.00     0.016 A 
ENDBRANCH   8  15
BRANCH  14  22
HETATM   22  O1  UNL     1      22.490   7.952  50.873  1.00  0.00    -0.328 OA
HETATM   23  H14 UNL     1      22.459   8.566  51.672  1.00  0.00     0.227 HD
ENDBRANCH  14  22
TORSDOF 2
ENDMDL
MODEL 6
REMARK VINA RESULT:      -8.4      4.313      7.848
REMARK  2 active torsions:
REMARK  status: ('A' for Active; 'I' for Inactive)
REMARK    1  A    between atoms: C8_8  and  C9_9 
REMARK    2  A    between atoms: S1_21  and  O1_22 
ROOT
HETATM    1  C1  UNL     1      27.915   0.060  52.958  1.00  0.00     0.018 C 
HETATM    2  C2  UNL     1      26.499   0.547  52.688  1.00  0.00     0.006 C 
HETATM    3  C3  UNL     1      26.403   1.429  51.634  1.00  0.00     0.070 C 
HETATM    4  C4  UNL     1      25.039   1.924  51.319  1.00  0.00    -0.022 C 
HETATM    5  C5  UNL     1      23.685   2.029  51.477  1.00  0.00    -0.003 C 
HETATM    6  C6  UNL     1      22.516   1.590  52.264  1.00  0.00     0.141 C 
HETATM    7  C7  UNL     1      21.484   0.948  51.367  1.00  0.00     0.093 C 
HETATM    8  C8  UNL     1      20.695   0.182  52.402  1.00  0.00     0.067 C 
HETATM    9  N1  UNL     1      21.497  -0.023  53.393  1.00  0.00    -0.173 NA
HETATM   10  N2  UNL     1      22.774   0.507  53.196  1.00  0.00    -0.236 N 
HETATM   11  C15 UNL     1      23.790  -0.125  53.910  1.00  0.00     0.207 A 
HETATM   12  N3  UNL     1      24.554   0.400  53.123  1.00  0.00    -0.217 NA
HETATM   13  C16 UNL     1      25.673  -0.155  53.721  1.00  0.00     0.101 A 
HETATM   14  S1  UNL     1      24.929  -0.968  54.888  1.00  0.00     0.031 S 
ENDROOT
BRANCH   8  15
HETATM   15  C9  UNL     1      19.284  -0.206  52.216  1.00  0.00    -0.010 A 
HETATM   16  C10 UNL     1      18.577   0.171  51.095  1.00  0.00     0.016 A 
HETATM   17  C11 UNL     1      17.261  -0.261  51.050  1.00  0.00     0.043 A 
HETATM   18  C12 UNL     1      16.678  -1.024  52.058  1.00  0.00     0.116 A 
HETATM   19  F1  UNL     1      15.377  -1.437  51.986  1.00  0.00    -0.206 F 
HETATM   20  C13 UNL     1      17.436  -1.371  53.158  1.00  0.00     0.043 A 
HETATM   21  C14 UNL     1      18.738  -0.969  53.248  1.00  0.00     0.016 A 
ENDBRANCH   8  15
BRANCH  14  22
HETATM   22  O1  UNL     1      25.176  -1.315  56.589  1.00  0.00    -0.328 OA
HETATM   23  H14 UNL     1      24.613  -2.117  56.825  1.00  0.00     0.227 HD
ENDBRANCH  14  22
TORSDOF 2
ENDMDL
MODEL 7
REMARK VINA RESULT:      -8.2      3.642      4.697
REMARK  2 active torsions:
REMARK  status: ('A' for Active; 'I' for Inactive)
REMARK    1  A    between atoms: C8_8  and  C9_9 
REMARK    2  A    between atoms: S1_21  and  O1_22 
ROOT
HETATM    1  C1  UNL     1      21.129   7.250  50.231  1.00  0.00     0.018 C 
HETATM    2  C2  UNL     1      22.239   6.228  50.048  1.00  0.00     0.006 C 
HETATM    3  C3  UNL     1      23.191   6.595  49.121  1.00  0.00     0.070 C 
HETATM    4  C4  UNL     1      24.306   5.637  48.914  1.00  0.00    -0.022 C 
HETATM    5  C5  UNL     1      25.015   4.488  49.125  1.00  0.00    -0.003 C 
HETATM    6  C6  UNL     1      25.079   3.220  49.879  1.00  0.00     0.141 C 
HETATM    7  C7  UNL     1      26.372   3.127  50.652  1.00  0.00     0.093 C 
HETATM    8  C8  UNL     1      25.985   2.072  51.661  1.00  0.00     0.067 C 
HETATM    9  N1  UNL     1      24.700   2.126  51.770  1.00  0.00    -0.173 NA
HETATM   10  N2  UNL     1      24.112   3.095  50.955  1.00  0.00    -0.236 N 
HETATM   11  C15 UNL     1      22.884   3.578  51.406  1.00  0.00     0.207 A 
HETATM   12  N3  UNL     1      23.075   4.518  50.659  1.00  0.00    -0.217 NA
HETATM   13  C16 UNL     1      21.882   5.131  51.003  1.00  0.00     0.101 A 
HETATM   14  S1  UNL     1      21.360   4.040  52.059  1.00  0.00     0.031 S 
ENDROOT
BRANCH   8  15
HETATM   15  C9  UNL     1      26.968   1.201  52.334  1.00  0.00    -0.010 A 
HETATM   16  C10 UNL     1      26.833  -0.169  52.332  1.00  0.00     0.016 A 
HETATM   17  C11 UNL     1      27.826  -0.865  53.003  1.00  0.00     0.043 A 
HETATM   18  C12 UNL     1      28.894  -0.238  53.640  1.00  0.00     0.116 A 
HETATM   19  F1  UNL     1      29.861  -0.950  54.293  1.00  0.00    -0.206 F 
HETATM   20  C13 UNL     1      28.976   1.139  53.608  1.00  0.00     0.043 A 
HETATM   21  C14 UNL     1      28.021   1.869  52.959  1.00  0.00     0.016 A 
ENDBRANCH   8  15
BRANCH  14  22
HETATM   22  O1  UNL     1      19.844   3.273  52.489  1.00  0.00    -0.328 OA
HETATM   23  H14 UNL     1      19.242   3.302  51.680  1.00  0.00     0.227 HD
ENDBRANCH  14  22
TORSDOF 2
ENDMDL
MODEL 8
REMARK VINA RESULT:      -8.0      4.812      6.521
REMARK  2 active torsions:
REMARK  status: ('A' for Active; 'I' for Inactive)
REMARK    1  A    between atoms: C8_8  and  C9_9 
REMARK    2  A    between atoms: S1_21  and  O1_22 
ROOT
HETATM    1  C1  UNL     1      25.300   8.276  47.707  1.00  0.00     0.018 C 
HETATM    2  C2  UNL     1      25.536   6.866  48.225  1.00  0.00     0.006 C 
HETATM    3  C3  UNL     1      26.867   6.536  48.363  1.00  0.00     0.070 C 
HETATM    4  C4  UNL     1      27.152   5.173  48.880  1.00  0.00    -0.022 C 
HETATM    5  C5  UNL     1      26.837   3.928  49.346  1.00  0.00    -0.003 C 
HETATM    6  C6  UNL     1      25.742   2.997  49.684  1.00  0.00     0.141 C 
HETATM    7  C7  UNL     1      25.844   2.558  51.125  1.00  0.00     0.093 C 
HETATM    8  C8  UNL     1      24.430   2.071  51.338  1.00  0.00     0.067 C 
HETATM    9  N1  UNL     1      23.695   2.699  50.483  1.00  0.00    -0.173 NA
HETATM   10  N2  UNL     1      24.413   3.582  49.674  1.00  0.00    -0.236 N 
HETATM   11  C15 UNL     1      23.671   4.644  49.159  1.00  0.00     0.207 A 
HETATM   12  N3  UNL     1      24.742   5.184  48.957  1.00  0.00    -0.217 NA
HETATM   13  C16 UNL     1      24.156   6.317  48.417  1.00  0.00     0.101 A 
HETATM   14  S1  UNL     1      22.621   5.869  48.558  1.00  0.00     0.031 S 
ENDROOT
BRANCH   8  15
HETATM   15  C9  UNL     1      24.069   1.067  52.357  1.00  0.00    -0.010 A 
HETATM   16  C10 UNL     1      25.032   0.385  53.067  1.00  0.00     0.016 A 
HETATM   17  C11 UNL     1      24.552  -0.529  53.991  1.00  0.00     0.043 A 
HETATM   18  C12 UNL     1      23.194  -0.756  54.201  1.00  0.00     0.116 A 
HETATM   19  F1  UNL     1      22.750  -1.663  55.121  1.00  0.00    -0.206 F 
HETATM   20  C13 UNL     1      22.275  -0.042  53.459  1.00  0.00     0.043 A 
HETATM   21  C14 UNL     1      22.699   0.871  52.536  1.00  0.00     0.016 A 
ENDBRANCH   8  15
BRANCH  14  22
HETATM   22  O1  UNL     1      21.149   5.968  47.612  1.00  0.00    -0.328 OA
HETATM   23  H14 UNL     1      21.351   6.501  46.780  1.00  0.00     0.227 HD
ENDBRANCH  14  22
TORSDOF 2
ENDMDL
MODEL 9
REMARK VINA RESULT:      -7.8      4.579      7.987
REMARK  2 active torsions:
REMARK  status: ('A' for Active; 'I' for Inactive)
REMARK    1  A    between atoms: C8_8  and  C9_9 
REMARK    2  A    between atoms: S1_21  and  O1_22 
ROOT
HETATM    1  C1  UNL     1      26.304   1.597  52.484  1.00  0.00     0.018 C 
HETATM    2  C2  UNL     1      24.787   1.637  52.588  1.00  0.00     0.006 C 
HETATM    3  C3  UNL     1      24.206   2.680  51.898  1.00  0.00     0.070 C 
HETATM    4  C4  UNL     1      22.725   2.756  51.956  1.00  0.00    -0.022 C 
HETATM    5  C5  UNL     1      21.471   2.358  52.329  1.00  0.00    -0.003 C 
HETATM    6  C6  UNL     1      20.686   1.365  53.088  1.00  0.00     0.141 C 
HETATM    7  C7  UNL     1      19.691   0.675  52.187  1.00  0.00     0.093 C 
HETATM    8  C8  UNL     1      19.409  -0.553  53.020  1.00  0.00     0.067 C 
HETATM    9  N1  UNL     1      20.446  -0.732  53.768  1.00  0.00    -0.173 NA
HETATM   10  N2  UNL     1      21.444   0.226  53.575  1.00  0.00    -0.236 N 
HETATM   11  C15 UNL     1      22.734  -0.195  53.896  1.00  0.00     0.207 A 
HETATM   12  N3  UNL     1      23.116   0.741  53.221  1.00  0.00    -0.217 NA
HETATM   13  C16 UNL     1      24.453   0.455  53.444  1.00  0.00     0.101 A 
HETATM   14  S1  UNL     1      24.257  -0.835  54.379  1.00  0.00     0.031 S 
ENDROOT
BRANCH   8  15
HETATM   15  C9  UNL     1      18.157  -1.326  52.919  1.00  0.00    -0.010 A 
HETATM   16  C10 UNL     1      17.075  -0.852  52.211  1.00  0.00     0.016 A 
HETATM   17  C11 UNL     1      15.964  -1.680  52.200  1.00  0.00     0.043 A 
HETATM   18  C12 UNL     1      15.925  -2.908  52.854  1.00  0.00     0.116 A 
HETATM   19  F1  UNL     1      14.815  -3.704  52.825  1.00  0.00    -0.206 F 
HETATM   20  C13 UNL     1      17.040  -3.331  53.549  1.00  0.00     0.043 A 
HETATM   21  C14 UNL     1      18.160  -2.550  53.589  1.00  0.00     0.016 A 
ENDBRANCH   8  15
BRANCH  14  22
HETATM   22  O1  UNL     1      24.983  -1.512  55.824  1.00  0.00    -0.328 OA
HETATM   23  H14 UNL     1      24.425  -1.225  56.613  1.00  0.00     0.227 HD
ENDBRANCH  14  22
TORSDOF 2
ENDMDL
