MODEL 1
REMARK VINA RESULT:      -7.5      0.000      0.000
REMARK  6 active torsions:
REMARK  status: ('A' for Active; 'I' for Inactive)
REMARK    1  A    between atoms: N1_8  and  C8_9 
REMARK    2  A    between atoms: C9_10  and  N2_11 
REMARK    3  A    between atoms: N2_11  and  C10_12 
REMARK    4  A    between atoms: C10_12  and  C11_13 
REMARK    5  A    between atoms: C13_16  and  O1_17 
REMARK    6  A    between atoms: C16_20  and  O2_21 
ROOT
HETATM    1  C8  UNL     1      21.673   3.791  51.055  1.00  0.00     0.073 A 
HETATM    2  C9  UNL     1      22.894   4.134  51.640  1.00  0.00     0.074 A 
HETATM    3  C17 UNL     1      23.307   5.455  51.588  1.00  0.00     0.147 A 
HETATM    4  N3  UNL     1      22.789   6.575  51.076  1.00  0.00    -0.269 NA
HETATM    5  C18 UNL     1      21.593   6.625  50.423  1.00  0.00     0.134 A 
HETATM    6  P1  UNL     1      20.800   5.091  50.315  1.00  0.00     0.018 P 
ENDROOT
BRANCH   2   7
HETATM    7  N2  UNL     1      23.739   3.160  52.267  1.00  0.00    -0.382 N 
HETATM    8  H13 UNL     1      23.515   2.908  53.251  1.00  0.00     0.160 HD
BRANCH   7   9
HETATM    9  C10 UNL     1      24.825   2.589  51.538  1.00  0.00     0.169 C 
BRANCH   9  10
HETATM   10  C11 UNL     1      25.611   1.591  52.263  1.00  0.00     0.034 A 
HETATM   11  S1  UNL     1      25.114   0.204  53.006  1.00  0.00    -0.086 SA
HETATM   12  C12 UNL     1      26.317  -0.680  53.606  1.00  0.00     0.058 A 
HETATM   13  C13 UNL     1      27.518  -0.142  53.553  1.00  0.00     0.089 A 
HETATM   14  C15 UNL     1      27.913   1.102  52.883  1.00  0.00     0.075 A 
HETATM   15  C16 UNL     1      27.054   1.914  52.283  1.00  0.00     0.083 A 
BRANCH  13  16
HETATM   16  O1  UNL     1      28.461  -0.893  54.227  1.00  0.00    -0.354 OA
HETATM   17  C14 UNL     1      29.779  -1.014  53.746  1.00  0.00     0.210 C 
ENDBRANCH  13  16
BRANCH  15  18
HETATM   18  O2  UNL     1      27.622   3.052  51.697  1.00  0.00    -0.359 OA
HETATM   19  H20 UNL     1      28.544   3.109  51.330  1.00  0.00     0.217 HD
ENDBRANCH  15  18
ENDBRANCH   9  10
ENDBRANCH   7   9
ENDBRANCH   2   7
BRANCH   1  20
HETATM   20  N1  UNL     1      21.242   2.443  51.106  1.00  0.00    -0.370 N 
HETATM   21  C2  UNL     1      21.717   1.211  50.516  1.00  0.00     0.084 C 
HETATM   22  C1  UNL     1      21.363   1.106  49.053  1.00  0.00     0.032 C 
HETATM   23  C3  UNL     1      21.224  -0.009  51.251  1.00  0.00     0.058 C 
HETATM   24  C4  UNL     1      21.076   0.341  52.689  1.00  0.00    -0.084 C 
HETATM   25  C5  UNL     1      21.594  -0.627  53.728  1.00  0.00     0.043 C 
HETATM   26  C6  UNL     1      20.518   1.450  53.158  1.00  0.00    -0.005 C 
HETATM   27  C7  UNL     1      20.081   2.247  51.951  1.00  0.00     0.151 C 
ENDBRANCH   1  20
TORSDOF 6
ENDMDL
MODEL 2
REMARK VINA RESULT:      -7.5      2.429      4.721
REMARK  6 active torsions:
REMARK  status: ('A' for Active; 'I' for Inactive)
REMARK    1  A    between atoms: N1_8  and  C8_9 
REMARK    2  A    between atoms: C9_10  and  N2_11 
REMARK    3  A    between atoms: N2_11  and  C10_12 
REMARK    4  A    between atoms: C10_12  and  C11_13 
REMARK    5  A    between atoms: C13_16  and  O1_17 
REMARK    6  A    between atoms: C16_20  and  O2_21 
ROOT
HETATM    1  C8  UNL     1      23.661   4.844  50.487  1.00  0.00     0.073 A 
HETATM    2  C9  UNL     1      23.629   4.034  51.624  1.00  0.00     0.074 A 
HETATM    3  C17 UNL     1      22.404   3.586  52.086  1.00  0.00     0.147 A 
HETATM    4  N3  UNL     1      21.140   3.747  51.686  1.00  0.00    -0.269 NA
HETATM    5  C18 UNL     1      20.781   4.484  50.596  1.00  0.00     0.134 A 
HETATM    6  P1  UNL     1      22.124   5.200  49.773  1.00  0.00     0.018 P 
ENDROOT
BRANCH   2   7
HETATM    7  N2  UNL     1      24.821   3.676  52.337  1.00  0.00    -0.382 N 
HETATM    8  H13 UNL     1      25.719   4.053  51.972  1.00  0.00     0.160 HD
BRANCH   7   9
HETATM    9  C10 UNL     1      24.733   2.839  53.491  1.00  0.00     0.169 C 
BRANCH   9  10
HETATM   10  C11 UNL     1      25.483   1.586  53.415  1.00  0.00     0.034 A 
HETATM   11  S1  UNL     1      24.952   0.067  53.051  1.00  0.00    -0.086 SA
HETATM   12  C12 UNL     1      26.125  -1.031  52.971  1.00  0.00     0.058 A 
HETATM   13  C13 UNL     1      27.327  -0.627  53.328  1.00  0.00     0.089 A 
HETATM   14  C15 UNL     1      27.753   0.739  53.651  1.00  0.00     0.075 A 
HETATM   15  C16 UNL     1      26.923   1.773  53.696  1.00  0.00     0.083 A 
BRANCH  13  16
HETATM   16  O1  UNL     1      28.236  -1.664  53.382  1.00  0.00    -0.354 OA
HETATM   17  C14 UNL     1      29.617  -1.420  53.511  1.00  0.00     0.210 C 
ENDBRANCH  13  16
BRANCH  15  18
HETATM   18  O2  UNL     1      27.519   2.999  54.020  1.00  0.00    -0.359 OA
HETATM   19  H20 UNL     1      27.210   3.616  54.735  1.00  0.00     0.217 HD
ENDBRANCH  15  18
ENDBRANCH   9  10
ENDBRANCH   7   9
ENDBRANCH   2   7
BRANCH   1  20
HETATM   20  N1  UNL     1      24.911   5.303  50.005  1.00  0.00    -0.370 N 
HETATM   21  C2  UNL     1      25.900   4.765  49.098  1.00  0.00     0.084 C 
HETATM   22  C1  UNL     1      26.723   3.673  49.736  1.00  0.00     0.032 C 
HETATM   23  C3  UNL     1      26.809   5.829  48.536  1.00  0.00     0.058 C 
HETATM   24  C4  UNL     1      26.033   7.093  48.428  1.00  0.00    -0.084 C 
HETATM   25  C5  UNL     1      26.153   7.911  47.162  1.00  0.00     0.043 C 
HETATM   26  C6  UNL     1      25.228   7.585  49.361  1.00  0.00    -0.005 C 
HETATM   27  C7  UNL     1      25.273   6.611  50.515  1.00  0.00     0.151 C 
ENDBRANCH   1  20
TORSDOF 6
ENDMDL
MODEL 3
REMARK VINA RESULT:      -7.4      2.047      4.124
REMARK  6 active torsions:
REMARK  status: ('A' for Active; 'I' for Inactive)
REMARK    1  A    between atoms: N1_8  and  C8_9 
REMARK    2  A    between atoms: C9_10  and  N2_11 
REMARK    3  A    between atoms: N2_11  and  C10_12 
REMARK    4  A    between atoms: C10_12  and  C11_13 
REMARK    5  A    between atoms: C13_16  and  O1_17 
REMARK    6  A    between atoms: C16_20  and  O2_21 
ROOT
HETATM    1  C8  UNL     1      21.569   4.395  50.782  1.00  0.00     0.073 A 
HETATM    2  C9  UNL     1      21.608   3.454  51.813  1.00  0.00     0.074 A 
HETATM    3  C17 UNL     1      20.413   2.970  52.316  1.00  0.00     0.147 A 
HETATM    4  N3  UNL     1      19.125   3.195  52.042  1.00  0.00    -0.269 NA
HETATM    5  C18 UNL     1      18.699   4.064  51.080  1.00  0.00     0.134 A 
HETATM    6  P1  UNL     1      19.989   4.856  50.243  1.00  0.00     0.018 P 
ENDROOT
BRANCH   2   7
HETATM    7  N2  UNL     1      22.843   2.997  52.380  1.00  0.00    -0.382 N 
HETATM    8  H13 UNL     1      23.550   3.723  52.618  1.00  0.00     0.160 HD
BRANCH   7   9
HETATM    9  C10 UNL     1      23.054   1.600  52.591  1.00  0.00     0.169 C 
BRANCH   9  10
HETATM   10  C11 UNL     1      24.362   1.238  53.134  1.00  0.00     0.034 A 
HETATM   11  S1  UNL     1      25.709   2.169  53.331  1.00  0.00    -0.086 SA
HETATM   12  C12 UNL     1      26.922   1.411  54.069  1.00  0.00     0.058 A 
HETATM   13  C13 UNL     1      26.750   0.127  54.305  1.00  0.00     0.089 A 
HETATM   14  C15 UNL     1      25.530  -0.664  54.107  1.00  0.00     0.075 A 
HETATM   15  C16 UNL     1      24.420  -0.174  53.571  1.00  0.00     0.083 A 
BRANCH  13  16
HETATM   16  O1  UNL     1      27.892  -0.476  54.793  1.00  0.00    -0.354 OA
HETATM   17  C14 UNL     1      29.060  -0.568  54.012  1.00  0.00     0.210 C 
ENDBRANCH  13  16
BRANCH  15  18
HETATM   18  O2  UNL     1      23.359  -1.084  53.467  1.00  0.00    -0.359 OA
HETATM   19  H20 UNL     1      22.577  -1.126  54.079  1.00  0.00     0.217 HD
ENDBRANCH  15  18
ENDBRANCH   9  10
ENDBRANCH   7   9
ENDBRANCH   2   7
BRANCH   1  20
HETATM   20  N1  UNL     1      22.787   4.893  50.260  1.00  0.00    -0.370 N 
HETATM   21  C2  UNL     1      23.803   5.795  50.758  1.00  0.00     0.084 C 
HETATM   22  C1  UNL     1      23.364   7.237  50.693  1.00  0.00     0.032 C 
HETATM   23  C3  UNL     1      25.122   5.628  50.049  1.00  0.00     0.058 C 
HETATM   24  C4  UNL     1      25.256   4.203  49.645  1.00  0.00    -0.084 C 
HETATM   25  C5  UNL     1      26.576   3.504  49.882  1.00  0.00     0.043 C 
HETATM   26  C6  UNL     1      24.306   3.469  49.081  1.00  0.00    -0.005 C 
HETATM   27  C7  UNL     1      23.101   4.371  48.945  1.00  0.00     0.151 C 
ENDBRANCH   1  20
TORSDOF 6
ENDMDL
MODEL 4
REMARK VINA RESULT:      -7.3      3.188      6.188
REMARK  6 active torsions:
REMARK  status: ('A' for Active; 'I' for Inactive)
REMARK    1  A    between atoms: N1_8  and  C8_9 
REMARK    2  A    between atoms: C9_10  and  N2_11 
REMARK    3  A    between atoms: N2_11  and  C10_12 
REMARK    4  A    between atoms: C10_12  and  C11_13 
REMARK    5  A    between atoms: C13_16  and  O1_17 
REMARK    6  A    between atoms: C16_20  and  O2_21 
ROOT
HETATM    1  C8  UNL     1      24.091  -0.107  53.469  1.00  0.00     0.073 A 
HETATM    2  C9  UNL     1      23.536   0.880  52.653  1.00  0.00     0.074 A 
HETATM    3  C17 UNL     1      22.157   0.986  52.580  1.00  0.00     0.147 A 
HETATM    4  N3  UNL     1      21.140   0.325  53.140  1.00  0.00    -0.269 NA
HETATM    5  C18 UNL     1      21.302  -0.716  54.007  1.00  0.00     0.134 A 
HETATM    6  P1  UNL     1      22.958  -1.108  54.315  1.00  0.00     0.018 P 
ENDROOT
BRANCH   2   7
HETATM    7  N2  UNL     1      24.348   1.768  51.872  1.00  0.00    -0.382 N 
HETATM    8  H13 UNL     1      25.220   2.122  52.317  1.00  0.00     0.160 HD
BRANCH   7   9
HETATM    9  C10 UNL     1      23.943   2.122  50.550  1.00  0.00     0.169 C 
BRANCH   9  10
HETATM   10  C11 UNL     1      24.592   3.308  49.991  1.00  0.00     0.034 A 
HETATM   11  S1  UNL     1      23.915   4.682  49.379  1.00  0.00    -0.086 SA
HETATM   12  C12 UNL     1      24.989   5.804  48.958  1.00  0.00     0.058 A 
HETATM   13  C13 UNL     1      26.256   5.452  49.024  1.00  0.00     0.089 A 
HETATM   14  C15 UNL     1      26.813   4.212  49.574  1.00  0.00     0.075 A 
HETATM   15  C16 UNL     1      26.067   3.212  50.025  1.00  0.00     0.083 A 
BRANCH  13  16
HETATM   16  O1  UNL     1      27.097   6.413  48.498  1.00  0.00    -0.354 OA
HETATM   17  C14 UNL     1      28.428   6.109  48.152  1.00  0.00     0.210 C 
ENDBRANCH  13  16
BRANCH  15  18
HETATM   18  O2  UNL     1      26.783   2.111  50.513  1.00  0.00    -0.359 OA
HETATM   19  H20 UNL     1      27.680   2.153  50.940  1.00  0.00     0.217 HD
ENDBRANCH  15  18
ENDBRANCH   9  10
ENDBRANCH   7   9
ENDBRANCH   2   7
BRANCH   1  20
HETATM   20  N1  UNL     1      25.499  -0.219  53.552  1.00  0.00    -0.370 N 
HETATM   21  C2  UNL     1      26.539  -0.566  52.608  1.00  0.00     0.084 C 
HETATM   22  C1  UNL     1      26.592  -2.051  52.340  1.00  0.00     0.032 C 
HETATM   23  C3  UNL     1      27.898  -0.075  53.037  1.00  0.00     0.058 C 
HETATM   24  C4  UNL     1      27.716   1.187  53.802  1.00  0.00    -0.084 C 
HETATM   25  C5  UNL     1      28.632   2.352  53.506  1.00  0.00     0.043 C 
HETATM   26  C6  UNL     1      26.805   1.392  54.745  1.00  0.00    -0.005 C 
HETATM   27  C7  UNL     1      26.022   0.104  54.864  1.00  0.00     0.151 C 
ENDBRANCH   1  20
TORSDOF 6
ENDMDL
MODEL 5
REMARK VINA RESULT:      -7.2      1.836      2.259
REMARK  6 active torsions:
REMARK  status: ('A' for Active; 'I' for Inactive)
REMARK    1  A    between atoms: N1_8  and  C8_9 
REMARK    2  A    between atoms: C9_10  and  N2_11 
REMARK    3  A    between atoms: N2_11  and  C10_12 
REMARK    4  A    between atoms: C10_12  and  C11_13 
REMARK    5  A    between atoms: C13_16  and  O1_17 
REMARK    6  A    between atoms: C16_20  and  O2_21 
ROOT
HETATM    1  C8  UNL     1      23.504   4.624  49.167  1.00  0.00     0.073 A 
HETATM    2  C9  UNL     1      24.658   4.301  49.884  1.00  0.00     0.074 A 
HETATM    3  C17 UNL     1      25.634   5.271  50.044  1.00  0.00     0.147 A 
HETATM    4  N3  UNL     1      25.760   6.541  49.652  1.00  0.00    -0.269 NA
HETATM    5  C18 UNL     1      24.816   7.204  48.923  1.00  0.00     0.134 A 
HETATM    6  P1  UNL     1      23.430   6.240  48.547  1.00  0.00     0.018 P 
ENDROOT
BRANCH   2   7
HETATM    7  N2  UNL     1      24.872   2.995  50.435  1.00  0.00    -0.382 N 
HETATM    8  H13 UNL     1      25.138   2.241  49.769  1.00  0.00     0.160 HD
BRANCH   7   9
HETATM    9  C10 UNL     1      24.717   2.782  51.838  1.00  0.00     0.169 C 
BRANCH   9  10
HETATM   10  C11 UNL     1      25.444   1.636  52.383  1.00  0.00     0.034 A 
HETATM   11  S1  UNL     1      24.860   0.235  53.029  1.00  0.00    -0.086 SA
HETATM   12  C12 UNL     1      26.003  -0.827  53.422  1.00  0.00     0.058 A 
HETATM   13  C13 UNL     1      27.248  -0.412  53.308  1.00  0.00     0.089 A 
HETATM   14  C15 UNL     1      27.722   0.850  52.730  1.00  0.00     0.075 A 
HETATM   15  C16 UNL     1      26.911   1.806  52.297  1.00  0.00     0.083 A 
BRANCH  13  16
HETATM   16  O1  UNL     1      28.154  -1.324  53.813  1.00  0.00    -0.354 OA
HETATM   17  C14 UNL     1      29.523  -1.247  53.493  1.00  0.00     0.210 C 
ENDBRANCH  13  16
BRANCH  15  18
HETATM   18  O2  UNL     1      27.552   2.937  51.776  1.00  0.00    -0.359 OA
HETATM   19  H20 UNL     1      28.496   2.970  51.466  1.00  0.00     0.217 HD
ENDBRANCH  15  18
ENDBRANCH   9  10
ENDBRANCH   7   9
ENDBRANCH   2   7
BRANCH   1  20
HETATM   20  N1  UNL     1      22.501   3.639  49.002  1.00  0.00    -0.370 N 
HETATM   21  C2  UNL     1      22.373   2.461  48.173  1.00  0.00     0.084 C 
HETATM   22  C1  UNL     1      22.053   2.806  46.739  1.00  0.00     0.032 C 
HETATM   23  C3  UNL     1      21.352   1.488  48.705  1.00  0.00     0.058 C 
HETATM   24  C4  UNL     1      21.341   1.591  50.188  1.00  0.00    -0.084 C 
HETATM   25  C5  UNL     1      21.324   0.318  51.003  1.00  0.00     0.043 C 
HETATM   26  C6  UNL     1      21.341   2.722  50.882  1.00  0.00    -0.005 C 
HETATM   27  C7  UNL     1      21.355   3.841  49.866  1.00  0.00     0.151 C 
ENDBRANCH   1  20
TORSDOF 6
ENDMDL
MODEL 6
REMARK VINA RESULT:      -7.1      1.851      3.985
REMARK  6 active torsions:
REMARK  status: ('A' for Active; 'I' for Inactive)
REMARK    1  A    between atoms: N1_8  and  C8_9 
REMARK    2  A    between atoms: C9_10  and  N2_11 
REMARK    3  A    between atoms: N2_11  and  C10_12 
REMARK    4  A    between atoms: C10_12  and  C11_13 
REMARK    5  A    between atoms: C13_16  and  O1_17 
REMARK    6  A    between atoms: C16_20  and  O2_21 
ROOT
HETATM    1  C8  UNL     1      21.256   2.596  50.772  1.00  0.00     0.073 A 
HETATM    2  C9  UNL     1      21.764   1.483  51.444  1.00  0.00     0.074 A 
HETATM    3  C17 UNL     1      20.892   0.469  51.804  1.00  0.00     0.147 A 
HETATM    4  N3  UNL     1      19.579   0.271  51.658  1.00  0.00    -0.269 NA
HETATM    5  C18 UNL     1      18.746   1.158  51.041  1.00  0.00     0.134 A 
HETATM    6  P1  UNL     1      19.552   2.575  50.460  1.00  0.00     0.018 P 
ENDROOT
BRANCH   2   7
HETATM    7  N2  UNL     1      23.150   1.371  51.794  1.00  0.00    -0.382 N 
HETATM    8  H13 UNL     1      23.839   1.755  51.114  1.00  0.00     0.160 HD
BRANCH   7   9
HETATM    9  C10 UNL     1      23.525   0.756  53.026  1.00  0.00     0.169 C 
BRANCH   9  10
HETATM   10  C11 UNL     1      24.963   0.590  53.234  1.00  0.00     0.034 A 
HETATM   11  S1  UNL     1      25.857  -0.794  53.313  1.00  0.00    -0.086 SA
HETATM   12  C12 UNL     1      27.439  -0.539  53.449  1.00  0.00     0.058 A 
HETATM   13  C13 UNL     1      27.817   0.712  53.611  1.00  0.00     0.089 A 
HETATM   14  C15 UNL     1      26.981   1.916  53.537  1.00  0.00     0.075 A 
HETATM   15  C16 UNL     1      25.667   1.884  53.364  1.00  0.00     0.083 A 
BRANCH  13  16
HETATM   16  O1  UNL     1      29.167   0.824  53.877  1.00  0.00    -0.354 OA
HETATM   17  C14 UNL     1      30.061  -0.223  53.577  1.00  0.00     0.210 C 
ENDBRANCH  13  16
BRANCH  15  18
HETATM   18  O2  UNL     1      25.044   3.138  53.318  1.00  0.00    -0.359 OA
HETATM   19  H20 UNL     1      24.184   3.368  53.760  1.00  0.00     0.217 HD
ENDBRANCH  15  18
ENDBRANCH   9  10
ENDBRANCH   7   9
ENDBRANCH   2   7
BRANCH   1  20
HETATM   20  N1  UNL     1      22.140   3.635  50.398  1.00  0.00    -0.370 N 
HETATM   21  C2  UNL     1      22.759   4.735  51.106  1.00  0.00     0.084 C 
HETATM   22  C1  UNL     1      21.791   5.863  51.364  1.00  0.00     0.032 C 
HETATM   23  C3  UNL     1      23.982   5.262  50.399  1.00  0.00     0.058 C 
HETATM   24  C4  UNL     1      24.630   4.131  49.683  1.00  0.00    -0.084 C 
HETATM   25  C5  UNL     1      26.131   3.978  49.776  1.00  0.00     0.043 C 
HETATM   26  C6  UNL     1      24.000   3.221  48.950  1.00  0.00    -0.005 C 
HETATM   27  C7  UNL     1      22.532   3.578  49.003  1.00  0.00     0.151 C 
ENDBRANCH   1  20
TORSDOF 6
ENDMDL
MODEL 7
REMARK VINA RESULT:      -6.9      3.511      6.858
REMARK  6 active torsions:
REMARK  status: ('A' for Active; 'I' for Inactive)
REMARK    1  A    between atoms: N1_8  and  C8_9 
REMARK    2  A    between atoms: C9_10  and  N2_11 
REMARK    3  A    between atoms: N2_11  and  C10_12 
REMARK    4  A    between atoms: C10_12  and  C11_13 
REMARK    5  A    between atoms: C13_16  and  O1_17 
REMARK    6  A    between atoms: C16_20  and  O2_21 
ROOT
HETATM    1  C8  UNL     1      24.828  -0.110  53.796  1.00  0.00     0.073 A 
HETATM    2  C9  UNL     1      23.754   0.484  53.130  1.00  0.00     0.074 A 
HETATM    3  C17 UNL     1      22.467   0.189  53.549  1.00  0.00     0.147 A 
HETATM    4  N3  UNL     1      21.953  -0.587  54.506  1.00  0.00    -0.269 NA
HETATM    5  C18 UNL     1      22.709  -1.329  55.365  1.00  0.00     0.134 A 
HETATM    6  P1  UNL     1      24.411  -1.175  55.097  1.00  0.00     0.018 P 
ENDROOT
BRANCH   2   7
HETATM    7  N2  UNL     1      23.943   1.368  52.017  1.00  0.00    -0.382 N 
HETATM    8  H13 UNL     1      24.614   1.063  51.283  1.00  0.00     0.160 HD
BRANCH   7   9
HETATM    9  C10 UNL     1      23.224   2.600  51.958  1.00  0.00     0.169 C 
BRANCH   9  10
HETATM   10  C11 UNL     1      23.850   3.655  51.163  1.00  0.00     0.034 A 
HETATM   11  S1  UNL     1      24.653   3.547  49.726  1.00  0.00    -0.086 SA
HETATM   12  C12 UNL     1      25.103   4.970  49.124  1.00  0.00     0.058 A 
HETATM   13  C13 UNL     1      24.902   6.019  49.894  1.00  0.00     0.089 A 
HETATM   14  C15 UNL     1      24.185   6.066  51.173  1.00  0.00     0.075 A 
HETATM   15  C16 UNL     1      23.692   4.992  51.775  1.00  0.00     0.083 A 
BRANCH  13  16
HETATM   16  O1  UNL     1      25.459   7.169  49.371  1.00  0.00    -0.354 OA
HETATM   17  C14 UNL     1      26.174   8.070  50.184  1.00  0.00     0.210 C 
ENDBRANCH  13  16
BRANCH  15  18
HETATM   18  O2  UNL     1      23.038   5.240  52.989  1.00  0.00    -0.359 OA
HETATM   19  H20 UNL     1      23.423   5.739  53.757  1.00  0.00     0.217 HD
ENDBRANCH  15  18
ENDBRANCH   9  10
ENDBRANCH   7   9
ENDBRANCH   2   7
BRANCH   1  20
HETATM   20  N1  UNL     1      26.146   0.189  53.377  1.00  0.00    -0.370 N 
HETATM   21  C2  UNL     1      27.166   1.105  53.838  1.00  0.00     0.084 C 
HETATM   22  C1  UNL     1      26.879   2.529  53.428  1.00  0.00     0.032 C 
HETATM   23  C3  UNL     1      28.548   0.710  53.382  1.00  0.00     0.058 C 
HETATM   24  C4  UNL     1      28.600  -0.773  53.287  1.00  0.00    -0.084 C 
HETATM   25  C5  UNL     1      29.803  -1.493  53.851  1.00  0.00     0.043 C 
HETATM   26  C6  UNL     1      27.669  -1.543  52.739  1.00  0.00    -0.005 C 
HETATM   27  C7  UNL     1      26.583  -0.612  52.250  1.00  0.00     0.151 C 
ENDBRANCH   1  20
TORSDOF 6
ENDMDL
MODEL 8
REMARK VINA RESULT:      -6.9      3.915      7.308
REMARK  6 active torsions:
REMARK  status: ('A' for Active; 'I' for Inactive)
REMARK    1  A    between atoms: N1_8  and  C8_9 
REMARK    2  A    between atoms: C9_10  and  N2_11 
REMARK    3  A    between atoms: N2_11  and  C10_12 
REMARK    4  A    between atoms: C10_12  and  C11_13 
REMARK    5  A    between atoms: C13_16  and  O1_17 
REMARK    6  A    between atoms: C16_20  and  O2_21 
ROOT
HETATM    1  C8  UNL     1      25.749   1.795  52.614  1.00  0.00     0.073 A 
HETATM    2  C9  UNL     1      25.000   0.705  53.063  1.00  0.00     0.074 A 
HETATM    3  C17 UNL     1      25.579  -0.172  53.965  1.00  0.00     0.147 A 
HETATM    4  N3  UNL     1      26.772  -0.245  54.562  1.00  0.00    -0.269 NA
HETATM    5  C18 UNL     1      27.772   0.661  54.363  1.00  0.00     0.134 A 
HETATM    6  P1  UNL     1      27.353   1.922  53.255  1.00  0.00     0.018 P 
ENDROOT
BRANCH   2   7
HETATM    7  N2  UNL     1      23.666   0.455  52.601  1.00  0.00    -0.382 N 
HETATM    8  H13 UNL     1      23.530   0.385  51.572  1.00  0.00     0.160 HD
BRANCH   7   9
HETATM    9  C10 UNL     1      22.603   0.316  53.544  1.00  0.00     0.169 C 
BRANCH   9  10
HETATM   10  C11 UNL     1      21.264   0.201  52.967  1.00  0.00     0.034 A 
HETATM   11  S1  UNL     1      20.634   0.931  51.628  1.00  0.00    -0.086 SA
HETATM   12  C12 UNL     1      19.140   0.454  51.269  1.00  0.00     0.058 A 
HETATM   13  C13 UNL     1      18.558  -0.344  52.140  1.00  0.00     0.089 A 
HETATM   14  C15 UNL     1      19.158  -0.966  53.325  1.00  0.00     0.075 A 
HETATM   15  C16 UNL     1      20.401  -0.731  53.725  1.00  0.00     0.083 A 
BRANCH  13  16
HETATM   16  O1  UNL     1      17.231  -0.575  51.836  1.00  0.00    -0.354 OA
HETATM   17  C14 UNL     1      16.727  -0.348  50.541  1.00  0.00     0.210 C 
ENDBRANCH  13  16
BRANCH  15  18
HETATM   18  O2  UNL     1      20.795  -1.421  54.878  1.00  0.00    -0.359 OA
HETATM   19  H20 UNL     1      21.692  -1.367  55.301  1.00  0.00     0.217 HD
ENDBRANCH  15  18
ENDBRANCH   9  10
ENDBRANCH   7   9
ENDBRANCH   2   7
BRANCH   1  20
HETATM   20  N1  UNL     1      25.164   2.698  51.695  1.00  0.00    -0.370 N 
HETATM   21  C2  UNL     1      24.496   3.975  51.823  1.00  0.00     0.084 C 
HETATM   22  C1  UNL     1      23.086   3.830  52.341  1.00  0.00     0.032 C 
HETATM   23  C3  UNL     1      24.491   4.757  50.535  1.00  0.00     0.058 C 
HETATM   24  C4  UNL     1      25.730   4.423  49.783  1.00  0.00    -0.084 C 
HETATM   25  C5  UNL     1      26.519   5.547  49.151  1.00  0.00     0.043 C 
HETATM   26  C6  UNL     1      26.220   3.202  49.608  1.00  0.00    -0.005 C 
HETATM   27  C7  UNL     1      25.273   2.261  50.317  1.00  0.00     0.151 C 
ENDBRANCH   1  20
TORSDOF 6
ENDMDL
MODEL 9
REMARK VINA RESULT:      -6.8      4.040      6.938
REMARK  6 active torsions:
REMARK  status: ('A' for Active; 'I' for Inactive)
REMARK    1  A    between atoms: N1_8  and  C8_9 
REMARK    2  A    between atoms: C9_10  and  N2_11 
REMARK    3  A    between atoms: N2_11  and  C10_12 
REMARK    4  A    between atoms: C10_12  and  C11_13 
REMARK    5  A    between atoms: C13_16  and  O1_17 
REMARK    6  A    between atoms: C16_20  and  O2_21 
ROOT
HETATM    1  C8  UNL     1      24.619   1.810  52.712  1.00  0.00     0.073 A 
HETATM    2  C9  UNL     1      23.779   0.726  52.975  1.00  0.00     0.074 A 
HETATM    3  C17 UNL     1      24.241  -0.288  53.797  1.00  0.00     0.147 A 
HETATM    4  N3  UNL     1      25.382  -0.510  54.454  1.00  0.00    -0.269 NA
HETATM    5  C18 UNL     1      26.445   0.345  54.432  1.00  0.00     0.134 A 
HETATM    6  P1  UNL     1      26.178   1.754  53.464  1.00  0.00     0.018 P 
ENDROOT
BRANCH   2   7
HETATM    7  N2  UNL     1      22.469   0.621  52.403  1.00  0.00    -0.382 N 
HETATM    8  H13 UNL     1      22.404   0.213  51.448  1.00  0.00     0.160 HD
BRANCH   7   9
HETATM    9  C10 UNL     1      21.333   1.069  53.143  1.00  0.00     0.169 C 
BRANCH   9  10
HETATM   10  C11 UNL     1      20.115   0.278  52.963  1.00  0.00     0.034 A 
HETATM   11  S1  UNL     1      18.876   0.492  51.896  1.00  0.00    -0.086 SA
HETATM   12  C12 UNL     1      17.763  -0.669  51.950  1.00  0.00     0.058 A 
HETATM   13  C13 UNL     1      17.899  -1.562  52.908  1.00  0.00     0.089 A 
HETATM   14  C15 UNL     1      19.021  -1.711  53.841  1.00  0.00     0.075 A 
HETATM   15  C16 UNL     1      20.052  -0.877  53.884  1.00  0.00     0.083 A 
BRANCH  13  16
HETATM   16  O1  UNL     1      16.823  -2.424  52.980  1.00  0.00    -0.354 OA
HETATM   17  C14 UNL     1      16.966  -3.733  53.480  1.00  0.00     0.210 C 
ENDBRANCH  13  16
BRANCH  15  18
HETATM   18  O2  UNL     1      21.026  -1.186  54.842  1.00  0.00    -0.359 OA
HETATM   19  H20 UNL     1      21.001  -0.909  55.796  1.00  0.00     0.217 HD
ENDBRANCH  15  18
ENDBRANCH   9  10
ENDBRANCH   7   9
ENDBRANCH   2   7
BRANCH   1  20
HETATM   20  N1  UNL     1      24.153   2.853  51.876  1.00  0.00    -0.370 N 
HETATM   21  C2  UNL     1      23.930   2.979  50.453  1.00  0.00     0.084 C 
HETATM   22  C1  UNL     1      25.219   3.151  49.688  1.00  0.00     0.032 C 
HETATM   23  C3  UNL     1      22.979   4.099  50.113  1.00  0.00     0.058 C 
HETATM   24  C4  UNL     1      22.003   4.233  51.227  1.00  0.00    -0.084 C 
HETATM   25  C5  UNL     1      20.538   4.397  50.890  1.00  0.00     0.043 C 
HETATM   26  C6  UNL     1      22.302   4.225  52.519  1.00  0.00    -0.005 C 
HETATM   27  C7  UNL     1      23.801   4.055  52.605  1.00  0.00     0.151 C 
ENDBRANCH   1  20
TORSDOF 6
ENDMDL
