MODEL 1
REMARK VINA RESULT:      -7.6      0.000      0.000
REMARK  7 active torsions:
REMARK  status: ('A' for Active; 'I' for Inactive)
REMARK    1  A    between atoms: C1_2  and  O2_3 
REMARK    2  A    between atoms: C1_2  and  C2_4 
REMARK    3  A    between atoms: C2_4  and  C3_5 
REMARK    4  A    between atoms: C3_5  and  C4_6 
REMARK    5  A    between atoms: C5_7  and  S1_8 
REMARK    6  A    between atoms: S1_8  and  S2_9 
REMARK    7  A    between atoms: S2_9  and  C6_10 
ROOT
HETATM    1  C4  UNL     1      24.691   0.393  53.032  1.00  0.00    -0.001 C 
HETATM    2  C5  UNL     1      25.714   0.027  53.768  1.00  0.00     0.157 C 
HETATM    3  O3  UNL     1      25.874  -0.762  54.894  1.00  0.00    -0.187 OA
HETATM    4  N1  UNL     1      24.911  -1.317  55.720  1.00  0.00    -0.017 NA
HETATM    5  N2  UNL     1      23.659  -1.342  55.540  1.00  0.00    -0.125 NA
HETATM    6  C7  UNL     1      22.869  -0.819  54.454  1.00  0.00     0.092 A 
HETATM    7  C8  UNL     1      21.565  -1.185  54.659  1.00  0.00     0.034 A 
HETATM    8  C9  UNL     1      20.611  -0.798  53.746  1.00  0.00     0.002 A 
HETATM    9  C10 UNL     1      21.022  -0.062  52.675  1.00  0.00     0.001 A 
HETATM   10  C11 UNL     1      22.332   0.265  52.534  1.00  0.00     0.014 A 
HETATM   11  C12 UNL     1      23.355  -0.077  53.394  1.00  0.00     0.004 A 
ENDROOT
BRANCH   1  12
HETATM   12  C3  UNL     1      24.661   1.235  51.862  1.00  0.00     0.053 C 
BRANCH  12  13
HETATM   13  C2  UNL     1      24.867   2.720  52.022  1.00  0.00     0.115 C 
BRANCH  13  14
HETATM   14  C1  UNL     1      25.680   3.191  50.808  1.00  0.00     0.139 C 
HETATM   15  O1  UNL     1      25.101   3.382  49.690  1.00  0.00    -0.650 OA
BRANCH  14  16
HETATM   16  O2  UNL     1      27.038   3.397  50.970  1.00  0.00    -0.776 OA
HETATM   17  H1  UNL     1      27.674   2.726  50.513  1.00  0.00     0.167 HD
ENDBRANCH  14  16
ENDBRANCH  13  14
ENDBRANCH  12  13
ENDBRANCH   1  12
BRANCH   2  18
HETATM   18  S1  UNL     1      27.296   0.653  53.259  1.00  0.00    -0.027 SA
BRANCH  18  19
HETATM   19  S2  UNL     1      28.867   0.076  54.492  1.00  0.00    -0.059 SA
BRANCH  19  20
HETATM   20  C6  UNL     1      30.009  -1.094  53.712  1.00  0.00     0.308 C 
HETATM   21  F1  UNL     1      29.250  -2.034  53.081  1.00  0.00    -0.244 F 
ENDBRANCH  19  20
ENDBRANCH  18  19
ENDBRANCH   2  18
TORSDOF 7
ENDMDL
MODEL 2
REMARK VINA RESULT:      -7.2      1.236      1.516
REMARK  7 active torsions:
REMARK  status: ('A' for Active; 'I' for Inactive)
REMARK    1  A    between atoms: C1_2  and  O2_3 
REMARK    2  A    between atoms: C1_2  and  C2_4 
REMARK    3  A    between atoms: C2_4  and  C3_5 
REMARK    4  A    between atoms: C3_5  and  C4_6 
REMARK    5  A    between atoms: C5_7  and  S1_8 
REMARK    6  A    between atoms: S1_8  and  S2_9 
REMARK    7  A    between atoms: S2_9  and  C6_10 
ROOT
HETATM    1  C4  UNL     1      24.073   0.189  53.235  1.00  0.00    -0.001 C 
HETATM    2  C5  UNL     1      24.665  -0.407  54.243  1.00  0.00     0.157 C 
HETATM    3  O3  UNL     1      24.243  -1.217  55.282  1.00  0.00    -0.187 OA
HETATM    4  N1  UNL     1      22.955  -1.540  55.676  1.00  0.00    -0.017 NA
HETATM    5  N2  UNL     1      21.873  -1.275  55.076  1.00  0.00    -0.125 NA
HETATM    6  C7  UNL     1      21.651  -0.578  53.833  1.00  0.00     0.092 A 
HETATM    7  C8  UNL     1      20.313  -0.635  53.546  1.00  0.00     0.034 A 
HETATM    8  C9  UNL     1      19.851  -0.034  52.397  1.00  0.00     0.002 A 
HETATM    9  C10 UNL     1      20.761   0.592  51.601  1.00  0.00     0.001 A 
HETATM   10  C11 UNL     1      22.074   0.610  51.948  1.00  0.00     0.014 A 
HETATM   11  C12 UNL     1      22.627   0.037  53.073  1.00  0.00     0.004 A 
ENDROOT
BRANCH   1  12
HETATM   12  C3  UNL     1      24.639   1.021  52.203  1.00  0.00     0.053 C 
BRANCH  12  13
HETATM   13  C2  UNL     1      25.001   2.448  52.528  1.00  0.00     0.115 C 
BRANCH  13  14
HETATM   14  C1  UNL     1      26.195   2.820  51.638  1.00  0.00     0.139 C 
HETATM   15  O1  UNL     1      27.236   2.088  51.631  1.00  0.00    -0.650 OA
BRANCH  14  16
HETATM   16  O2  UNL     1      26.100   3.960  50.859  1.00  0.00    -0.776 OA
HETATM   17  H1  UNL     1      25.857   3.833  49.866  1.00  0.00     0.167 HD
ENDBRANCH  14  16
ENDBRANCH  13  14
ENDBRANCH  12  13
ENDBRANCH   1  12
BRANCH   2  18
HETATM   18  S1  UNL     1      26.419  -0.159  54.364  1.00  0.00    -0.027 SA
BRANCH  18  19
HETATM   19  S2  UNL     1      27.521  -1.238  52.969  1.00  0.00    -0.059 SA
BRANCH  19  20
HETATM   20  C6  UNL     1      29.278  -1.381  53.386  1.00  0.00     0.308 C 
HETATM   21  F1  UNL     1      29.540  -2.706  53.565  1.00  0.00    -0.244 F 
ENDBRANCH  19  20
ENDBRANCH  18  19
ENDBRANCH   2  18
TORSDOF 7
ENDMDL
MODEL 3
REMARK VINA RESULT:      -7.1      3.508      5.902
REMARK  7 active torsions:
REMARK  status: ('A' for Active; 'I' for Inactive)
REMARK    1  A    between atoms: C1_2  and  O2_3 
REMARK    2  A    between atoms: C1_2  and  C2_4 
REMARK    3  A    between atoms: C2_4  and  C3_5 
REMARK    4  A    between atoms: C3_5  and  C4_6 
REMARK    5  A    between atoms: C5_7  and  S1_8 
REMARK    6  A    between atoms: S1_8  and  S2_9 
REMARK    7  A    between atoms: S2_9  and  C6_10 
ROOT
HETATM    1  C4  UNL     1      26.147   0.566  53.200  1.00  0.00    -0.001 C 
HETATM    2  C5  UNL     1      26.231   1.848  53.469  1.00  0.00     0.157 C 
HETATM    3  O3  UNL     1      27.256   2.704  53.831  1.00  0.00    -0.187 OA
HETATM    4  N1  UNL     1      28.562   2.409  54.186  1.00  0.00    -0.017 NA
HETATM    5  N2  UNL     1      29.148   1.290  54.116  1.00  0.00    -0.125 NA
HETATM    6  C7  UNL     1      28.656   0.014  53.660  1.00  0.00     0.092 A 
HETATM    7  C8  UNL     1      29.697  -0.876  53.676  1.00  0.00     0.034 A 
HETATM    8  C9  UNL     1      29.472  -2.174  53.279  1.00  0.00     0.002 A 
HETATM    9  C10 UNL     1      28.211  -2.506  52.887  1.00  0.00     0.001 A 
HETATM   10  C11 UNL     1      27.225  -1.572  52.895  1.00  0.00     0.014 A 
HETATM   11  C12 UNL     1      27.356  -0.253  53.274  1.00  0.00     0.004 A 
ENDROOT
BRANCH   1  12
HETATM   12  C3  UNL     1      24.995  -0.216  52.828  1.00  0.00     0.053 C 
BRANCH  12  13
HETATM   13  C2  UNL     1      24.066  -0.712  53.907  1.00  0.00     0.115 C 
BRANCH  13  14
HETATM   14  C1  UNL     1      22.662  -0.784  53.290  1.00  0.00     0.139 C 
HETATM   15  O1  UNL     1      21.817  -1.629  53.729  1.00  0.00    -0.650 OA
BRANCH  14  16
HETATM   16  O2  UNL     1      22.355   0.084  52.258  1.00  0.00    -0.776 OA
HETATM   17  H1  UNL     1      21.831  -0.300  51.458  1.00  0.00     0.167 HD
ENDBRANCH  14  16
ENDBRANCH  13  14
ENDBRANCH  12  13
ENDBRANCH   1  12
BRANCH   2  18
HETATM   18  S1  UNL     1      24.711   2.761  53.362  1.00  0.00    -0.027 SA
BRANCH  18  19
HETATM   19  S2  UNL     1      24.407   3.679  51.521  1.00  0.00    -0.059 SA
BRANCH  19  20
HETATM   20  C6  UNL     1      23.613   2.604  50.298  1.00  0.00     0.308 C 
HETATM   21  F1  UNL     1      24.107   2.954  49.077  1.00  0.00    -0.244 F 
ENDBRANCH  19  20
ENDBRANCH  18  19
ENDBRANCH   2  18
TORSDOF 7
ENDMDL
MODEL 4
REMARK VINA RESULT:      -7.0      3.347      4.906
REMARK  7 active torsions:
REMARK  status: ('A' for Active; 'I' for Inactive)
REMARK    1  A    between atoms: C1_2  and  O2_3 
REMARK    2  A    between atoms: C1_2  and  C2_4 
REMARK    3  A    between atoms: C2_4  and  C3_5 
REMARK    4  A    between atoms: C3_5  and  C4_6 
REMARK    5  A    between atoms: C5_7  and  S1_8 
REMARK    6  A    between atoms: S1_8  and  S2_9 
REMARK    7  A    between atoms: S2_9  and  C6_10 
ROOT
HETATM    1  C4  UNL     1      24.901   0.872  52.812  1.00  0.00    -0.001 C 
HETATM    2  C5  UNL     1      24.918   1.926  52.031  1.00  0.00     0.157 C 
HETATM    3  O3  UNL     1      23.959   2.798  51.546  1.00  0.00    -0.187 OA
HETATM    4  N1  UNL     1      22.578   2.718  51.630  1.00  0.00    -0.017 NA
HETATM    5  N2  UNL     1      21.891   1.896  52.303  1.00  0.00    -0.125 NA
HETATM    6  C7  UNL     1      22.315   0.820  53.163  1.00  0.00     0.092 A 
HETATM    7  C8  UNL     1      21.203   0.279  53.751  1.00  0.00     0.034 A 
HETATM    8  C9  UNL     1      21.354  -0.774  54.624  1.00  0.00     0.002 A 
HETATM    9  C10 UNL     1      22.617  -1.226  54.857  1.00  0.00     0.001 A 
HETATM   10  C11 UNL     1      23.676  -0.643  54.238  1.00  0.00     0.014 A 
HETATM   11  C12 UNL     1      23.622   0.413  53.353  1.00  0.00     0.004 A 
ENDROOT
BRANCH   1  12
HETATM   12  C3  UNL     1      25.994   0.039  53.248  1.00  0.00     0.053 C 
BRANCH  12  13
HETATM   13  C2  UNL     1      26.560  -0.984  52.296  1.00  0.00     0.115 C 
BRANCH  13  14
HETATM   14  C1  UNL     1      27.683  -1.716  53.043  1.00  0.00     0.139 C 
HETATM   15  O1  UNL     1      28.382  -1.096  53.908  1.00  0.00    -0.650 OA
BRANCH  14  16
HETATM   16  O2  UNL     1      27.905  -3.050  52.748  1.00  0.00    -0.776 OA
HETATM   17  H1  UNL     1      28.810  -3.293  52.318  1.00  0.00     0.167 HD
ENDBRANCH  14  16
ENDBRANCH  13  14
ENDBRANCH  12  13
ENDBRANCH   1  12
BRANCH   2  18
HETATM   18  S1  UNL     1      26.513   2.405  51.414  1.00  0.00    -0.027 SA
BRANCH  18  19
HETATM   19  S2  UNL     1      26.449   3.381  49.578  1.00  0.00    -0.059 SA
BRANCH  19  20
HETATM   20  C6  UNL     1      25.901   5.103  49.692  1.00  0.00     0.308 C 
HETATM   21  F1  UNL     1      25.188   5.372  48.562  1.00  0.00    -0.244 F 
ENDBRANCH  19  20
ENDBRANCH  18  19
ENDBRANCH   2  18
TORSDOF 7
ENDMDL
MODEL 5
REMARK VINA RESULT:      -6.9      3.638      4.516
REMARK  7 active torsions:
REMARK  status: ('A' for Active; 'I' for Inactive)
REMARK    1  A    between atoms: C1_2  and  O2_3 
REMARK    2  A    between atoms: C1_2  and  C2_4 
REMARK    3  A    between atoms: C2_4  and  C3_5 
REMARK    4  A    between atoms: C3_5  and  C4_6 
REMARK    5  A    between atoms: C5_7  and  S1_8 
REMARK    6  A    between atoms: S1_8  and  S2_9 
REMARK    7  A    between atoms: S2_9  and  C6_10 
ROOT
HETATM    1  C4  UNL     1      23.237   2.169  52.426  1.00  0.00    -0.001 C 
HETATM    2  C5  UNL     1      22.715   3.338  52.140  1.00  0.00     0.157 C 
HETATM    3  O3  UNL     1      21.454   3.898  52.245  1.00  0.00    -0.187 OA
HETATM    4  N1  UNL     1      20.251   3.293  52.570  1.00  0.00    -0.017 NA
HETATM    5  N2  UNL     1      20.066   2.113  52.987  1.00  0.00    -0.125 NA
HETATM    6  C7  UNL     1      21.020   1.063  53.246  1.00  0.00     0.092 A 
HETATM    7  C8  UNL     1      20.347  -0.001  53.786  1.00  0.00     0.034 A 
HETATM    8  C9  UNL     1      21.050  -1.136  54.121  1.00  0.00     0.002 A 
HETATM    9  C10 UNL     1      22.393  -1.138  53.893  1.00  0.00     0.001 A 
HETATM   10  C11 UNL     1      22.996  -0.046  53.354  1.00  0.00     0.014 A 
HETATM   11  C12 UNL     1      22.376   1.130  52.990  1.00  0.00     0.004 A 
ENDROOT
BRANCH   1  12
HETATM   12  C3  UNL     1      24.593   1.708  52.265  1.00  0.00     0.053 C 
BRANCH  12  13
HETATM   13  C2  UNL     1      25.642   2.158  53.249  1.00  0.00     0.115 C 
BRANCH  13  14
HETATM   14  C1  UNL     1      27.005   1.774  52.655  1.00  0.00     0.139 C 
HETATM   15  O1  UNL     1      27.315   0.547  52.515  1.00  0.00    -0.650 OA
BRANCH  14  16
HETATM   16  O2  UNL     1      27.868   2.790  52.286  1.00  0.00    -0.776 OA
HETATM   17  H1  UNL     1      28.837   2.525  52.056  1.00  0.00     0.167 HD
ENDBRANCH  14  16
ENDBRANCH  13  14
ENDBRANCH  12  13
ENDBRANCH   1  12
BRANCH   2  18
HETATM   18  S1  UNL     1      23.833   4.535  51.452  1.00  0.00    -0.027 SA
BRANCH  18  19
HETATM   19  S2  UNL     1      24.518   4.051  49.548  1.00  0.00    -0.059 SA
BRANCH  19  20
HETATM   20  C6  UNL     1      26.323   4.080  49.399  1.00  0.00     0.308 C 
HETATM   21  F1  UNL     1      26.733   2.789  49.255  1.00  0.00    -0.244 F 
ENDBRANCH  19  20
ENDBRANCH  18  19
ENDBRANCH   2  18
TORSDOF 7
ENDMDL
MODEL 6
REMARK VINA RESULT:      -6.9      3.902      6.387
REMARK  7 active torsions:
REMARK  status: ('A' for Active; 'I' for Inactive)
REMARK    1  A    between atoms: C1_2  and  O2_3 
REMARK    2  A    between atoms: C1_2  and  C2_4 
REMARK    3  A    between atoms: C2_4  and  C3_5 
REMARK    4  A    between atoms: C3_5  and  C4_6 
REMARK    5  A    between atoms: C5_7  and  S1_8 
REMARK    6  A    between atoms: S1_8  and  S2_9 
REMARK    7  A    between atoms: S2_9  and  C6_10 
ROOT
HETATM    1  C4  UNL     1      24.416   1.219  52.832  1.00  0.00    -0.001 C 
HETATM    2  C5  UNL     1      24.167   1.864  51.717  1.00  0.00     0.157 C 
HETATM    3  O3  UNL     1      24.944   2.475  50.748  1.00  0.00    -0.187 OA
HETATM    4  N1  UNL     1      26.305   2.732  50.749  1.00  0.00    -0.017 NA
HETATM    5  N2  UNL     1      27.168   2.330  51.582  1.00  0.00    -0.125 NA
HETATM    6  C7  UNL     1      27.009   1.505  52.754  1.00  0.00     0.092 A 
HETATM    7  C8  UNL     1      28.252   1.258  53.273  1.00  0.00     0.034 A 
HETATM    8  C9  UNL     1      28.360   0.484  54.406  1.00  0.00     0.002 A 
HETATM    9  C10 UNL     1      27.211   0.002  54.955  1.00  0.00     0.001 A 
HETATM   10  C11 UNL     1      26.011   0.287  54.386  1.00  0.00     0.014 A 
HETATM   11  C12 UNL     1      25.805   1.049  53.256  1.00  0.00     0.004 A 
ENDROOT
BRANCH   1  12
HETATM   12  C3  UNL     1      23.497   0.620  53.767  1.00  0.00     0.053 C 
BRANCH  12  13
HETATM   13  C2  UNL     1      22.913  -0.734  53.455  1.00  0.00     0.115 C 
BRANCH  13  14
HETATM   14  C1  UNL     1      22.291  -1.263  54.755  1.00  0.00     0.139 C 
HETATM   15  O1  UNL     1      23.043  -1.644  55.710  1.00  0.00    -0.650 OA
BRANCH  14  16
HETATM   16  O2  UNL     1      20.912  -1.311  54.850  1.00  0.00    -0.776 OA
HETATM   17  H1  UNL     1      20.399  -0.430  54.697  1.00  0.00     0.167 HD
ENDBRANCH  14  16
ENDBRANCH  13  14
ENDBRANCH  12  13
ENDBRANCH   1  12
BRANCH   2  18
HETATM   18  S1  UNL     1      22.452   2.030  51.286  1.00  0.00    -0.027 SA
BRANCH  18  19
HETATM   19  S2  UNL     1      21.613   3.847  51.852  1.00  0.00    -0.059 SA
BRANCH  19  20
HETATM   20  C6  UNL     1      22.840   5.124  52.232  1.00  0.00     0.308 C 
HETATM   21  F1  UNL     1      23.522   4.708  53.336  1.00  0.00    -0.244 F 
ENDBRANCH  19  20
ENDBRANCH  18  19
ENDBRANCH   2  18
TORSDOF 7
ENDMDL
MODEL 7
REMARK VINA RESULT:      -6.9      3.237      5.194
REMARK  7 active torsions:
REMARK  status: ('A' for Active; 'I' for Inactive)
REMARK    1  A    between atoms: C1_2  and  O2_3 
REMARK    2  A    between atoms: C1_2  and  C2_4 
REMARK    3  A    between atoms: C2_4  and  C3_5 
REMARK    4  A    between atoms: C3_5  and  C4_6 
REMARK    5  A    between atoms: C5_7  and  S1_8 
REMARK    6  A    between atoms: S1_8  and  S2_9 
REMARK    7  A    between atoms: S2_9  and  C6_10 
ROOT
HETATM    1  C4  UNL     1      25.110   1.527  53.142  1.00  0.00    -0.001 C 
HETATM    2  C5  UNL     1      24.202   0.645  53.487  1.00  0.00     0.157 C 
HETATM    3  O3  UNL     1      24.196  -0.497  54.268  1.00  0.00    -0.187 OA
HETATM    4  N1  UNL     1      25.261  -1.175  54.839  1.00  0.00    -0.017 NA
HETATM    5  N2  UNL     1      26.472  -0.811  54.888  1.00  0.00    -0.125 NA
HETATM    6  C7  UNL     1      27.101   0.384  54.384  1.00  0.00     0.092 A 
HETATM    7  C8  UNL     1      28.413   0.373  54.774  1.00  0.00     0.034 A 
HETATM    8  C9  UNL     1      29.228   1.420  54.409  1.00  0.00     0.002 A 
HETATM    9  C10 UNL     1      28.677   2.422  53.670  1.00  0.00     0.001 A 
HETATM   10  C11 UNL     1      27.366   2.368  53.317  1.00  0.00     0.014 A 
HETATM   11  C12 UNL     1      26.477   1.365  53.637  1.00  0.00     0.004 A 
ENDROOT
BRANCH   1  12
HETATM   12  C3  UNL     1      24.982   2.693  52.305  1.00  0.00     0.053 C 
BRANCH  12  13
HETATM   13  C2  UNL     1      25.130   2.544  50.813  1.00  0.00     0.115 C 
BRANCH  13  14
HETATM   14  C1  UNL     1      25.758   3.846  50.294  1.00  0.00     0.139 C 
HETATM   15  O1  UNL     1      25.012   4.790  49.877  1.00  0.00    -0.650 OA
BRANCH  14  16
HETATM   16  O2  UNL     1      27.137   3.953  50.295  1.00  0.00    -0.776 OA
HETATM   17  H1  UNL     1      27.537   4.888  50.466  1.00  0.00     0.167 HD
ENDBRANCH  14  16
ENDBRANCH  13  14
ENDBRANCH  12  13
ENDBRANCH   1  12
BRANCH   2  18
HETATM   18  S1  UNL     1      22.573   0.918  52.832  1.00  0.00    -0.027 SA
BRANCH  18  19
HETATM   19  S2  UNL     1      21.043   0.268  54.082  1.00  0.00    -0.059 SA
BRANCH  19  20
HETATM   20  C6  UNL     1      20.957  -1.533  54.246  1.00  0.00     0.308 C 
HETATM   21  F1  UNL     1      19.684  -1.904  53.932  1.00  0.00    -0.244 F 
ENDBRANCH  19  20
ENDBRANCH  18  19
ENDBRANCH   2  18
TORSDOF 7
ENDMDL
MODEL 8
REMARK VINA RESULT:      -6.9      3.230      4.689
REMARK  7 active torsions:
REMARK  status: ('A' for Active; 'I' for Inactive)
REMARK    1  A    between atoms: C1_2  and  O2_3 
REMARK    2  A    between atoms: C1_2  and  C2_4 
REMARK    3  A    between atoms: C2_4  and  C3_5 
REMARK    4  A    between atoms: C3_5  and  C4_6 
REMARK    5  A    between atoms: C5_7  and  S1_8 
REMARK    6  A    between atoms: S1_8  and  S2_9 
REMARK    7  A    between atoms: S2_9  and  C6_10 
ROOT
HETATM    1  C4  UNL     1      24.726   0.795  52.878  1.00  0.00    -0.001 C 
HETATM    2  C5  UNL     1      24.786   1.863  52.119  1.00  0.00     0.157 C 
HETATM    3  O3  UNL     1      23.856   2.748  51.602  1.00  0.00    -0.187 OA
HETATM    4  N1  UNL     1      22.473   2.673  51.615  1.00  0.00    -0.017 NA
HETATM    5  N2  UNL     1      21.749   1.841  52.235  1.00  0.00    -0.125 NA
HETATM    6  C7  UNL     1      22.125   0.747  53.095  1.00  0.00     0.092 A 
HETATM    7  C8  UNL     1      20.982   0.200  53.615  1.00  0.00     0.034 A 
HETATM    8  C9  UNL     1      21.085  -0.870  54.474  1.00  0.00     0.002 A 
HETATM    9  C10 UNL     1      22.333  -1.333  54.762  1.00  0.00     0.001 A 
HETATM   10  C11 UNL     1      23.424  -0.742  54.210  1.00  0.00     0.014 A 
HETATM   11  C12 UNL     1      23.419   0.331  53.344  1.00  0.00     0.004 A 
ENDROOT
BRANCH   1  12
HETATM   12  C3  UNL     1      25.791  -0.052  53.352  1.00  0.00     0.053 C 
BRANCH  12  13
HETATM   13  C2  UNL     1      26.403   0.226  54.702  1.00  0.00     0.115 C 
BRANCH  13  14
HETATM   14  C1  UNL     1      27.926   0.222  54.512  1.00  0.00     0.139 C 
HETATM   15  O1  UNL     1      28.595   1.287  54.712  1.00  0.00    -0.650 OA
BRANCH  14  16
HETATM   16  O2  UNL     1      28.534  -0.957  54.121  1.00  0.00    -0.776 OA
HETATM   17  H1  UNL     1      27.942  -1.662  53.658  1.00  0.00     0.167 HD
ENDBRANCH  14  16
ENDBRANCH  13  14
ENDBRANCH  12  13
ENDBRANCH   1  12
BRANCH   2  18
HETATM   18  S1  UNL     1      26.412   2.347  51.594  1.00  0.00    -0.027 SA
BRANCH  18  19
HETATM   19  S2  UNL     1      26.469   3.182  49.690  1.00  0.00    -0.059 SA
BRANCH  19  20
HETATM   20  C6  UNL     1      25.949   4.916  49.644  1.00  0.00     0.308 C 
HETATM   21  F1  UNL     1      26.501   5.470  48.527  1.00  0.00    -0.244 F 
ENDBRANCH  19  20
ENDBRANCH  18  19
ENDBRANCH   2  18
TORSDOF 7
ENDMDL
MODEL 9
REMARK VINA RESULT:      -6.7      2.841      4.732
REMARK  7 active torsions:
REMARK  status: ('A' for Active; 'I' for Inactive)
REMARK    1  A    between atoms: C1_2  and  O2_3 
REMARK    2  A    between atoms: C1_2  and  C2_4 
REMARK    3  A    between atoms: C2_4  and  C3_5 
REMARK    4  A    between atoms: C3_5  and  C4_6 
REMARK    5  A    between atoms: C5_7  and  S1_8 
REMARK    6  A    between atoms: S1_8  and  S2_9 
REMARK    7  A    between atoms: S2_9  and  C6_10 
ROOT
HETATM    1  C4  UNL     1      24.389   0.715  52.611  1.00  0.00    -0.001 C 
HETATM    2  C5  UNL     1      25.602   0.966  53.040  1.00  0.00     0.157 C 
HETATM    3  O3  UNL     1      26.601   1.855  52.683  1.00  0.00    -0.187 OA
HETATM    4  N1  UNL     1      26.671   2.702  51.589  1.00  0.00    -0.017 NA
HETATM    5  N2  UNL     1      25.761   2.954  50.747  1.00  0.00    -0.125 NA
HETATM    6  C7  UNL     1      24.411   2.456  50.666  1.00  0.00     0.092 A 
HETATM    7  C8  UNL     1      23.778   3.103  49.638  1.00  0.00     0.034 A 
HETATM    8  C9  UNL     1      22.466   2.794  49.361  1.00  0.00     0.002 A 
HETATM    9  C10 UNL     1      21.862   1.849  50.135  1.00  0.00     0.001 A 
HETATM   10  C11 UNL     1      22.550   1.247  51.139  1.00  0.00     0.014 A 
HETATM   11  C12 UNL     1      23.861   1.492  51.489  1.00  0.00     0.004 A 
ENDROOT
BRANCH   1  12
HETATM   12  C3  UNL     1      23.434  -0.257  53.081  1.00  0.00     0.053 C 
BRANCH  12  13
HETATM   13  C2  UNL     1      22.430   0.150  54.129  1.00  0.00     0.115 C 
BRANCH  13  14
HETATM   14  C1  UNL     1      22.099  -1.109  54.944  1.00  0.00     0.139 C 
HETATM   15  O1  UNL     1      22.973  -1.609  55.724  1.00  0.00    -0.650 OA
BRANCH  14  16
HETATM   16  O2  UNL     1      20.843  -1.669  54.802  1.00  0.00    -0.776 OA
HETATM   17  H1  UNL     1      20.771  -2.530  54.239  1.00  0.00     0.167 HD
ENDBRANCH  14  16
ENDBRANCH  13  14
ENDBRANCH  12  13
ENDBRANCH   1  12
BRANCH   2  18
HETATM   18  S1  UNL     1      26.162  -0.032  54.399  1.00  0.00    -0.027 SA
BRANCH  18  19
HETATM   19  S2  UNL     1      28.196   0.149  54.795  1.00  0.00    -0.059 SA
BRANCH  19  20
HETATM   20  C6  UNL     1      29.250  -0.597  53.525  1.00  0.00     0.308 C 
HETATM   21  F1  UNL     1      28.861  -1.897  53.394  1.00  0.00    -0.244 F 
ENDBRANCH  19  20
ENDBRANCH  18  19
ENDBRANCH   2  18
TORSDOF 7
ENDMDL
