MODEL 1
REMARK VINA RESULT:      -9.1      0.000      0.000
REMARK  5 active torsions:
REMARK  status: ('A' for Active; 'I' for Inactive)
REMARK    1  A    between atoms: O1_1  and  C1_2 
REMARK    2  A    between atoms: C2_3  and  C3_4 
REMARK    3  A    between atoms: C5_8  and  C6_9 
REMARK    4  A    between atoms: C6_9  and  N3_10 
REMARK    5  A    between atoms: N3_10  and  C7_11 
ROOT
HETATM    1  C1  UNL     1      22.118  -0.473  52.739  1.00  0.00     0.135 A 
HETATM    2  C2  UNL     1      23.182   0.347  53.033  1.00  0.00     0.096 A 
HETATM    3  C3  UNL     1      23.710   1.358  52.318  1.00  0.00     0.080 A 
HETATM    4  N1  UNL     1      22.491   2.128  52.025  1.00  0.00    -0.225 NA
HETATM    5  C4  UNL     1      22.428   3.219  51.340  1.00  0.00     0.182 A 
HETATM    6  N2  UNL     1      23.411   3.899  50.754  1.00  0.00    -0.223 NA
HETATM    7  C5  UNL     1      24.679   3.378  50.880  1.00  0.00     0.061 A 
HETATM    8  C13 UNL     1      24.220   2.349  51.607  1.00  0.00    -0.006 A 
HETATM    9  C14 UNL     1      23.207   1.354  51.628  1.00  0.00     0.143 A 
HETATM   10  C15 UNL     1      22.220   0.368  51.669  1.00  0.00     0.125 A 
HETATM   11  O2  UNL     1      21.205   0.095  50.696  1.00  0.00    -0.369 OA
HETATM   12  C16 UNL     1      19.931   0.706  50.849  1.00  0.00     0.126 C 
HETATM   13  C17 UNL     1      19.787   1.764  49.811  1.00  0.00     0.052 C 
HETATM   14  C18 UNL     1      20.436   3.048  50.249  1.00  0.00     0.128 C 
HETATM   15  N4  UNL     1      21.071   2.979  51.546  1.00  0.00    -0.356 N 
HETATM   16  C19 UNL     1      20.042   2.645  52.483  1.00  0.00     0.128 C 
HETATM   17  C20 UNL     1      19.592   1.222  52.189  1.00  0.00     0.052 C 
ENDROOT
BRANCH   7  18
HETATM   18  C6  UNL     1      26.100   3.002  50.885  1.00  0.00     0.179 C 
BRANCH  18  19
HETATM   19  N3  UNL     1      26.598   2.624  52.191  1.00  0.00    -0.384 N 
HETATM   20  H5  UNL     1      26.190   3.295  52.896  1.00  0.00     0.160 HD
BRANCH  19  21
HETATM   21  C7  UNL     1      27.485   1.608  52.717  1.00  0.00     0.030 A 
HETATM   22  C8  UNL     1      28.572   2.005  53.480  1.00  0.00     0.032 A 
HETATM   23  C9  UNL     1      29.349   0.984  53.990  1.00  0.00     0.046 A 
HETATM   24  C10 UNL     1      29.100  -0.349  53.782  1.00  0.00     0.138 A 
HETATM   25  F1  UNL     1      29.972  -1.161  54.365  1.00  0.00    -0.204 F 
HETATM   26  C11 UNL     1      28.014  -0.696  53.022  1.00  0.00     0.074 A 
HETATM   27 CL1  UNL     1      27.777  -2.432  52.818  1.00  0.00    -0.081 Cl
HETATM   28  C12 UNL     1      27.214   0.276  52.493  1.00  0.00     0.056 A 
ENDBRANCH  19  21
ENDBRANCH  18  19
ENDBRANCH   7  18
BRANCH   1  29
HETATM   29  O1  UNL     1      22.008  -1.331  53.822  1.00  0.00    -0.383 OA
HETATM   30  H1  UNL     1      22.101  -2.330  53.640  1.00  0.00     0.210 HD
ENDBRANCH   1  29
TORSDOF 5
ENDMDL
MODEL 2
REMARK VINA RESULT:      -9.0      2.490      3.868
REMARK  5 active torsions:
REMARK  status: ('A' for Active; 'I' for Inactive)
REMARK    1  A    between atoms: O1_1  and  C1_2 
REMARK    2  A    between atoms: C2_3  and  C3_4 
REMARK    3  A    between atoms: C5_8  and  C6_9 
REMARK    4  A    between atoms: C6_9  and  N3_10 
REMARK    5  A    between atoms: N3_10  and  C7_11 
ROOT
HETATM    1  C1  UNL     1      25.537   4.194  50.400  1.00  0.00     0.135 A 
HETATM    2  C2  UNL     1      25.704   2.886  50.791  1.00  0.00     0.096 A 
HETATM    3  C3  UNL     1      24.837   2.056  51.402  1.00  0.00     0.080 A 
HETATM    4  N1  UNL     1      23.665   2.220  50.528  1.00  0.00    -0.225 NA
HETATM    5  C4  UNL     1      22.524   1.639  50.672  1.00  0.00     0.182 A 
HETATM    6  N2  UNL     1      22.134   0.774  51.607  1.00  0.00    -0.223 NA
HETATM    7  C5  UNL     1      23.065   0.447  52.566  1.00  0.00     0.061 A 
HETATM    8  C13 UNL     1      23.979   1.250  52.002  1.00  0.00    -0.006 A 
HETATM    9  C14 UNL     1      24.154   2.560  51.485  1.00  0.00     0.143 A 
HETATM   10  C15 UNL     1      24.348   3.844  50.971  1.00  0.00     0.125 A 
HETATM   11  O2  UNL     1      23.412   4.927  50.928  1.00  0.00    -0.369 OA
HETATM   12  C16 UNL     1      22.617   5.096  49.762  1.00  0.00     0.126 C 
HETATM   13  C17 UNL     1      21.218   4.702  50.084  1.00  0.00     0.052 C 
HETATM   14  C18 UNL     1      21.033   3.213  49.973  1.00  0.00     0.128 C 
HETATM   15  N4  UNL     1      22.233   2.492  49.609  1.00  0.00    -0.356 N 
HETATM   16  C19 UNL     1      22.639   2.999  48.333  1.00  0.00     0.128 C 
HETATM   17  C20 UNL     1      23.089   4.438  48.529  1.00  0.00     0.052 C 
ENDROOT
BRANCH   7  18
HETATM   18  C6  UNL     1      23.892  -0.036  53.682  1.00  0.00     0.179 C 
BRANCH  18  19
HETATM   19  N3  UNL     1      25.011  -0.855  53.267  1.00  0.00    -0.384 N 
HETATM   20  H5  UNL     1      24.621  -1.700  52.768  1.00  0.00     0.160 HD
BRANCH  19  21
HETATM   21  C7  UNL     1      26.452  -0.792  53.384  1.00  0.00     0.030 A 
HETATM   22  C8  UNL     1      27.203  -1.858  52.915  1.00  0.00     0.032 A 
HETATM   23  C9  UNL     1      28.573  -1.713  53.013  1.00  0.00     0.046 A 
HETATM   24  C10 UNL     1      29.194  -0.604  53.532  1.00  0.00     0.138 A 
HETATM   25  F1  UNL     1      30.518  -0.674  53.530  1.00  0.00    -0.204 F 
HETATM   26  C11 UNL     1      28.412   0.426  53.983  1.00  0.00     0.074 A 
HETATM   27 CL1  UNL     1      29.303   1.806  54.626  1.00  0.00    -0.081 Cl
HETATM   28  C12 UNL     1      27.051   0.331  53.910  1.00  0.00     0.056 A 
ENDBRANCH  19  21
ENDBRANCH  18  19
ENDBRANCH   7  18
BRANCH   1  29
HETATM   29  O1  UNL     1      26.741   4.558  49.819  1.00  0.00    -0.383 OA
HETATM   30  H1  UNL     1      27.163   5.434  50.123  1.00  0.00     0.210 HD
ENDBRANCH   1  29
TORSDOF 5
ENDMDL
MODEL 3
REMARK VINA RESULT:      -8.8      6.147      8.825
REMARK  5 active torsions:
REMARK  status: ('A' for Active; 'I' for Inactive)
REMARK    1  A    between atoms: O1_1  and  C1_2 
REMARK    2  A    between atoms: C2_3  and  C3_4 
REMARK    3  A    between atoms: C5_8  and  C6_9 
REMARK    4  A    between atoms: C6_9  and  N3_10 
REMARK    5  A    between atoms: N3_10  and  C7_11 
ROOT
HETATM    1  C1  UNL     1      31.807   6.031  47.887  1.00  0.00     0.135 A 
HETATM    2  C2  UNL     1      30.764   5.194  47.569  1.00  0.00     0.096 A 
HETATM    3  C3  UNL     1      29.491   5.204  48.008  1.00  0.00     0.080 A 
HETATM    4  N1  UNL     1      29.150   6.616  47.771  1.00  0.00    -0.225 NA
HETATM    5  C4  UNL     1      28.020   7.178  48.032  1.00  0.00     0.182 A 
HETATM    6  N2  UNL     1      26.918   6.643  48.555  1.00  0.00    -0.223 NA
HETATM    7  C5  UNL     1      26.975   5.306  48.873  1.00  0.00     0.061 A 
HETATM    8  C13 UNL     1      28.243   5.224  48.445  1.00  0.00    -0.006 A 
HETATM    9  C14 UNL     1      29.503   5.871  48.540  1.00  0.00     0.143 A 
HETATM   10  C15 UNL     1      30.751   6.492  48.619  1.00  0.00     0.125 A 
HETATM   11  O2  UNL     1      31.118   7.640  49.394  1.00  0.00    -0.369 OA
HETATM   12  C16 UNL     1      31.049   8.923  48.787  1.00  0.00     0.126 C 
HETATM   13  C17 UNL     1      29.891   9.657  49.367  1.00  0.00     0.052 C 
HETATM   14  C18 UNL     1      28.607   9.281  48.678  1.00  0.00     0.128 C 
HETATM   15  N4  UNL     1      28.762   8.289  47.637  1.00  0.00    -0.356 N 
HETATM   16  C19 UNL     1      29.652   8.854  46.669  1.00  0.00     0.128 C 
HETATM   17  C20 UNL     1      31.025   8.966  47.312  1.00  0.00     0.052 C 
ENDROOT
BRANCH   7  18
HETATM   18  C6  UNL     1      26.819   3.904  49.288  1.00  0.00     0.179 C 
BRANCH  18  19
HETATM   19  N3  UNL     1      26.433   3.746  50.674  1.00  0.00    -0.384 N 
HETATM   20  H5  UNL     1      26.623   4.661  51.166  1.00  0.00     0.160 HD
BRANCH  19  21
HETATM   21  C7  UNL     1      25.892   2.683  51.493  1.00  0.00     0.030 A 
HETATM   22  C8  UNL     1      24.714   2.913  52.187  1.00  0.00     0.032 A 
HETATM   23  C9  UNL     1      24.228   1.842  52.911  1.00  0.00     0.046 A 
HETATM   24  C10 UNL     1      24.835   0.613  52.968  1.00  0.00     0.138 A 
HETATM   25  F1  UNL     1      24.197  -0.272  53.721  1.00  0.00    -0.204 F 
HETATM   26  C11 UNL     1      25.997   0.430  52.266  1.00  0.00     0.074 A 
HETATM   27 CL1  UNL     1      26.697  -1.184  52.399  1.00  0.00    -0.081 Cl
HETATM   28  C12 UNL     1      26.521   1.459  51.535  1.00  0.00     0.056 A 
ENDBRANCH  19  21
ENDBRANCH  18  19
ENDBRANCH   7  18
BRANCH   1  29
HETATM   29  O1  UNL     1      32.884   5.570  47.148  1.00  0.00    -0.383 OA
HETATM   30  H1  UNL     1      32.700   5.252  46.197  1.00  0.00     0.210 HD
ENDBRANCH   1  29
TORSDOF 5
ENDMDL
MODEL 4
REMARK VINA RESULT:      -8.8      2.275      3.558
REMARK  5 active torsions:
REMARK  status: ('A' for Active; 'I' for Inactive)
REMARK    1  A    between atoms: O1_1  and  C1_2 
REMARK    2  A    between atoms: C2_3  and  C3_4 
REMARK    3  A    between atoms: C5_8  and  C6_9 
REMARK    4  A    between atoms: C6_9  and  N3_10 
REMARK    5  A    between atoms: N3_10  and  C7_11 
ROOT
HETATM    1  C1  UNL     1      21.450   1.992  48.876  1.00  0.00     0.135 A 
HETATM    2  C2  UNL     1      21.365   1.374  50.102  1.00  0.00     0.096 A 
HETATM    3  C3  UNL     1      22.255   1.344  51.111  1.00  0.00     0.080 A 
HETATM    4  N1  UNL     1      22.542   2.781  51.243  1.00  0.00    -0.225 NA
HETATM    5  C4  UNL     1      23.361   3.318  52.082  1.00  0.00     0.182 A 
HETATM    6  N2  UNL     1      24.119   2.732  53.007  1.00  0.00    -0.223 NA
HETATM    7  C5  UNL     1      24.034   1.361  53.092  1.00  0.00     0.061 A 
HETATM    8  C13 UNL     1      23.137   1.321  52.096  1.00  0.00    -0.006 A 
HETATM    9  C14 UNL     1      22.892   1.811  50.787  1.00  0.00     0.143 A 
HETATM   10  C15 UNL     1      22.630   2.282  49.499  1.00  0.00     0.125 A 
HETATM   11  O2  UNL     1      23.464   3.104  48.674  1.00  0.00    -0.369 OA
HETATM   12  C16 UNL     1      23.284   4.514  48.712  1.00  0.00     0.126 C 
HETATM   13  C17 UNL     1      24.440   5.118  49.431  1.00  0.00     0.052 C 
HETATM   14  C18 UNL     1      24.240   5.069  50.921  1.00  0.00     0.128 C 
HETATM   15  N4  UNL     1      23.006   4.438  51.333  1.00  0.00    -0.356 N 
HETATM   16  C19 UNL     1      21.945   5.206  50.754  1.00  0.00     0.128 C 
HETATM   17  C20 UNL     1      22.002   5.011  49.247  1.00  0.00     0.052 C 
ENDROOT
BRANCH   7  18
HETATM   18  C6  UNL     1      24.103  -0.084  53.350  1.00  0.00     0.179 C 
BRANCH  18  19
HETATM   19  N3  UNL     1      25.283  -0.719  52.801  1.00  0.00    -0.384 N 
HETATM   20  H5  UNL     1      24.980  -1.293  51.969  1.00  0.00     0.160 HD
BRANCH  19  21
HETATM   21  C7  UNL     1      26.694  -0.756  53.121  1.00  0.00     0.030 A 
HETATM   22  C8  UNL     1      27.409  -1.910  52.837  1.00  0.00     0.032 A 
HETATM   23  C9  UNL     1      28.760  -1.861  53.123  1.00  0.00     0.046 A 
HETATM   24  C10 UNL     1      29.395  -0.765  53.651  1.00  0.00     0.138 A 
HETATM   25  F1  UNL     1      30.696  -0.934  53.846  1.00  0.00    -0.204 F 
HETATM   26  C11 UNL     1      28.649   0.353  53.915  1.00  0.00     0.074 A 
HETATM   27 CL1  UNL     1      29.557   1.708  54.588  1.00  0.00    -0.081 Cl
HETATM   28  C12 UNL     1      27.308   0.356  53.652  1.00  0.00     0.056 A 
ENDBRANCH  19  21
ENDBRANCH  18  19
ENDBRANCH   7  18
BRANCH   1  29
HETATM   29  O1  UNL     1      20.256   1.702  48.237  1.00  0.00    -0.383 OA
HETATM   30  H1  UNL     1      20.307   1.356  47.280  1.00  0.00     0.210 HD
ENDBRANCH   1  29
TORSDOF 5
ENDMDL
MODEL 5
REMARK VINA RESULT:      -8.7      3.317      5.134
REMARK  5 active torsions:
REMARK  status: ('A' for Active; 'I' for Inactive)
REMARK    1  A    between atoms: O1_1  and  C1_2 
REMARK    2  A    between atoms: C2_3  and  C3_4 
REMARK    3  A    between atoms: C5_8  and  C6_9 
REMARK    4  A    between atoms: C6_9  and  N3_10 
REMARK    5  A    between atoms: N3_10  and  C7_11 
ROOT
HETATM    1  C1  UNL     1      26.687   4.803  49.323  1.00  0.00     0.135 A 
HETATM    2  C2  UNL     1      26.006   3.610  49.260  1.00  0.00     0.096 A 
HETATM    3  C3  UNL     1      24.802   3.281  49.764  1.00  0.00     0.080 A 
HETATM    4  N1  UNL     1      23.995   4.398  49.249  1.00  0.00    -0.225 NA
HETATM    5  C4  UNL     1      22.735   4.581  49.452  1.00  0.00     0.182 A 
HETATM    6  N2  UNL     1      21.879   3.832  50.145  1.00  0.00    -0.223 NA
HETATM    7  C5  UNL     1      22.394   2.704  50.741  1.00  0.00     0.061 A 
HETATM    8  C13 UNL     1      23.618   2.968  50.263  1.00  0.00    -0.006 A 
HETATM    9  C14 UNL     1      24.572   4.013  50.138  1.00  0.00     0.143 A 
HETATM   10  C15 UNL     1      25.523   5.026  50.002  1.00  0.00     0.125 A 
HETATM   11  O2  UNL     1      25.453   6.372  50.485  1.00  0.00    -0.369 OA
HETATM   12  C16 UNL     1      24.951   7.382  49.620  1.00  0.00     0.126 C 
HETATM   13  C17 UNL     1      23.600   7.784  50.099  1.00  0.00     0.052 C 
HETATM   14  C18 UNL     1      22.541   6.846  49.589  1.00  0.00     0.128 C 
HETATM   15  N4  UNL     1      23.050   5.760  48.780  1.00  0.00    -0.356 N 
HETATM   16  C19 UNL     1      23.704   6.363  47.659  1.00  0.00     0.128 C 
HETATM   17  C20 UNL     1      24.940   7.082  48.176  1.00  0.00     0.052 C 
ENDROOT
BRANCH   7  18
HETATM   18  C6  UNL     1      22.729   1.465  51.459  1.00  0.00     0.179 C 
BRANCH  18  19
HETATM   19  N3  UNL     1      23.477   1.683  52.680  1.00  0.00    -0.384 N 
HETATM   20  H5  UNL     1      22.931   2.363  53.274  1.00  0.00     0.160 HD
BRANCH  19  21
HETATM   21  C7  UNL     1      24.732   1.220  53.232  1.00  0.00     0.030 A 
HETATM   22  C8  UNL     1      24.797  -0.066  53.747  1.00  0.00     0.032 A 
HETATM   23  C9  UNL     1      26.035  -0.461  54.215  1.00  0.00     0.046 A 
HETATM   24  C10 UNL     1      27.155   0.332  54.190  1.00  0.00     0.138 A 
HETATM   25  F1  UNL     1      28.239  -0.247  54.689  1.00  0.00    -0.204 F 
HETATM   26  C11 UNL     1      27.045   1.595  53.671  1.00  0.00     0.074 A 
HETATM   27 CL1  UNL     1      28.540   2.532  53.680  1.00  0.00    -0.081 Cl
HETATM   28  C12 UNL     1      25.842   2.035  53.197  1.00  0.00     0.056 A 
ENDBRANCH  19  21
ENDBRANCH  18  19
ENDBRANCH   7  18
BRANCH   1  29
HETATM   29  O1  UNL     1      27.870   4.587  48.636  1.00  0.00    -0.383 OA
HETATM   30  H1  UNL     1      27.949   3.726  48.097  1.00  0.00     0.210 HD
ENDBRANCH   1  29
TORSDOF 5
ENDMDL
MODEL 6
REMARK VINA RESULT:      -8.7      3.710      4.724
REMARK  5 active torsions:
REMARK  status: ('A' for Active; 'I' for Inactive)
REMARK    1  A    between atoms: O1_1  and  C1_2 
REMARK    2  A    between atoms: C2_3  and  C3_4 
REMARK    3  A    between atoms: C5_8  and  C6_9 
REMARK    4  A    between atoms: C6_9  and  N3_10 
REMARK    5  A    between atoms: N3_10  and  C7_11 
ROOT
HETATM    1  C1  UNL     1      24.111   1.110  52.417  1.00  0.00     0.135 A 
HETATM    2  C2  UNL     1      24.272   2.413  52.826  1.00  0.00     0.096 A 
HETATM    3  C3  UNL     1      23.716   3.539  52.342  1.00  0.00     0.080 A 
HETATM    4  N1  UNL     1      22.299   3.141  52.330  1.00  0.00    -0.225 NA
HETATM    5  C4  UNL     1      21.310   3.867  51.935  1.00  0.00     0.182 A 
HETATM    6  N2  UNL     1      21.319   5.113  51.464  1.00  0.00    -0.223 NA
HETATM    7  C5  UNL     1      22.547   5.726  51.372  1.00  0.00     0.061 A 
HETATM    8  C13 UNL     1      23.164   4.639  51.858  1.00  0.00    -0.006 A 
HETATM    9  C14 UNL     1      23.236   3.229  51.708  1.00  0.00     0.143 A 
HETATM   10  C15 UNL     1      23.321   1.842  51.578  1.00  0.00     0.125 A 
HETATM   11  O2  UNL     1      22.640   1.000  50.640  1.00  0.00    -0.369 OA
HETATM   12  C16 UNL     1      21.405   0.410  51.025  1.00  0.00     0.126 C 
HETATM   13  C17 UNL     1      20.307   1.091  50.286  1.00  0.00     0.052 C 
HETATM   14  C18 UNL     1      19.894   2.363  50.976  1.00  0.00     0.128 C 
HETATM   15  N4  UNL     1      20.652   2.662  52.171  1.00  0.00    -0.356 N 
HETATM   16  C19 UNL     1      20.441   1.567  53.068  1.00  0.00     0.128 C 
HETATM   17  C20 UNL     1      21.117   0.342  52.470  1.00  0.00     0.052 C 
ENDROOT
BRANCH   7  18
HETATM   18  C6  UNL     1      23.742   6.562  51.187  1.00  0.00     0.179 C 
BRANCH  18  19
HETATM   19  N3  UNL     1      24.369   6.404  49.891  1.00  0.00    -0.384 N 
HETATM   20  H5  UNL     1      23.648   6.638  49.156  1.00  0.00     0.160 HD
BRANCH  19  21
HETATM   21  C7  UNL     1      25.673   6.011  49.403  1.00  0.00     0.030 A 
HETATM   22  C8  UNL     1      26.053   4.683  49.517  1.00  0.00     0.032 A 
HETATM   23  C9  UNL     1      27.289   4.367  48.989  1.00  0.00     0.046 A 
HETATM   24  C10 UNL     1      28.120   5.273  48.380  1.00  0.00     0.138 A 
HETATM   25  F1  UNL     1      29.260   4.755  47.943  1.00  0.00    -0.204 F 
HETATM   26  C11 UNL     1      27.704   6.575  48.288  1.00  0.00     0.074 A 
HETATM   27 CL1  UNL     1      28.839   7.661  47.486  1.00  0.00    -0.081 Cl
HETATM   28  C12 UNL     1      26.490   6.941  48.797  1.00  0.00     0.056 A 
ENDBRANCH  19  21
ENDBRANCH  18  19
ENDBRANCH   7  18
BRANCH   1  29
HETATM   29  O1  UNL     1      24.911   0.360  53.264  1.00  0.00    -0.383 OA
HETATM   30  H1  UNL     1      24.579  -0.569  53.522  1.00  0.00     0.210 HD
ENDBRANCH   1  29
TORSDOF 5
ENDMDL
MODEL 7
REMARK VINA RESULT:      -8.4      3.701      7.005
REMARK  5 active torsions:
REMARK  status: ('A' for Active; 'I' for Inactive)
REMARK    1  A    between atoms: O1_1  and  C1_2 
REMARK    2  A    between atoms: C2_3  and  C3_4 
REMARK    3  A    between atoms: C5_8  and  C6_9 
REMARK    4  A    between atoms: C6_9  and  N3_10 
REMARK    5  A    between atoms: N3_10  and  C7_11 
ROOT
HETATM    1  C1  UNL     1      24.645   3.365  51.636  1.00  0.00     0.135 A 
HETATM    2  C2  UNL     1      23.475   3.197  52.337  1.00  0.00     0.096 A 
HETATM    3  C3  UNL     1      22.830   2.063  52.673  1.00  0.00     0.080 A 
HETATM    4  N1  UNL     1      23.940   1.305  53.272  1.00  0.00    -0.225 NA
HETATM    5  C4  UNL     1      23.869   0.115  53.761  1.00  0.00     0.182 A 
HETATM    6  N2  UNL     1      22.815  -0.695  53.849  1.00  0.00    -0.223 NA
HETATM    7  C5  UNL     1      21.628  -0.213  53.349  1.00  0.00     0.061 A 
HETATM    8  C13 UNL     1      22.206   0.944  52.996  1.00  0.00    -0.006 A 
HETATM    9  C14 UNL     1      23.343   1.473  52.330  1.00  0.00     0.143 A 
HETATM   10  C15 UNL     1      24.453   2.014  51.680  1.00  0.00     0.125 A 
HETATM   11  O2  UNL     1      25.516   1.316  51.020  1.00  0.00    -0.369 OA
HETATM   12  C16 UNL     1      26.693   1.010  51.756  1.00  0.00     0.126 C 
HETATM   13  C17 UNL     1      26.713  -0.454  52.024  1.00  0.00     0.052 C 
HETATM   14  C18 UNL     1      25.888  -0.798  53.233  1.00  0.00     0.128 C 
HETATM   15  N4  UNL     1      25.242   0.337  53.853  1.00  0.00    -0.356 N 
HETATM   16  C19 UNL     1      26.287   1.229  54.252  1.00  0.00     0.128 C 
HETATM   17  C20 UNL     1      26.931   1.783  52.990  1.00  0.00     0.052 C 
ENDROOT
BRANCH   7  18
HETATM   18  C6  UNL     1      20.270   0.095  52.875  1.00  0.00     0.179 C 
BRANCH  18  19
HETATM   19  N3  UNL     1      20.107  -0.043  51.443  1.00  0.00    -0.384 N 
HETATM   20  H5  UNL     1      19.989  -1.070  51.232  1.00  0.00     0.160 HD
BRANCH  19  21
HETATM   21  C7  UNL     1      20.082   0.849  50.304  1.00  0.00     0.030 A 
HETATM   22  C8  UNL     1      18.945   1.610  50.081  1.00  0.00     0.032 A 
HETATM   23  C9  UNL     1      19.006   2.475  49.005  1.00  0.00     0.046 A 
HETATM   24  C10 UNL     1      20.098   2.606  48.185  1.00  0.00     0.138 A 
HETATM   25  F1  UNL     1      19.942   3.495  47.213  1.00  0.00    -0.204 F 
HETATM   26  C11 UNL     1      21.200   1.834  48.443  1.00  0.00     0.074 A 
HETATM   27 CL1  UNL     1      22.552   2.079  47.336  1.00  0.00    -0.081 Cl
HETATM   28  C12 UNL     1      21.191   0.962  49.494  1.00  0.00     0.056 A 
ENDBRANCH  19  21
ENDBRANCH  18  19
ENDBRANCH   7  18
BRANCH   1  29
HETATM   29  O1  UNL     1      24.848   4.735  51.585  1.00  0.00    -0.383 OA
HETATM   30  H1  UNL     1      24.125   5.300  51.143  1.00  0.00     0.210 HD
ENDBRANCH   1  29
TORSDOF 5
ENDMDL
MODEL 8
REMARK VINA RESULT:      -8.3      3.355      5.514
REMARK  5 active torsions:
REMARK  status: ('A' for Active; 'I' for Inactive)
REMARK    1  A    between atoms: O1_1  and  C1_2 
REMARK    2  A    between atoms: C2_3  and  C3_4 
REMARK    3  A    between atoms: C5_8  and  C6_9 
REMARK    4  A    between atoms: C6_9  and  N3_10 
REMARK    5  A    between atoms: N3_10  and  C7_11 
ROOT
HETATM    1  C1  UNL     1      26.230   4.619  49.834  1.00  0.00     0.135 A 
HETATM    2  C2  UNL     1      25.549   3.548  49.306  1.00  0.00     0.096 A 
HETATM    3  C3  UNL     1      24.233   3.265  49.342  1.00  0.00     0.080 A 
HETATM    4  N1  UNL     1      23.682   4.547  48.875  1.00  0.00    -0.225 NA
HETATM    5  C4  UNL     1      22.433   4.828  48.730  1.00  0.00     0.182 A 
HETATM    6  N2  UNL     1      21.368   4.059  48.952  1.00  0.00    -0.223 NA
HETATM    7  C5  UNL     1      21.615   2.784  49.405  1.00  0.00     0.061 A 
HETATM    8  C13 UNL     1      22.939   2.997  49.384  1.00  0.00    -0.006 A 
HETATM    9  C14 UNL     1      23.932   3.930  49.785  1.00  0.00     0.143 A 
HETATM   10  C15 UNL     1      24.924   4.833  50.169  1.00  0.00     0.125 A 
HETATM   11  O2  UNL     1      24.768   6.056  50.899  1.00  0.00    -0.369 OA
HETATM   12  C16 UNL     1      24.612   7.269  50.174  1.00  0.00     0.126 C 
HETATM   13  C17 UNL     1      23.200   7.719  50.307  1.00  0.00     0.052 C 
HETATM   14  C18 UNL     1      22.312   7.028  49.308  1.00  0.00     0.128 C 
HETATM   15  N4  UNL     1      22.998   6.074  48.465  1.00  0.00    -0.356 N 
HETATM   16  C19 UNL     1      23.999   6.809  47.754  1.00  0.00     0.128 C 
HETATM   17  C20 UNL     1      25.043   7.265  48.762  1.00  0.00     0.052 C 
ENDROOT
BRANCH   7  18
HETATM   18  C6  UNL     1      21.649   1.397  49.893  1.00  0.00     0.179 C 
BRANCH  18  19
HETATM   19  N3  UNL     1      21.721   1.288  51.335  1.00  0.00    -0.384 N 
HETATM   20  H5  UNL     1      20.890   1.800  51.737  1.00  0.00     0.160 HD
BRANCH  19  21
HETATM   21  C7  UNL     1      22.623   0.686  52.293  1.00  0.00     0.030 A 
HETATM   22  C8  UNL     1      22.113  -0.232  53.199  1.00  0.00     0.032 A 
HETATM   23  C9  UNL     1      23.036  -0.804  54.053  1.00  0.00     0.046 A 
HETATM   24  C10 UNL     1      24.377  -0.515  54.042  1.00  0.00     0.138 A 
HETATM   25  F1  UNL     1      25.082  -1.179  54.947  1.00  0.00    -0.204 F 
HETATM   26  C11 UNL     1      24.837   0.398  53.129  1.00  0.00     0.074 A 
HETATM   27 CL1  UNL     1      26.574   0.697  53.192  1.00  0.00    -0.081 Cl
HETATM   28  C12 UNL     1      23.965   0.994  52.263  1.00  0.00     0.056 A 
ENDBRANCH  19  21
ENDBRANCH  18  19
ENDBRANCH   7  18
BRANCH   1  29
HETATM   29  O1  UNL     1      27.558   4.410  49.499  1.00  0.00    -0.383 OA
HETATM   30  H1  UNL     1      28.185   5.211  49.545  1.00  0.00     0.210 HD
ENDBRANCH   1  29
TORSDOF 5
ENDMDL
MODEL 9
REMARK VINA RESULT:      -8.3      5.116      6.436
REMARK  5 active torsions:
REMARK  status: ('A' for Active; 'I' for Inactive)
REMARK    1  A    between atoms: O1_1  and  C1_2 
REMARK    2  A    between atoms: C2_3  and  C3_4 
REMARK    3  A    between atoms: C5_8  and  C6_9 
REMARK    4  A    between atoms: C6_9  and  N3_10 
REMARK    5  A    between atoms: N3_10  and  C7_11 
ROOT
HETATM    1  C1  UNL     1      22.842   6.288  50.060  1.00  0.00     0.135 A 
HETATM    2  C2  UNL     1      23.725   6.237  49.007  1.00  0.00     0.096 A 
HETATM    3  C3  UNL     1      24.977   5.744  48.959  1.00  0.00     0.080 A 
HETATM    4  N1  UNL     1      24.751   4.414  49.547  1.00  0.00    -0.225 NA
HETATM    5  C4  UNL     1      25.648   3.511  49.748  1.00  0.00     0.182 A 
HETATM    6  N2  UNL     1      26.952   3.550  49.479  1.00  0.00    -0.223 NA
HETATM    7  C5  UNL     1      27.429   4.710  48.914  1.00  0.00     0.061 A 
HETATM    8  C13 UNL     1      26.205   5.258  48.924  1.00  0.00    -0.006 A 
HETATM    9  C14 UNL     1      25.079   5.472  49.762  1.00  0.00     0.143 A 
HETATM   10  C15 UNL     1      23.961   5.692  50.567  1.00  0.00     0.125 A 
HETATM   11  O2  UNL     1      23.784   5.344  51.945  1.00  0.00    -0.369 OA
HETATM   12  C16 UNL     1      23.175   4.099  52.263  1.00  0.00     0.126 C 
HETATM   13  C17 UNL     1      24.222   3.185  52.795  1.00  0.00     0.052 C 
HETATM   14  C18 UNL     1      24.975   2.512  51.680  1.00  0.00     0.128 C 
HETATM   15  N4  UNL     1      24.550   2.906  50.355  1.00  0.00    -0.356 N 
HETATM   16  C19 UNL     1      23.168   2.551  50.252  1.00  0.00     0.128 C 
HETATM   17  C20 UNL     1      22.387   3.449  51.199  1.00  0.00     0.052 C 
ENDROOT
BRANCH   7  18
HETATM   18  C6  UNL     1      28.146   5.846  48.317  1.00  0.00     0.179 C 
BRANCH  18  19
HETATM   19  N3  UNL     1      29.435   6.105  48.922  1.00  0.00    -0.384 N 
HETATM   20  H5  UNL     1      29.266   6.624  49.826  1.00  0.00     0.160 HD
BRANCH  19  21
HETATM   21  C7  UNL     1      30.818   5.844  48.587  1.00  0.00     0.030 A 
HETATM   22  C8  UNL     1      31.811   6.464  49.330  1.00  0.00     0.032 A 
HETATM   23  C9  UNL     1      33.108   6.135  48.989  1.00  0.00     0.046 A 
HETATM   24  C10 UNL     1      33.440   5.255  47.989  1.00  0.00     0.138 A 
HETATM   25  F1  UNL     1      34.745   5.083  47.830  1.00  0.00    -0.204 F 
HETATM   26  C11 UNL     1      32.427   4.665  47.281  1.00  0.00     0.074 A 
HETATM   27 CL1  UNL     1      32.956   3.549  46.021  1.00  0.00    -0.081 Cl
HETATM   28  C12 UNL     1      31.126   4.959  47.578  1.00  0.00     0.056 A 
ENDBRANCH  19  21
ENDBRANCH  18  19
ENDBRANCH   7  18
BRANCH   1  29
HETATM   29  O1  UNL     1      21.702   6.891  49.553  1.00  0.00    -0.383 OA
HETATM   30  H1  UNL     1      20.968   7.137  50.215  1.00  0.00     0.210 HD
ENDBRANCH   1  29
TORSDOF 5
ENDMDL
