MODEL 1
REMARK VINA RESULT:      -9.5      0.000      0.000
REMARK  5 active torsions:
REMARK  status: ('A' for Active; 'I' for Inactive)
REMARK    1  A    between atoms: C7_7  and  C8_8 
REMARK    2  A    between atoms: C8_8  and  N1_9 
REMARK    3  A    between atoms: N1_9  and  C9_10 
REMARK    4  A    between atoms: C11_12  and  N2_13 
REMARK    5  A    between atoms: N2_13  and  C12_14 
ROOT
HETATM    1  C9  UNL     1      27.194   2.122  52.077  1.00  0.00     0.027 C 
HETATM    2  C10 UNL     1      26.658   0.940  51.766  1.00  0.00     0.036 C 
HETATM    3  C11 UNL     1      26.634  -0.442  52.225  1.00  0.00     0.196 C 
HETATM    4  C21 UNL     1      27.824  -0.723  53.080  1.00  0.00     0.247 C 
HETATM    5  O1  UNL     1      27.932  -1.985  53.275  1.00  0.00    -0.271 OA
HETATM    6  N4  UNL     1      28.856   0.019  53.728  1.00  0.00    -0.335 N 
HETATM    7  C22 UNL     1      28.779   1.427  53.913  1.00  0.00     0.093 C 
HETATM    8  C23 UNL     1      28.080   2.310  53.219  1.00  0.00     0.046 C 
HETATM    9  H26 UNL     1      29.685  -0.482  54.074  1.00  0.00     0.168 HD
ENDROOT
BRANCH   3  10
HETATM   10  N2  UNL     1      25.438  -0.957  52.755  1.00  0.00    -0.398 N 
HETATM   11  H13 UNL     1      24.978  -1.709  52.212  1.00  0.00     0.155 HD
BRANCH  10  12
HETATM   12  C12 UNL     1      24.774  -0.381  53.828  1.00  0.00     0.028 C 
HETATM   13  C13 UNL     1      25.363  -0.374  55.175  1.00  0.00     0.038 C 
HETATM   14  C14 UNL     1      23.487  -1.288  53.928  1.00  0.00     0.057 C 
HETATM   15  C15 UNL     1      22.512  -0.797  54.871  1.00  0.00    -0.026 C 
HETATM   16  C16 UNL     1      21.292  -0.243  54.658  1.00  0.00     0.007 C 
HETATM   17  C17 UNL     1      20.347   0.170  53.628  1.00  0.00     0.282 A 
HETATM   18  C18 UNL     1      20.516   0.150  52.281  1.00  0.00     0.297 A 
HETATM   19  N3  UNL     1      21.730  -0.319  52.796  1.00  0.00     0.115 N 
HETATM   20  C19 UNL     1      22.671   0.665  52.949  1.00  0.00     0.260 C 
HETATM   21  C20 UNL     1      24.101   0.941  53.410  1.00  0.00     0.068 C 
ENDBRANCH  10  12
ENDBRANCH   3  10
BRANCH   1  22
HETATM   22  N1  UNL     1      26.868   3.227  51.237  1.00  0.00    -0.389 N 
HETATM   23  H10 UNL     1      26.828   4.138  51.762  1.00  0.00     0.159 HD
BRANCH  22  24
HETATM   24  C8  UNL     1      26.593   3.283  49.823  1.00  0.00     0.133 C 
BRANCH  24  25
HETATM   25  C7  UNL     1      25.241   3.896  49.518  1.00  0.00     0.058 A 
HETATM   26  C2  UNL     1      25.412   5.376  49.672  1.00  0.00    -0.058 A 
HETATM   27  C1  UNL     1      26.307   5.838  48.841  1.00  0.00     0.019 C 
HETATM   28  C3  UNL     1      24.718   6.251  50.595  1.00  0.00     0.007 A 
HETATM   29  C4  UNL     1      23.836   5.658  51.383  1.00  0.00     0.000 A 
HETATM   30  C5  UNL     1      23.539   4.232  51.373  1.00  0.00    -0.003 A 
HETATM   31  C6  UNL     1      24.209   3.492  50.507  1.00  0.00    -0.016 A 
ENDBRANCH  24  25
ENDBRANCH  22  24
ENDBRANCH   1  22
TORSDOF 5
ENDMDL
MODEL 2
REMARK VINA RESULT:      -9.3      2.092      6.372
REMARK  5 active torsions:
REMARK  status: ('A' for Active; 'I' for Inactive)
REMARK    1  A    between atoms: C7_7  and  C8_8 
REMARK    2  A    between atoms: C8_8  and  N1_9 
REMARK    3  A    between atoms: N1_9  and  C9_10 
REMARK    4  A    between atoms: C11_12  and  N2_13 
REMARK    5  A    between atoms: N2_13  and  C12_14 
ROOT
HETATM    1  C9  UNL     1      24.004  -0.507  53.967  1.00  0.00     0.027 C 
HETATM    2  C10 UNL     1      23.498   0.277  53.013  1.00  0.00     0.036 C 
HETATM    3  C11 UNL     1      22.218   0.752  52.508  1.00  0.00     0.196 C 
HETATM    4  C21 UNL     1      21.121  -0.165  52.934  1.00  0.00     0.247 C 
HETATM    5  O1  UNL     1      20.048   0.110  52.291  1.00  0.00    -0.271 OA
HETATM    6  N4  UNL     1      20.946  -1.246  53.849  1.00  0.00    -0.335 N 
HETATM    7  C22 UNL     1      21.885  -1.532  54.878  1.00  0.00     0.093 C 
HETATM    8  C23 UNL     1      23.171  -1.220  54.927  1.00  0.00     0.046 C 
HETATM    9  H26 UNL     1      20.111  -1.840  53.761  1.00  0.00     0.168 HD
ENDROOT
BRANCH   3  10
HETATM   10  N2  UNL     1      21.894   2.112  52.661  1.00  0.00    -0.398 N 
HETATM   11  H13 UNL     1      21.521   2.396  53.584  1.00  0.00     0.155 HD
BRANCH  10  12
HETATM   12  C12 UNL     1      21.868   3.010  51.604  1.00  0.00     0.028 C 
HETATM   13  C13 UNL     1      20.615   3.328  50.904  1.00  0.00     0.038 C 
HETATM   14  C14 UNL     1      22.777   2.277  50.544  1.00  0.00     0.057 C 
HETATM   15  C15 UNL     1      23.072   3.085  49.386  1.00  0.00    -0.026 C 
HETATM   16  C16 UNL     1      24.235   3.664  48.998  1.00  0.00     0.007 C 
HETATM   17  C17 UNL     1      25.633   3.864  49.361  1.00  0.00     0.282 A 
HETATM   18  C18 UNL     1      26.268   3.468  50.493  1.00  0.00     0.297 A 
HETATM   19  N3  UNL     1      24.943   3.053  50.668  1.00  0.00     0.115 N 
HETATM   20  C19 UNL     1      24.176   3.957  51.355  1.00  0.00     0.260 C 
HETATM   21  C20 UNL     1      22.773   4.223  51.894  1.00  0.00     0.068 C 
ENDBRANCH  10  12
ENDBRANCH   3  10
BRANCH   1  22
HETATM   22  N1  UNL     1      25.423  -0.634  54.021  1.00  0.00    -0.389 N 
HETATM   23  H10 UNL     1      25.849  -0.091  54.815  1.00  0.00     0.159 HD
BRANCH  22  24
HETATM   24  C8  UNL     1      26.334  -1.370  53.181  1.00  0.00     0.133 C 
BRANCH  24  25
HETATM   25  C7  UNL     1      27.407  -0.489  52.575  1.00  0.00     0.058 A 
HETATM   26  C2  UNL     1      28.675  -0.822  53.299  1.00  0.00    -0.058 A 
HETATM   27  C1  UNL     1      28.993  -2.080  53.144  1.00  0.00     0.019 C 
HETATM   28  C3  UNL     1      29.499   0.071  54.088  1.00  0.00     0.007 A 
HETATM   29  C4  UNL     1      29.067   1.319  54.166  1.00  0.00     0.000 A 
HETATM   30  C5  UNL     1      27.857   1.821  53.529  1.00  0.00    -0.003 A 
HETATM   31  C6  UNL     1      27.153   0.953  52.825  1.00  0.00    -0.016 A 
ENDBRANCH  24  25
ENDBRANCH  22  24
ENDBRANCH   1  22
TORSDOF 5
ENDMDL
MODEL 3
REMARK VINA RESULT:      -9.1      2.433      5.609
REMARK  5 active torsions:
REMARK  status: ('A' for Active; 'I' for Inactive)
REMARK    1  A    between atoms: C7_7  and  C8_8 
REMARK    2  A    between atoms: C8_8  and  N1_9 
REMARK    3  A    between atoms: N1_9  and  C9_10 
REMARK    4  A    between atoms: C11_12  and  N2_13 
REMARK    5  A    between atoms: N2_13  and  C12_14 
ROOT
HETATM    1  C9  UNL     1      25.874   2.697  50.831  1.00  0.00     0.027 C 
HETATM    2  C10 UNL     1      24.584   2.595  51.159  1.00  0.00     0.036 C 
HETATM    3  C11 UNL     1      23.289   3.168  50.825  1.00  0.00     0.196 C 
HETATM    4  C21 UNL     1      23.464   4.508  50.191  1.00  0.00     0.247 C 
HETATM    5  O1  UNL     1      22.335   5.110  50.127  1.00  0.00    -0.271 OA
HETATM    6  N4  UNL     1      24.529   5.286  49.647  1.00  0.00    -0.335 N 
HETATM    7  C22 UNL     1      25.796   4.724  49.329  1.00  0.00     0.093 C 
HETATM    8  C23 UNL     1      26.361   3.635  49.828  1.00  0.00     0.046 C 
HETATM    9  H26 UNL     1      24.375   6.289  49.478  1.00  0.00     0.168 HD
ENDROOT
BRANCH   3  10
HETATM   10  N2  UNL     1      22.344   2.363  50.164  1.00  0.00    -0.398 N 
HETATM   11  H13 UNL     1      22.444   2.282  49.137  1.00  0.00     0.155 HD
BRANCH  10  12
HETATM   12  C12 UNL     1      21.212   1.855  50.786  1.00  0.00     0.028 C 
HETATM   13  C13 UNL     1      19.880   2.418  50.524  1.00  0.00     0.038 C 
HETATM   14  C14 UNL     1      21.518   2.164  52.302  1.00  0.00     0.057 C 
HETATM   15  C15 UNL     1      20.566   1.574  53.210  1.00  0.00    -0.026 C 
HETATM   16  C16 UNL     1      20.711   0.544  54.080  1.00  0.00     0.007 C 
HETATM   17  C17 UNL     1      21.648  -0.454  54.583  1.00  0.00     0.282 A 
HETATM   18  C18 UNL     1      22.913  -0.703  54.158  1.00  0.00     0.297 A 
HETATM   19  N3  UNL     1      22.456   0.325  53.324  1.00  0.00     0.115 N 
HETATM   20  C19 UNL     1      21.919  -0.128  52.148  1.00  0.00     0.260 C 
HETATM   21  C20 UNL     1      21.263   0.315  50.842  1.00  0.00     0.068 C 
ENDBRANCH  10  12
ENDBRANCH   3  10
BRANCH   1  22
HETATM   22  N1  UNL     1      26.789   1.841  51.511  1.00  0.00    -0.389 N 
HETATM   23  H10 UNL     1      26.959   0.939  50.997  1.00  0.00     0.159 HD
BRANCH  22  24
HETATM   24  C8  UNL     1      27.494   2.018  52.756  1.00  0.00     0.133 C 
BRANCH  24  25
HETATM   25  C7  UNL     1      27.369   0.816  53.670  1.00  0.00     0.058 A 
HETATM   26  C2  UNL     1      28.770   0.382  53.978  1.00  0.00    -0.058 A 
HETATM   27  C1  UNL     1      29.438   1.330  54.579  1.00  0.00     0.019 C 
HETATM   28  C3  UNL     1      29.380  -0.898  53.683  1.00  0.00     0.007 A 
HETATM   29  C4  UNL     1      28.596  -1.771  53.072  1.00  0.00     0.000 A 
HETATM   30  C5  UNL     1      27.211  -1.524  52.695  1.00  0.00    -0.003 A 
HETATM   31  C6  UNL     1      26.718  -0.335  52.994  1.00  0.00    -0.016 A 
ENDBRANCH  24  25
ENDBRANCH  22  24
ENDBRANCH   1  22
TORSDOF 5
ENDMDL
MODEL 4
REMARK VINA RESULT:      -9.0      2.479      5.278
REMARK  5 active torsions:
REMARK  status: ('A' for Active; 'I' for Inactive)
REMARK    1  A    between atoms: C7_7  and  C8_8 
REMARK    2  A    between atoms: C8_8  and  N1_9 
REMARK    3  A    between atoms: N1_9  and  C9_10 
REMARK    4  A    between atoms: C11_12  and  N2_13 
REMARK    5  A    between atoms: N2_13  and  C12_14 
ROOT
HETATM    1  C9  UNL     1      26.093   2.537  52.557  1.00  0.00     0.027 C 
HETATM    2  C10 UNL     1      24.761   2.493  52.614  1.00  0.00     0.036 C 
HETATM    3  C11 UNL     1      23.596   2.487  51.740  1.00  0.00     0.196 C 
HETATM    4  C21 UNL     1      23.948   3.052  50.404  1.00  0.00     0.247 C 
HETATM    5  O1  UNL     1      22.882   3.275  49.731  1.00  0.00    -0.271 OA
HETATM    6  N4  UNL     1      25.130   3.405  49.687  1.00  0.00    -0.335 N 
HETATM    7  C22 UNL     1      26.424   2.973  50.093  1.00  0.00     0.093 C 
HETATM    8  C23 UNL     1      26.827   2.609  51.300  1.00  0.00     0.046 C 
HETATM    9  H26 UNL     1      25.044   3.992  48.848  1.00  0.00     0.168 HD
ENDROOT
BRANCH   3  10
HETATM   10  N2  UNL     1      22.818   1.318  51.658  1.00  0.00    -0.398 N 
HETATM   11  H13 UNL     1      23.050   0.662  50.893  1.00  0.00     0.155 HD
BRANCH  10  12
HETATM   12  C12 UNL     1      21.671   1.116  52.412  1.00  0.00     0.028 C 
HETATM   13  C13 UNL     1      21.718   0.408  53.699  1.00  0.00     0.038 C 
HETATM   14  C14 UNL     1      20.818   0.202  51.451  1.00  0.00     0.057 C 
HETATM   15  C15 UNL     1      19.473  -0.023  51.919  1.00  0.00    -0.026 C 
HETATM   16  C16 UNL     1      18.291   0.439  51.439  1.00  0.00     0.007 C 
HETATM   17  C17 UNL     1      17.680   1.278  50.414  1.00  0.00     0.282 A 
HETATM   18  C18 UNL     1      18.300   2.044  49.482  1.00  0.00     0.297 A 
HETATM   19  N3  UNL     1      19.344   1.479  50.224  1.00  0.00     0.115 N 
HETATM   20  C19 UNL     1      19.781   2.280  51.245  1.00  0.00     0.260 C 
HETATM   21  C20 UNL     1      20.778   2.373  52.398  1.00  0.00     0.068 C 
ENDBRANCH  10  12
ENDBRANCH   3  10
BRANCH   1  22
HETATM   22  N1  UNL     1      26.799   2.515  53.795  1.00  0.00    -0.389 N 
HETATM   23  H10 UNL     1      26.331   3.092  54.540  1.00  0.00     0.159 HD
BRANCH  22  24
HETATM   24  C8  UNL     1      28.019   1.845  54.170  1.00  0.00     0.133 C 
BRANCH  24  25
HETATM   25  C7  UNL     1      27.782   0.419  54.623  1.00  0.00     0.058 A 
HETATM   26  C2  UNL     1      28.388  -0.457  53.569  1.00  0.00    -0.058 A 
HETATM   27  C1  UNL     1      29.669  -0.236  53.448  1.00  0.00     0.019 C 
HETATM   28  C3  UNL     1      27.713  -1.443  52.749  1.00  0.00     0.007 A 
HETATM   29  C4  UNL     1      26.415  -1.570  52.970  1.00  0.00     0.000 A 
HETATM   30  C5  UNL     1      25.659  -0.803  53.952  1.00  0.00    -0.003 A 
HETATM   31  C6  UNL     1      26.337   0.078  54.666  1.00  0.00    -0.016 A 
ENDBRANCH  24  25
ENDBRANCH  22  24
ENDBRANCH   1  22
TORSDOF 5
ENDMDL
MODEL 5
REMARK VINA RESULT:      -8.7      1.587      2.323
REMARK  5 active torsions:
REMARK  status: ('A' for Active; 'I' for Inactive)
REMARK    1  A    between atoms: C7_7  and  C8_8 
REMARK    2  A    between atoms: C8_8  and  N1_9 
REMARK    3  A    between atoms: N1_9  and  C9_10 
REMARK    4  A    between atoms: C11_12  and  N2_13 
REMARK    5  A    between atoms: N2_13  and  C12_14 
ROOT
HETATM    1  C9  UNL     1      26.561   2.187  52.362  1.00  0.00     0.027 C 
HETATM    2  C10 UNL     1      25.503   1.374  52.316  1.00  0.00     0.036 C 
HETATM    3  C11 UNL     1      24.873   0.303  53.074  1.00  0.00     0.196 C 
HETATM    4  C21 UNL     1      25.863  -0.335  53.990  1.00  0.00     0.247 C 
HETATM    5  O1  UNL     1      25.379  -1.422  54.466  1.00  0.00    -0.271 OA
HETATM    6  N4  UNL     1      27.179  -0.068  54.471  1.00  0.00    -0.335 N 
HETATM    7  C22 UNL     1      27.795   1.207  54.333  1.00  0.00     0.093 C 
HETATM    8  C23 UNL     1      27.535   2.154  53.446  1.00  0.00     0.046 C 
HETATM    9  H26 UNL     1      27.701  -0.824  54.933  1.00  0.00     0.168 HD
ENDROOT
BRANCH   3  10
HETATM   10  N2  UNL     1      23.631   0.550  53.688  1.00  0.00    -0.398 N 
HETATM   11  H13 UNL     1      23.656   1.044  54.597  1.00  0.00     0.155 HD
BRANCH  10  12
HETATM   12  C12 UNL     1      22.439   0.004  53.235  1.00  0.00     0.028 C 
HETATM   13  C13 UNL     1      22.279  -1.448  53.072  1.00  0.00     0.038 C 
HETATM   14  C14 UNL     1      22.343   0.612  51.783  1.00  0.00     0.057 C 
HETATM   15  C15 UNL     1      21.084   0.343  51.132  1.00  0.00    -0.026 C 
HETATM   16  C16 UNL     1      20.060   1.179  50.830  1.00  0.00     0.007 C 
HETATM   17  C17 UNL     1      19.593   2.557  50.929  1.00  0.00     0.282 A 
HETATM   18  C18 UNL     1      20.192   3.601  51.556  1.00  0.00     0.297 A 
HETATM   19  N3  UNL     1      21.041   2.513  51.792  1.00  0.00     0.115 N 
HETATM   20  C19 UNL     1      20.793   1.878  52.980  1.00  0.00     0.260 C 
HETATM   21  C20 UNL     1      21.232   0.719  53.873  1.00  0.00     0.068 C 
ENDBRANCH  10  12
ENDBRANCH   3  10
BRANCH   1  22
HETATM   22  N1  UNL     1      26.718   3.113  51.289  1.00  0.00    -0.389 N 
HETATM   23  H10 UNL     1      27.001   4.071  51.619  1.00  0.00     0.159 HD
BRANCH  22  24
HETATM   24  C8  UNL     1      26.555   2.941  49.867  1.00  0.00     0.133 C 
BRANCH  24  25
HETATM   25  C7  UNL     1      25.498   3.859  49.290  1.00  0.00     0.058 A 
HETATM   26  C2  UNL     1      26.065   5.244  49.363  1.00  0.00    -0.058 A 
HETATM   27  C1  UNL     1      27.167   5.341  48.668  1.00  0.00     0.019 C 
HETATM   28  C3  UNL     1      25.527   6.379  50.085  1.00  0.00     0.007 A 
HETATM   29  C4  UNL     1      24.407   6.148  50.749  1.00  0.00     0.000 A 
HETATM   30  C5  UNL     1      23.714   4.866  50.792  1.00  0.00    -0.003 A 
HETATM   31  C6  UNL     1      24.260   3.874  50.111  1.00  0.00    -0.016 A 
ENDBRANCH  24  25
ENDBRANCH  22  24
ENDBRANCH   1  22
TORSDOF 5
ENDMDL
MODEL 6
REMARK VINA RESULT:      -8.7      2.475      5.414
REMARK  5 active torsions:
REMARK  status: ('A' for Active; 'I' for Inactive)
REMARK    1  A    between atoms: C7_7  and  C8_8 
REMARK    2  A    between atoms: C8_8  and  N1_9 
REMARK    3  A    between atoms: N1_9  and  C9_10 
REMARK    4  A    between atoms: C11_12  and  N2_13 
REMARK    5  A    between atoms: N2_13  and  C12_14 
ROOT
HETATM    1  C9  UNL     1      23.467   4.388  49.839  1.00  0.00     0.027 C 
HETATM    2  C10 UNL     1      23.420   3.582  50.901  1.00  0.00     0.036 C 
HETATM    3  C11 UNL     1      22.972   2.251  51.286  1.00  0.00     0.196 C 
HETATM    4  C21 UNL     1      21.942   1.755  50.327  1.00  0.00     0.247 C 
HETATM    5  O1  UNL     1      21.376   0.707  50.799  1.00  0.00    -0.271 OA
HETATM    6  N4  UNL     1      21.426   2.124  49.049  1.00  0.00    -0.335 N 
HETATM    7  C22 UNL     1      22.091   3.051  48.200  1.00  0.00     0.093 C 
HETATM    8  C23 UNL     1      22.949   4.002  48.533  1.00  0.00     0.046 C 
HETATM    9  H26 UNL     1      20.542   1.706  48.732  1.00  0.00     0.168 HD
ENDROOT
BRANCH   3  10
HETATM   10  N2  UNL     1      23.937   1.281  51.613  1.00  0.00    -0.398 N 
HETATM   11  H13 UNL     1      23.870   0.377  51.113  1.00  0.00     0.155 HD
BRANCH  10  12
HETATM   12  C12 UNL     1      24.816   1.414  52.677  1.00  0.00     0.028 C 
HETATM   13  C13 UNL     1      24.997   2.702  53.361  1.00  0.00     0.038 C 
HETATM   14  C14 UNL     1      26.199   1.096  51.988  1.00  0.00     0.057 C 
HETATM   15  C15 UNL     1      27.293   0.989  52.921  1.00  0.00    -0.026 C 
HETATM   16  C16 UNL     1      27.999  -0.099  53.320  1.00  0.00     0.007 C 
HETATM   17  C17 UNL     1      28.126  -1.543  53.168  1.00  0.00     0.282 A 
HETATM   18  C18 UNL     1      27.335  -2.383  52.452  1.00  0.00     0.297 A 
HETATM   19  N3  UNL     1      26.755  -1.120  52.283  1.00  0.00     0.115 N 
HETATM   20  C19 UNL     1      25.752  -0.858  53.178  1.00  0.00     0.260 C 
HETATM   21  C20 UNL     1      24.731   0.191  53.613  1.00  0.00     0.068 C 
ENDBRANCH  10  12
ENDBRANCH   3  10
BRANCH   1  22
HETATM   22  N1  UNL     1      24.051   5.675  50.024  1.00  0.00    -0.389 N 
HETATM   23  H10 UNL     1      23.340   6.413  50.262  1.00  0.00     0.159 HD
BRANCH  22  24
HETATM   24  C8  UNL     1      25.424   6.106  49.936  1.00  0.00     0.133 C 
BRANCH  24  25
HETATM   25  C7  UNL     1      26.011   5.897  48.555  1.00  0.00     0.058 A 
HETATM   26  C2  UNL     1      27.229   5.046  48.746  1.00  0.00    -0.058 A 
HETATM   27  C1  UNL     1      26.922   3.893  49.278  1.00  0.00     0.019 C 
HETATM   28  C3  UNL     1      28.598   5.381  48.414  1.00  0.00     0.007 A 
HETATM   29  C4  UNL     1      28.774   6.579  47.881  1.00  0.00     0.000 A 
HETATM   30  C5  UNL     1      27.709   7.539  47.622  1.00  0.00    -0.003 A 
HETATM   31  C6  UNL     1      26.484   7.168  47.950  1.00  0.00    -0.016 A 
ENDBRANCH  24  25
ENDBRANCH  22  24
ENDBRANCH   1  22
TORSDOF 5
ENDMDL
MODEL 7
REMARK VINA RESULT:      -8.6      2.343      5.301
REMARK  5 active torsions:
REMARK  status: ('A' for Active; 'I' for Inactive)
REMARK    1  A    between atoms: C7_7  and  C8_8 
REMARK    2  A    between atoms: C8_8  and  N1_9 
REMARK    3  A    between atoms: N1_9  and  C9_10 
REMARK    4  A    between atoms: C11_12  and  N2_13 
REMARK    5  A    between atoms: N2_13  and  C12_14 
ROOT
HETATM    1  C9  UNL     1      22.130   3.228  49.646  1.00  0.00     0.027 C 
HETATM    2  C10 UNL     1      22.689   2.836  50.792  1.00  0.00     0.036 C 
HETATM    3  C11 UNL     1      22.731   1.691  51.690  1.00  0.00     0.196 C 
HETATM    4  C21 UNL     1      21.536   0.822  51.478  1.00  0.00     0.247 C 
HETATM    5  O1  UNL     1      21.448  -0.036  52.424  1.00  0.00    -0.271 OA
HETATM    6  N4  UNL     1      20.485   0.691  50.523  1.00  0.00    -0.335 N 
HETATM    7  C22 UNL     1      20.536   1.314  49.245  1.00  0.00     0.093 C 
HETATM    8  C23 UNL     1      21.228   2.380  48.877  1.00  0.00     0.046 C 
HETATM    9  H26 UNL     1      19.661   0.127  50.767  1.00  0.00     0.168 HD
ENDROOT
BRANCH   3  10
HETATM   10  N2  UNL     1      23.930   0.964  51.802  1.00  0.00    -0.398 N 
HETATM   11  H13 UNL     1      23.998   0.095  51.244  1.00  0.00     0.155 HD
BRANCH  10  12
HETATM   12  C12 UNL     1      24.906   1.251  52.746  1.00  0.00     0.028 C 
HETATM   13  C13 UNL     1      25.103   2.618  53.248  1.00  0.00     0.038 C 
HETATM   14  C14 UNL     1      26.224   0.890  51.959  1.00  0.00     0.057 C 
HETATM   15  C15 UNL     1      27.410   0.929  52.779  1.00  0.00    -0.026 C 
HETATM   16  C16 UNL     1      28.195  -0.082  53.229  1.00  0.00     0.007 C 
HETATM   17  C17 UNL     1      28.365  -1.530  53.238  1.00  0.00     0.282 A 
HETATM   18  C18 UNL     1      27.540  -2.473  52.715  1.00  0.00     0.297 A 
HETATM   19  N3  UNL     1      26.895  -1.257  52.457  1.00  0.00     0.115 N 
HETATM   20  C19 UNL     1      25.978  -0.915  53.414  1.00  0.00     0.260 C 
HETATM   21  C20 UNL     1      24.965   0.152  53.825  1.00  0.00     0.068 C 
ENDBRANCH  10  12
ENDBRANCH   3  10
BRANCH   1  22
HETATM   22  N1  UNL     1      22.447   4.539  49.181  1.00  0.00    -0.389 N 
HETATM   23  H10 UNL     1      21.694   5.240  49.401  1.00  0.00     0.159 HD
BRANCH  22  24
HETATM   24  C8  UNL     1      23.604   5.033  48.479  1.00  0.00     0.133 C 
BRANCH  24  25
HETATM   25  C7  UNL     1      24.755   5.355  49.409  1.00  0.00     0.058 A 
HETATM   26  C2  UNL     1      25.612   6.345  48.682  1.00  0.00    -0.058 A 
HETATM   27  C1  UNL     1      24.947   7.434  48.403  1.00  0.00     0.019 C 
HETATM   28  C3  UNL     1      27.001   6.193  48.299  1.00  0.00     0.007 A 
HETATM   29  C4  UNL     1      27.560   5.043  48.640  1.00  0.00     0.000 A 
HETATM   30  C5  UNL     1      26.880   3.967  49.349  1.00  0.00    -0.003 A 
HETATM   31  C6  UNL     1      25.614   4.172  49.667  1.00  0.00    -0.016 A 
ENDBRANCH  24  25
ENDBRANCH  22  24
ENDBRANCH   1  22
TORSDOF 5
ENDMDL
MODEL 8
REMARK VINA RESULT:      -8.4      2.919      5.776
REMARK  5 active torsions:
REMARK  status: ('A' for Active; 'I' for Inactive)
REMARK    1  A    between atoms: C7_7  and  C8_8 
REMARK    2  A    between atoms: C8_8  and  N1_9 
REMARK    3  A    between atoms: N1_9  and  C9_10 
REMARK    4  A    between atoms: C11_12  and  N2_13 
REMARK    5  A    between atoms: N2_13  and  C12_14 
ROOT
HETATM    1  C9  UNL     1      23.434   5.794  50.182  1.00  0.00     0.027 C 
HETATM    2  C10 UNL     1      23.401   5.400  51.456  1.00  0.00     0.036 C 
HETATM    3  C11 UNL     1      22.661   4.512  52.341  1.00  0.00     0.196 C 
HETATM    4  C21 UNL     1      21.320   4.205  51.763  1.00  0.00     0.247 C 
HETATM    5  O1  UNL     1      20.586   3.635  52.645  1.00  0.00    -0.271 OA
HETATM    6  N4  UNL     1      20.646   4.372  50.517  1.00  0.00    -0.335 N 
HETATM    7  C22 UNL     1      21.336   4.692  49.315  1.00  0.00     0.093 C 
HETATM    8  C23 UNL     1      22.508   5.290  49.175  1.00  0.00     0.046 C 
HETATM    9  H26 UNL     1      19.624   4.256  50.487  1.00  0.00     0.168 HD
ENDROOT
BRANCH   3  10
HETATM   10  N2  UNL     1      23.313   3.378  52.858  1.00  0.00    -0.398 N 
HETATM   11  H13 UNL     1      23.500   3.377  53.877  1.00  0.00     0.155 HD
BRANCH  10  12
HETATM   12  C12 UNL     1      23.870   2.391  52.057  1.00  0.00     0.028 C 
HETATM   13  C13 UNL     1      23.187   1.918  50.845  1.00  0.00     0.038 C 
HETATM   14  C14 UNL     1      23.896   1.160  53.043  1.00  0.00     0.057 C 
HETATM   15  C15 UNL     1      24.602   0.019  52.515  1.00  0.00    -0.026 C 
HETATM   16  C16 UNL     1      25.794  -0.515  52.878  1.00  0.00     0.007 C 
HETATM   17  C17 UNL     1      26.928  -0.367  53.784  1.00  0.00     0.282 A 
HETATM   18  C18 UNL     1      27.159   0.626  54.680  1.00  0.00     0.297 A 
HETATM   19  N3  UNL     1      25.957   0.984  54.057  1.00  0.00     0.115 N 
HETATM   20  C19 UNL     1      26.127   1.834  52.996  1.00  0.00     0.260 C 
HETATM   21  C20 UNL     1      25.389   2.604  51.903  1.00  0.00     0.068 C 
ENDBRANCH  10  12
ENDBRANCH   3  10
BRANCH   1  22
HETATM   22  N1  UNL     1      24.427   6.752  49.821  1.00  0.00    -0.389 N 
HETATM   23  H10 UNL     1      24.015   7.679  49.543  1.00  0.00     0.159 HD
BRANCH  22  24
HETATM   24  C8  UNL     1      25.864   6.646  49.781  1.00  0.00     0.133 C 
BRANCH  24  25
HETATM   25  C7  UNL     1      26.383   6.313  48.397  1.00  0.00     0.058 A 
HETATM   26  C2  UNL     1      27.465   5.295  48.593  1.00  0.00    -0.058 A 
HETATM   27  C1  UNL     1      27.002   4.217  49.166  1.00  0.00     0.019 C 
HETATM   28  C3  UNL     1      28.862   5.413  48.227  1.00  0.00     0.007 A 
HETATM   29  C4  UNL     1      29.202   6.556  47.654  1.00  0.00     0.000 A 
HETATM   30  C5  UNL     1      28.287   7.656  47.385  1.00  0.00    -0.003 A 
HETATM   31  C6  UNL     1      27.028   7.482  47.746  1.00  0.00    -0.016 A 
ENDBRANCH  24  25
ENDBRANCH  22  24
ENDBRANCH   1  22
TORSDOF 5
ENDMDL
MODEL 9
REMARK VINA RESULT:      -8.3      2.690      6.072
REMARK  5 active torsions:
REMARK  status: ('A' for Active; 'I' for Inactive)
REMARK    1  A    between atoms: C7_7  and  C8_8 
REMARK    2  A    between atoms: C8_8  and  N1_9 
REMARK    3  A    between atoms: N1_9  and  C9_10 
REMARK    4  A    between atoms: C11_12  and  N2_13 
REMARK    5  A    between atoms: N2_13  and  C12_14 
ROOT
HETATM    1  C9  UNL     1      23.871  -0.328  53.899  1.00  0.00     0.027 C 
HETATM    2  C10 UNL     1      23.376   0.446  52.932  1.00  0.00     0.036 C 
HETATM    3  C11 UNL     1      22.101   0.884  52.382  1.00  0.00     0.196 C 
HETATM    4  C21 UNL     1      21.018  -0.071  52.762  1.00  0.00     0.247 C 
HETATM    5  O1  UNL     1      19.962   0.176  52.081  1.00  0.00    -0.271 OA
HETATM    6  N4  UNL     1      20.845  -1.163  53.662  1.00  0.00    -0.335 N 
HETATM    7  C22 UNL     1      21.754  -1.426  54.724  1.00  0.00     0.093 C 
HETATM    8  C23 UNL     1      23.026  -1.075  54.822  1.00  0.00     0.046 C 
HETATM    9  H26 UNL     1      20.033  -1.783  53.539  1.00  0.00     0.168 HD
ENDROOT
BRANCH   3  10
HETATM   10  N2  UNL     1      21.728   2.232  52.532  1.00  0.00    -0.398 N 
HETATM   11  H13 UNL     1      20.826   2.411  53.009  1.00  0.00     0.155 HD
BRANCH  10  12
HETATM   12  C12 UNL     1      22.397   3.278  51.914  1.00  0.00     0.028 C 
HETATM   13  C13 UNL     1      23.558   3.921  52.547  1.00  0.00     0.038 C 
HETATM   14  C14 UNL     1      21.273   4.383  51.856  1.00  0.00     0.057 C 
HETATM   15  C15 UNL     1      21.651   5.544  51.088  1.00  0.00    -0.026 C 
HETATM   16  C16 UNL     1      21.207   5.976  49.881  1.00  0.00     0.007 C 
HETATM   17  C17 UNL     1      20.306   5.670  48.776  1.00  0.00     0.282 A 
HETATM   18  C18 UNL     1      19.529   4.570  48.610  1.00  0.00     0.297 A 
HETATM   19  N3  UNL     1      20.211   4.343  49.812  1.00  0.00     0.115 N 
HETATM   20  C19 UNL     1      21.360   3.615  49.656  1.00  0.00     0.260 C 
HETATM   21  C20 UNL     1      22.549   3.014  50.403  1.00  0.00     0.068 C 
ENDBRANCH  10  12
ENDBRANCH   3  10
BRANCH   1  22
HETATM   22  N1  UNL     1      25.291  -0.411  54.005  1.00  0.00    -0.389 N 
HETATM   23  H10 UNL     1      25.687   0.282  54.691  1.00  0.00     0.159 HD
BRANCH  22  24
HETATM   24  C8  UNL     1      26.235  -1.270  53.337  1.00  0.00     0.133 C 
BRANCH  24  25
HETATM   25  C7  UNL     1      27.216  -0.499  52.478  1.00  0.00     0.058 A 
HETATM   26  C2  UNL     1      28.047   0.313  53.424  1.00  0.00    -0.058 A 
HETATM   27  C1  UNL     1      28.695  -0.452  54.261  1.00  0.00     0.019 C 
HETATM   28  C3  UNL     1      28.170   1.755  53.471  1.00  0.00     0.007 A 
HETATM   29  C4  UNL     1      27.462   2.414  52.568  1.00  0.00     0.000 A 
HETATM   30  C5  UNL     1      26.601   1.792  51.572  1.00  0.00    -0.003 A 
HETATM   31  C6  UNL     1      26.534   0.472  51.586  1.00  0.00    -0.016 A 
ENDBRANCH  24  25
ENDBRANCH  22  24
ENDBRANCH   1  22
TORSDOF 5
ENDMDL
