MODEL 1
REMARK VINA RESULT:      -6.9      0.000      0.000
REMARK  5 active torsions:
REMARK  status: ('A' for Active; 'I' for Inactive)
REMARK    1  A    between atoms: O1_2  and  C2_3 
REMARK    2  A    between atoms: C2_3  and  C3_4 
REMARK    3  A    between atoms: C6_8  and  S1_10 
REMARK    4  A    between atoms: S1_10  and  N2_11 
REMARK    5  A    between atoms: N2_11  and  C7_12 
ROOT
HETATM    1  C3  UNL     1      26.039   4.820  49.136  1.00  0.00    -0.033 C 
HETATM    2  C4  UNL     1      24.773   5.233  48.999  1.00  0.00     0.028 C 
HETATM    3  C5  UNL     1      23.551   4.565  49.458  1.00  0.00     0.116 C 
HETATM    4  N1  UNL     1      23.448   3.675  50.394  1.00  0.00    -0.244 NA
HETATM    5  C6  UNL     1      24.390   3.053  51.266  1.00  0.00     0.282 C 
HETATM    6  F1  UNL     1      24.501   3.742  52.457  1.00  0.00    -0.198 F 
HETATM    7  C13 UNL     1      25.733   2.880  50.678  1.00  0.00     0.055 C 
HETATM    8  C14 UNL     1      26.465   3.572  49.797  1.00  0.00     0.011 C 
ENDROOT
BRANCH   5   9
HETATM    9  S1  UNL     1      23.718   1.400  51.689  1.00  0.00     0.018 SA
BRANCH   9  10
HETATM   10  N2  UNL     1      24.333   0.896  53.277  1.00  0.00    -0.326 N 
HETATM   11  H8  UNL     1      23.833   0.936  54.192  1.00  0.00     0.174 HD
BRANCH  10  12
HETATM   12  C7  UNL     1      25.658   0.380  53.301  1.00  0.00     0.039 A 
HETATM   13  C8  UNL     1      25.978  -0.880  52.838  1.00  0.00     0.030 A 
HETATM   14  C9  UNL     1      27.223  -1.466  52.820  1.00  0.00     0.004 A 
HETATM   15  C10 UNL     1      28.275  -0.708  53.324  1.00  0.00     0.024 A 
HETATM   16  C11 UNL     1      28.028   0.557  53.803  1.00  0.00     0.036 A 
HETATM   17 CL1  UNL     1      29.331   1.548  54.449  1.00  0.00    -0.084 Cl
HETATM   18  C12 UNL     1      26.746   1.086  53.790  1.00  0.00     0.053 A 
ENDBRANCH  10  12
ENDBRANCH   9  10
ENDBRANCH   5   9
BRANCH   1  19
HETATM   19  C2  UNL     1      27.174   5.625  48.608  1.00  0.00     0.205 C 
BRANCH  19  20
HETATM   20  O1  UNL     1      28.310   4.788  48.584  1.00  0.00    -0.391 OA
HETATM   21  C1  UNL     1      29.416   5.580  48.204  1.00  0.00     0.201 C 
ENDBRANCH  19  20
ENDBRANCH   1  19
TORSDOF 5
ENDMDL
MODEL 2
REMARK VINA RESULT:      -6.9      4.412      6.163
REMARK  5 active torsions:
REMARK  status: ('A' for Active; 'I' for Inactive)
REMARK    1  A    between atoms: O1_2  and  C2_3 
REMARK    2  A    between atoms: C2_3  and  C3_4 
REMARK    3  A    between atoms: C6_8  and  S1_10 
REMARK    4  A    between atoms: S1_10  and  N2_11 
REMARK    5  A    between atoms: N2_11  and  C7_12 
ROOT
HETATM    1  C3  UNL     1      20.631   0.391  53.222  1.00  0.00    -0.033 C 
HETATM    2  C4  UNL     1      20.187   1.477  52.578  1.00  0.00     0.028 C 
HETATM    3  C5  UNL     1      20.921   2.710  52.276  1.00  0.00     0.116 C 
HETATM    4  N1  UNL     1      22.207   2.864  52.215  1.00  0.00    -0.244 NA
HETATM    5  C6  UNL     1      23.310   1.980  52.400  1.00  0.00     0.282 C 
HETATM    6  F1  UNL     1      23.703   1.412  51.204  1.00  0.00    -0.198 F 
HETATM    7  C13 UNL     1      23.068   0.909  53.388  1.00  0.00     0.055 C 
HETATM    8  C14 UNL     1      21.989   0.217  53.772  1.00  0.00     0.011 C 
ENDROOT
BRANCH   5   9
HETATM    9  S1  UNL     1      24.723   2.999  52.974  1.00  0.00     0.018 SA
BRANCH   9  10
HETATM   10  N2  UNL     1      26.161   2.624  52.002  1.00  0.00    -0.326 N 
HETATM   11  H8  UNL     1      26.452   3.067  51.104  1.00  0.00     0.174 HD
BRANCH  10  12
HETATM   12  C7  UNL     1      27.012   1.603  52.510  1.00  0.00     0.039 A 
HETATM   13  C8  UNL     1      28.159   1.873  53.226  1.00  0.00     0.030 A 
HETATM   14  C9  UNL     1      29.043   0.960  53.754  1.00  0.00     0.004 A 
HETATM   15  C10 UNL     1      28.750  -0.383  53.543  1.00  0.00     0.024 A 
HETATM   16  C11 UNL     1      27.621  -0.726  52.837  1.00  0.00     0.036 A 
HETATM   17 CL1  UNL     1      27.214  -2.414  52.549  1.00  0.00    -0.084 Cl
HETATM   18  C12 UNL     1      26.773   0.249  52.333  1.00  0.00     0.053 A 
ENDBRANCH  10  12
ENDBRANCH   9  10
ENDBRANCH   5   9
BRANCH   1  19
HETATM   19  C2  UNL     1      19.749  -0.786  53.447  1.00  0.00     0.205 C 
BRANCH  19  20
HETATM   20  O1  UNL     1      18.545  -0.552  52.750  1.00  0.00    -0.391 OA
HETATM   21  C1  UNL     1      17.556  -1.390  53.312  1.00  0.00     0.201 C 
ENDBRANCH  19  20
ENDBRANCH   1  19
TORSDOF 5
ENDMDL
MODEL 3
REMARK VINA RESULT:      -6.7      4.887      6.622
REMARK  5 active torsions:
REMARK  status: ('A' for Active; 'I' for Inactive)
REMARK    1  A    between atoms: O1_2  and  C2_3 
REMARK    2  A    between atoms: C2_3  and  C3_4 
REMARK    3  A    between atoms: C6_8  and  S1_10 
REMARK    4  A    between atoms: S1_10  and  N2_11 
REMARK    5  A    between atoms: N2_11  and  C7_12 
ROOT
HETATM    1  C3  UNL     1      26.562   0.296  52.603  1.00  0.00    -0.033 C 
HETATM    2  C4  UNL     1      26.967   1.269  51.778  1.00  0.00     0.028 C 
HETATM    3  C5  UNL     1      26.151   2.305  51.136  1.00  0.00     0.116 C 
HETATM    4  N1  UNL     1      24.987   2.733  51.512  1.00  0.00    -0.244 NA
HETATM    5  C6  UNL     1      24.121   2.399  52.594  1.00  0.00     0.282 C 
HETATM    6  F1  UNL     1      24.351   3.210  53.688  1.00  0.00    -0.198 F 
HETATM    7  C13 UNL     1      24.197   0.985  53.014  1.00  0.00     0.055 C 
HETATM    8  C14 UNL     1      25.171   0.068  53.040  1.00  0.00     0.011 C 
ENDROOT
BRANCH   5   9
HETATM    9  S1  UNL     1      22.409   2.755  52.041  1.00  0.00     0.018 SA
BRANCH   9  10
HETATM   10  N2  UNL     1      21.799   1.394  51.078  1.00  0.00    -0.326 N 
HETATM   11  H8  UNL     1      22.169   1.046  50.166  1.00  0.00     0.174 HD
BRANCH  10  12
HETATM   12  C7  UNL     1      20.679   0.699  51.613  1.00  0.00     0.039 A 
HETATM   13  C8  UNL     1      20.679   0.140  52.874  1.00  0.00     0.030 A 
HETATM   14  C9  UNL     1      19.651  -0.549  53.476  1.00  0.00     0.004 A 
HETATM   15  C10 UNL     1      18.484  -0.699  52.735  1.00  0.00     0.024 A 
HETATM   16  C11 UNL     1      18.414  -0.167  51.468  1.00  0.00     0.036 A 
HETATM   17 CL1  UNL     1      16.955  -0.334  50.498  1.00  0.00    -0.084 Cl
HETATM   18  C12 UNL     1      19.490   0.517  50.923  1.00  0.00     0.053 A 
ENDBRANCH  10  12
ENDBRANCH   9  10
ENDBRANCH   5   9
BRANCH   1  19
HETATM   19  C2  UNL     1      27.527  -0.683  53.173  1.00  0.00     0.205 C 
BRANCH  19  20
HETATM   20  O1  UNL     1      27.549  -0.489  54.570  1.00  0.00    -0.391 OA
HETATM   21  C1  UNL     1      28.695   0.278  54.877  1.00  0.00     0.201 C 
ENDBRANCH  19  20
ENDBRANCH   1  19
TORSDOF 5
ENDMDL
MODEL 4
REMARK VINA RESULT:      -6.7      4.225      6.247
REMARK  5 active torsions:
REMARK  status: ('A' for Active; 'I' for Inactive)
REMARK    1  A    between atoms: O1_2  and  C2_3 
REMARK    2  A    between atoms: C2_3  and  C3_4 
REMARK    3  A    between atoms: C6_8  and  S1_10 
REMARK    4  A    between atoms: S1_10  and  N2_11 
REMARK    5  A    between atoms: N2_11  and  C7_12 
ROOT
HETATM    1  C3  UNL     1      20.784  -0.297  53.010  1.00  0.00    -0.033 C 
HETATM    2  C4  UNL     1      21.620  -0.729  53.961  1.00  0.00     0.028 C 
HETATM    3  C5  UNL     1      23.075  -0.558  54.030  1.00  0.00     0.116 C 
HETATM    4  N1  UNL     1      23.789   0.340  53.427  1.00  0.00    -0.244 NA
HETATM    5  C6  UNL     1      23.474   1.414  52.543  1.00  0.00     0.282 C 
HETATM    6  F1  UNL     1      23.268   2.590  53.237  1.00  0.00    -0.198 F 
HETATM    7  C13 UNL     1      22.311   1.156  51.670  1.00  0.00     0.055 C 
HETATM    8  C14 UNL     1      21.176   0.461  51.805  1.00  0.00     0.011 C 
ENDROOT
BRANCH   5   9
HETATM    9  S1  UNL     1      24.949   1.690  51.489  1.00  0.00     0.018 SA
BRANCH   9  10
HETATM   10  N2  UNL     1      26.238   2.440  52.452  1.00  0.00    -0.326 N 
HETATM   11  H8  UNL     1      26.335   3.447  52.707  1.00  0.00     0.174 HD
BRANCH  10  12
HETATM   12  C7  UNL     1      27.252   1.566  52.932  1.00  0.00     0.039 A 
HETATM   13  C8  UNL     1      28.344   2.008  53.649  1.00  0.00     0.030 A 
HETATM   14  C9  UNL     1      29.373   1.245  54.151  1.00  0.00     0.004 A 
HETATM   15  C10 UNL     1      29.307  -0.124  53.911  1.00  0.00     0.024 A 
HETATM   16  C11 UNL     1      28.246  -0.635  53.201  1.00  0.00     0.036 A 
HETATM   17 CL1  UNL     1      28.125  -2.360  52.876  1.00  0.00    -0.084 Cl
HETATM   18  C12 UNL     1      27.242   0.195  52.724  1.00  0.00     0.053 A 
ENDBRANCH  10  12
ENDBRANCH   9  10
ENDBRANCH   5   9
BRANCH   1  19
HETATM   19  C2  UNL     1      19.321  -0.556  53.092  1.00  0.00     0.205 C 
BRANCH  19  20
HETATM   20  O1  UNL     1      18.778  -0.326  51.810  1.00  0.00    -0.391 OA
HETATM   21  C1  UNL     1      17.372  -0.400  51.923  1.00  0.00     0.201 C 
ENDBRANCH  19  20
ENDBRANCH   1  19
TORSDOF 5
ENDMDL
MODEL 5
REMARK VINA RESULT:      -6.7      2.937      6.272
REMARK  5 active torsions:
REMARK  status: ('A' for Active; 'I' for Inactive)
REMARK    1  A    between atoms: O1_2  and  C2_3 
REMARK    2  A    between atoms: C2_3  and  C3_4 
REMARK    3  A    between atoms: C6_8  and  S1_10 
REMARK    4  A    between atoms: S1_10  and  N2_11 
REMARK    5  A    between atoms: N2_11  and  C7_12 
ROOT
HETATM    1  C3  UNL     1      26.501   0.625  54.163  1.00  0.00    -0.033 C 
HETATM    2  C4  UNL     1      25.642  -0.401  54.116  1.00  0.00     0.028 C 
HETATM    3  C5  UNL     1      24.227  -0.377  53.731  1.00  0.00     0.116 C 
HETATM    4  N1  UNL     1      23.625   0.515  53.009  1.00  0.00    -0.244 NA
HETATM    5  C6  UNL     1      24.058   1.711  52.364  1.00  0.00     0.282 C 
HETATM    6  F1  UNL     1      24.444   1.466  51.061  1.00  0.00    -0.198 F 
HETATM    7  C13 UNL     1      25.147   2.416  53.068  1.00  0.00     0.055 C 
HETATM    8  C14 UNL     1      26.180   2.025  53.824  1.00  0.00     0.011 C 
ENDROOT
BRANCH   5   9
HETATM    9  S1  UNL     1      22.604   2.825  52.269  1.00  0.00     0.018 SA
BRANCH   9  10
HETATM   10  N2  UNL     1      22.597   3.662  50.703  1.00  0.00    -0.326 N 
HETATM   11  H8  UNL     1      21.945   3.507  49.905  1.00  0.00     0.174 HD
BRANCH  10  12
HETATM   12  C7  UNL     1      23.596   4.658  50.521  1.00  0.00     0.039 A 
HETATM   13  C8  UNL     1      23.502   5.921  51.068  1.00  0.00     0.030 A 
HETATM   14  C9  UNL     1      24.410   6.948  50.948  1.00  0.00     0.004 A 
HETATM   15  C10 UNL     1      25.548   6.687  50.192  1.00  0.00     0.024 A 
HETATM   16  C11 UNL     1      25.707   5.449  49.616  1.00  0.00     0.036 A 
HETATM   17 CL1  UNL     1      27.133   5.078  48.653  1.00  0.00    -0.084 Cl
HETATM   18  C12 UNL     1      24.750   4.459  49.779  1.00  0.00     0.053 A 
ENDBRANCH  10  12
ENDBRANCH   9  10
ENDBRANCH   5   9
BRANCH   1  19
HETATM   19  C2  UNL     1      27.916   0.428  54.578  1.00  0.00     0.205 C 
BRANCH  19  20
HETATM   20  O1  UNL     1      28.264  -0.905  54.274  1.00  0.00    -0.391 OA
HETATM   21  C1  UNL     1      29.546  -0.887  53.682  1.00  0.00     0.201 C 
ENDBRANCH  19  20
ENDBRANCH   1  19
TORSDOF 5
ENDMDL
MODEL 6
REMARK VINA RESULT:      -6.7      2.486      3.049
REMARK  5 active torsions:
REMARK  status: ('A' for Active; 'I' for Inactive)
REMARK    1  A    between atoms: O1_2  and  C2_3 
REMARK    2  A    between atoms: C2_3  and  C3_4 
REMARK    3  A    between atoms: C6_8  and  S1_10 
REMARK    4  A    between atoms: S1_10  and  N2_11 
REMARK    5  A    between atoms: N2_11  and  C7_12 
ROOT
HETATM    1  C3  UNL     1      26.292   6.658  49.052  1.00  0.00    -0.033 C 
HETATM    2  C4  UNL     1      27.202   5.831  48.523  1.00  0.00     0.028 C 
HETATM    3  C5  UNL     1      27.459   4.430  48.871  1.00  0.00     0.116 C 
HETATM    4  N1  UNL     1      26.648   3.604  49.455  1.00  0.00    -0.244 NA
HETATM    5  C6  UNL     1      25.313   3.720  49.943  1.00  0.00     0.282 C 
HETATM    6  F1  UNL     1      24.394   3.349  48.982  1.00  0.00    -0.198 F 
HETATM    7  C13 UNL     1      24.969   5.064  50.448  1.00  0.00     0.055 C 
HETATM    8  C14 UNL     1      25.339   6.309  50.124  1.00  0.00     0.011 C 
ENDROOT
BRANCH   5   9
HETATM    9  S1  UNL     1      25.138   2.516  51.315  1.00  0.00     0.018 SA
BRANCH   9  10
HETATM   10  N2  UNL     1      26.465   2.736  52.474  1.00  0.00    -0.326 N 
HETATM   11  H8  UNL     1      26.744   3.617  52.958  1.00  0.00     0.174 HD
BRANCH  10  12
HETATM   12  C7  UNL     1      27.233   1.578  52.775  1.00  0.00     0.039 A 
HETATM   13  C8  UNL     1      28.471   1.638  53.382  1.00  0.00     0.030 A 
HETATM   14  C9  UNL     1      29.287   0.579  53.710  1.00  0.00     0.004 A 
HETATM   15  C10 UNL     1      28.814  -0.691  53.397  1.00  0.00     0.024 A 
HETATM   16  C11 UNL     1      27.587  -0.826  52.791  1.00  0.00     0.036 A 
HETATM   17 CL1  UNL     1      26.953  -2.415  52.379  1.00  0.00    -0.084 Cl
HETATM   18  C12 UNL     1      26.817   0.287  52.488  1.00  0.00     0.053 A 
ENDBRANCH  10  12
ENDBRANCH   9  10
ENDBRANCH   5   9
BRANCH   1  19
HETATM   19  C2  UNL     1      26.159   8.063  48.581  1.00  0.00     0.205 C 
BRANCH  19  20
HETATM   20  O1  UNL     1      26.220   8.897  49.717  1.00  0.00    -0.391 OA
HETATM   21  C1  UNL     1      27.545   9.372  49.828  1.00  0.00     0.201 C 
ENDBRANCH  19  20
ENDBRANCH   1  19
TORSDOF 5
ENDMDL
MODEL 7
REMARK VINA RESULT:      -6.6      2.421      3.103
REMARK  5 active torsions:
REMARK  status: ('A' for Active; 'I' for Inactive)
REMARK    1  A    between atoms: O1_2  and  C2_3 
REMARK    2  A    between atoms: C2_3  and  C3_4 
REMARK    3  A    between atoms: C6_8  and  S1_10 
REMARK    4  A    between atoms: S1_10  and  N2_11 
REMARK    5  A    between atoms: N2_11  and  C7_12 
ROOT
HETATM    1  C3  UNL     1      27.639   6.063  48.365  1.00  0.00    -0.033 C 
HETATM    2  C4  UNL     1      26.623   6.906  48.146  1.00  0.00     0.028 C 
HETATM    3  C5  UNL     1      25.186   6.626  48.226  1.00  0.00     0.116 C 
HETATM    4  N1  UNL     1      24.607   5.666  48.877  1.00  0.00    -0.244 NA
HETATM    5  C6  UNL     1      25.093   4.604  49.695  1.00  0.00     0.282 C 
HETATM    6  F1  UNL     1      25.131   4.972  51.025  1.00  0.00    -0.198 F 
HETATM    7  C13 UNL     1      26.419   4.092  49.295  1.00  0.00     0.055 C 
HETATM    8  C14 UNL     1      27.507   4.642  48.743  1.00  0.00     0.011 C 
ENDROOT
BRANCH   5   9
HETATM    9  S1  UNL     1      23.877   3.236  49.574  1.00  0.00     0.018 SA
BRANCH   9  10
HETATM   10  N2  UNL     1      23.193   2.904  51.179  1.00  0.00    -0.326 N 
HETATM   11  H8  UNL     1      22.423   3.419  51.659  1.00  0.00     0.174 HD
BRANCH  10  12
HETATM   12  C7  UNL     1      23.761   1.811  51.889  1.00  0.00     0.039 A 
HETATM   13  C8  UNL     1      25.099   1.482  51.810  1.00  0.00     0.030 A 
HETATM   14  C9  UNL     1      25.739   0.448  52.454  1.00  0.00     0.004 A 
HETATM   15  C10 UNL     1      24.954  -0.356  53.272  1.00  0.00     0.024 A 
HETATM   16  C11 UNL     1      23.611  -0.088  53.398  1.00  0.00     0.036 A 
HETATM   17 CL1  UNL     1      22.583  -1.081  54.424  1.00  0.00    -0.084 Cl
HETATM   18  C12 UNL     1      23.032   0.974  52.719  1.00  0.00     0.053 A 
ENDBRANCH  10  12
ENDBRANCH   9  10
ENDBRANCH   5   9
BRANCH   1  19
HETATM   19  C2  UNL     1      29.053   6.510  48.241  1.00  0.00     0.205 C 
BRANCH  19  20
HETATM   20  O1  UNL     1      29.874   5.433  48.638  1.00  0.00    -0.391 OA
HETATM   21  C1  UNL     1      31.138   5.963  48.977  1.00  0.00     0.201 C 
ENDBRANCH  19  20
ENDBRANCH   1  19
TORSDOF 5
ENDMDL
MODEL 8
REMARK VINA RESULT:      -6.5      6.024      8.171
REMARK  5 active torsions:
REMARK  status: ('A' for Active; 'I' for Inactive)
REMARK    1  A    between atoms: O1_2  and  C2_3 
REMARK    2  A    between atoms: C2_3  and  C3_4 
REMARK    3  A    between atoms: C6_8  and  S1_10 
REMARK    4  A    between atoms: S1_10  and  N2_11 
REMARK    5  A    between atoms: N2_11  and  C7_12 
ROOT
HETATM    1  C3  UNL     1      25.548  -0.291  53.860  1.00  0.00    -0.033 C 
HETATM    2  C4  UNL     1      25.298  -1.049  54.935  1.00  0.00     0.028 C 
HETATM    3  C5  UNL     1      24.024  -1.223  55.640  1.00  0.00     0.116 C 
HETATM    4  N1  UNL     1      22.833  -1.011  55.173  1.00  0.00    -0.244 NA
HETATM    5  C6  UNL     1      22.338  -0.566  53.912  1.00  0.00     0.282 C 
HETATM    6  F1  UNL     1      22.063  -1.632  53.078  1.00  0.00    -0.198 F 
HETATM    7  C13 UNL     1      23.231   0.379  53.212  1.00  0.00     0.055 C 
HETATM    8  C14 UNL     1      24.558   0.543  53.152  1.00  0.00     0.011 C 
ENDROOT
BRANCH   5   9
HETATM    9  S1  UNL     1      20.735   0.267  54.229  1.00  0.00     0.018 SA
BRANCH   9  10
HETATM   10  N2  UNL     1      19.402  -0.819  53.783  1.00  0.00    -0.326 N 
HETATM   11  H8  UNL     1      19.062  -1.654  54.307  1.00  0.00     0.174 HD
BRANCH  10  12
HETATM   12  C7  UNL     1      18.722  -0.511  52.572  1.00  0.00     0.039 A 
HETATM   13  C8  UNL     1      19.301   0.215  51.552  1.00  0.00     0.030 A 
HETATM   14  C9  UNL     1      18.727   0.563  50.351  1.00  0.00     0.004 A 
HETATM   15  C10 UNL     1      17.420   0.139  50.140  1.00  0.00     0.024 A 
HETATM   16  C11 UNL     1      16.779  -0.589  51.115  1.00  0.00     0.036 A 
HETATM   17 CL1  UNL     1      15.125  -1.146  50.887  1.00  0.00    -0.084 Cl
HETATM   18  C12 UNL     1      17.420  -0.905  52.304  1.00  0.00     0.053 A 
ENDBRANCH  10  12
ENDBRANCH   9  10
ENDBRANCH   5   9
BRANCH   1  19
HETATM   19  C2  UNL     1      26.909  -0.225  53.263  1.00  0.00     0.205 C 
BRANCH  19  20
HETATM   20  O1  UNL     1      27.807  -0.790  54.192  1.00  0.00    -0.391 OA
HETATM   21  C1  UNL     1      28.621   0.251  54.688  1.00  0.00     0.201 C 
ENDBRANCH  19  20
ENDBRANCH   1  19
TORSDOF 5
ENDMDL
MODEL 9
REMARK VINA RESULT:      -6.5      3.300      6.475
REMARK  5 active torsions:
REMARK  status: ('A' for Active; 'I' for Inactive)
REMARK    1  A    between atoms: O1_2  and  C2_3 
REMARK    2  A    between atoms: C2_3  and  C3_4 
REMARK    3  A    between atoms: C6_8  and  S1_10 
REMARK    4  A    between atoms: S1_10  and  N2_11 
REMARK    5  A    between atoms: N2_11  and  C7_12 
ROOT
HETATM    1  C3  UNL     1      26.001   0.453  52.288  1.00  0.00    -0.033 C 
HETATM    2  C4  UNL     1      24.792   0.517  52.858  1.00  0.00     0.028 C 
HETATM    3  C5  UNL     1      23.862   1.651  52.877  1.00  0.00     0.116 C 
HETATM    4  N1  UNL     1      23.830   2.654  52.056  1.00  0.00    -0.244 NA
HETATM    5  C6  UNL     1      24.610   3.016  50.919  1.00  0.00     0.282 C 
HETATM    6  F1  UNL     1      24.051   2.533  49.753  1.00  0.00    -0.198 F 
HETATM    7  C13 UNL     1      26.022   2.589  50.994  1.00  0.00     0.055 C 
HETATM    8  C14 UNL     1      26.655   1.546  51.543  1.00  0.00     0.011 C 
ENDROOT
BRANCH   5   9
HETATM    9  S1  UNL     1      24.558   4.846  50.794  1.00  0.00     0.018 SA
BRANCH   9  10
HETATM   10  N2  UNL     1      24.823   5.335  49.108  1.00  0.00    -0.326 N 
HETATM   11  H8  UNL     1      24.127   5.335  48.332  1.00  0.00     0.174 HD
BRANCH  10  12
HETATM   12  C7  UNL     1      26.135   5.779  48.783  1.00  0.00     0.039 A 
HETATM   13  C8  UNL     1      27.215   4.925  48.704  1.00  0.00     0.030 A 
HETATM   14  C9  UNL     1      28.516   5.257  48.400  1.00  0.00     0.004 A 
HETATM   15  C10 UNL     1      28.771   6.600  48.145  1.00  0.00     0.024 A 
HETATM   16  C11 UNL     1      27.741   7.508  48.207  1.00  0.00     0.036 A 
HETATM   17 CL1  UNL     1      28.023   9.216  47.890  1.00  0.00    -0.084 Cl
HETATM   18  C12 UNL     1      26.452   7.103  48.519  1.00  0.00     0.053 A 
ENDBRANCH  10  12
ENDBRANCH   9  10
ENDBRANCH   5   9
BRANCH   1  19
HETATM   19  C2  UNL     1      26.824  -0.785  52.361  1.00  0.00     0.205 C 
BRANCH  19  20
HETATM   20  O1  UNL     1      27.329  -0.880  53.675  1.00  0.00    -0.391 OA
HETATM   21  C1  UNL     1      28.736  -0.799  53.599  1.00  0.00     0.201 C 
ENDBRANCH  19  20
ENDBRANCH   1  19
TORSDOF 5
ENDMDL
