MODEL 1
REMARK VINA RESULT:      -6.9      0.000      0.000
REMARK  7 active torsions:
REMARK  status: ('A' for Active; 'I' for Inactive)
REMARK    1  A    between atoms: C3_3  and  C4_4 
REMARK    2  A    between atoms: C4_4  and  C5_5 
REMARK    3  A    between atoms: C5_5  and  C6_6 
REMARK    4  A    between atoms: C6_6  and  O1_7 
REMARK       I    between atoms: N2_15  and  C12_16 
REMARK    5  A    between atoms: C12_16  and  C13_18 
REMARK    6  A    between atoms: C14_19  and  C15_20 
REMARK    7  A    between atoms: C15_20  and  N3_21 
ROOT
HETATM    1  C5  UNL     1      13.049   3.878  53.103  1.00  0.00     0.193 C 
HETATM    2  N1  UNL     1      12.517   4.571  51.946  1.00  0.00     0.111 N 
HETATM    3  C7  UNL     1      12.586   3.346  51.173  1.00  0.00     0.298 C 
HETATM    4  S1  UNL     1      14.136   3.082  50.272  1.00  0.00    -0.096 SA
HETATM    5  C8  UNL     1      14.672   1.672  51.280  1.00  0.00     0.001 C 
HETATM    6  C9  UNL     1      13.871   1.607  52.306  1.00  0.00    -0.054 C 
HETATM    7  C10 UNL     1      14.175   0.492  53.246  1.00  0.00     0.056 C 
HETATM    8  C11 UNL     1      15.022  -0.589  52.658  1.00  0.00     0.131 C 
HETATM    9  N2  UNL     1      16.154  -0.096  51.932  1.00  0.00    -0.344 N 
HETATM   10  C12 UNL     1      17.453  -0.546  52.277  1.00  0.00     0.243 C 
HETATM   11  O2  UNL     1      17.328  -1.347  53.234  1.00  0.00    -0.268 OA
HETATM   12  C18 UNL     1      15.811   0.838  50.900  1.00  0.00     0.172 C 
HETATM   13  C19 UNL     1      12.805   2.590  52.427  1.00  0.00     0.100 C 
HETATM   14  H11 UNL     1      13.108   5.292  51.508  1.00  0.00     0.318 HD
ENDROOT
BRANCH  10  15
HETATM   15  C13 UNL     1      18.652  -0.105  51.589  1.00  0.00     0.072 C 
HETATM   16  C14 UNL     1      19.752   0.276  52.182  1.00  0.00     0.008 C 
BRANCH  16  17
HETATM   17  C15 UNL     1      20.158   0.394  53.593  1.00  0.00     0.299 C 
BRANCH  17  18
HETATM   18  N3  UNL     1      21.456  -0.192  53.874  1.00  0.00     0.083 N 
HETATM   19  C16 UNL     1      21.328  -1.556  54.350  1.00  0.00     0.309 C 
HETATM   20  C17 UNL     1      22.198  -0.200  52.608  1.00  0.00     0.309 C 
ENDBRANCH  17  18
ENDBRANCH  16  17
ENDBRANCH  10  15
BRANCH   1  21
HETATM   21  C4  UNL     1      12.178   4.058  54.347  1.00  0.00     0.071 C 
BRANCH  21  22
HETATM   22  C3  UNL     1      11.405   2.855  54.686  1.00  0.00    -0.028 C 
HETATM   23  C2  UNL     1      11.629   2.081  55.757  1.00  0.00    -0.035 C 
HETATM   24  C1  UNL     1      10.710   0.904  55.897  1.00  0.00     0.036 C 
ENDBRANCH  21  22
ENDBRANCH   1  21
BRANCH   1  25
HETATM   25  C6  UNL     1      14.460   4.309  53.379  1.00  0.00     0.207 C 
BRANCH  25  26
HETATM   26  O1  UNL     1      14.498   4.699  54.735  1.00  0.00    -0.398 OA
HETATM   27  H10 UNL     1      15.435   4.867  54.987  1.00  0.00     0.209 HD
ENDBRANCH  25  26
ENDBRANCH   1  25
TORSDOF 7
ENDMDL
MODEL 2
REMARK VINA RESULT:      -6.6      6.405      8.994
REMARK  7 active torsions:
REMARK  status: ('A' for Active; 'I' for Inactive)
REMARK    1  A    between atoms: C3_3  and  C4_4 
REMARK    2  A    between atoms: C4_4  and  C5_5 
REMARK    3  A    between atoms: C5_5  and  C6_6 
REMARK    4  A    between atoms: C6_6  and  O1_7 
REMARK       I    between atoms: N2_15  and  C12_16 
REMARK    5  A    between atoms: C12_16  and  C13_18 
REMARK    6  A    between atoms: C14_19  and  C15_20 
REMARK    7  A    between atoms: C15_20  and  N3_21 
ROOT
HETATM    1  C5  UNL     1      20.267   2.076  50.368  1.00  0.00     0.193 C 
HETATM    2  N1  UNL     1      19.248   1.525  51.240  1.00  0.00     0.111 N 
HETATM    3  C7  UNL     1      20.060   1.842  52.399  1.00  0.00     0.298 C 
HETATM    4  S1  UNL     1      21.193   0.532  52.934  1.00  0.00    -0.096 SA
HETATM    5  C8  UNL     1      22.704   1.427  52.481  1.00  0.00     0.001 C 
HETATM    6  C9  UNL     1      22.339   2.469  51.788  1.00  0.00    -0.054 C 
HETATM    7  C10 UNL     1      23.471   3.323  51.331  1.00  0.00     0.056 C 
HETATM    8  C11 UNL     1      24.743   3.106  52.084  1.00  0.00     0.131 C 
HETATM    9  N2  UNL     1      25.072   1.723  52.261  1.00  0.00    -0.344 N 
HETATM   10  C12 UNL     1      26.336   1.247  51.828  1.00  0.00     0.243 C 
HETATM   11  O2  UNL     1      26.951   2.221  51.332  1.00  0.00    -0.268 OA
HETATM   12  C18 UNL     1      24.030   0.959  52.881  1.00  0.00     0.172 C 
HETATM   13  C19 UNL     1      20.922   2.686  51.540  1.00  0.00     0.100 C 
HETATM   14  H11 UNL     1      19.082   0.510  51.198  1.00  0.00     0.318 HD
ENDROOT
BRANCH  10  15
HETATM   15  C13 UNL     1      26.754  -0.135  51.976  1.00  0.00     0.072 C 
HETATM   16  C14 UNL     1      27.259  -0.646  53.067  1.00  0.00     0.008 C 
BRANCH  16  17
HETATM   17  C15 UNL     1      27.564  -0.099  54.400  1.00  0.00     0.299 C 
BRANCH  17  18
HETATM   18  N3  UNL     1      28.980   0.136  54.620  1.00  0.00     0.083 N 
HETATM   19  C16 UNL     1      29.794  -0.737  53.796  1.00  0.00     0.309 C 
HETATM   20  C17 UNL     1      29.241   1.528  54.237  1.00  0.00     0.309 C 
ENDBRANCH  17  18
ENDBRANCH  16  17
ENDBRANCH  10  15
BRANCH   1  21
HETATM   21  C4  UNL     1      19.709   3.122  49.401  1.00  0.00     0.071 C 
BRANCH  21  22
HETATM   22  C3  UNL     1      20.008   4.501  49.812  1.00  0.00    -0.028 C 
HETATM   23  C2  UNL     1      20.628   5.409  49.046  1.00  0.00    -0.035 C 
HETATM   24  C1  UNL     1      20.823   6.753  49.681  1.00  0.00     0.036 C 
ENDBRANCH  21  22
ENDBRANCH   1  21
BRANCH   1  25
HETATM   25  C6  UNL     1      20.971   0.984  49.616  1.00  0.00     0.207 C 
BRANCH  25  26
HETATM   26  O1  UNL     1      21.260   1.505  48.336  1.00  0.00    -0.398 OA
HETATM   27  H10 UNL     1      20.413   1.626  47.848  1.00  0.00     0.209 HD
ENDBRANCH  25  26
ENDBRANCH   1  25
TORSDOF 7
ENDMDL
MODEL 3
REMARK VINA RESULT:      -6.5     14.082     18.145
REMARK  7 active torsions:
REMARK  status: ('A' for Active; 'I' for Inactive)
REMARK    1  A    between atoms: C3_3  and  C4_4 
REMARK    2  A    between atoms: C4_4  and  C5_5 
REMARK    3  A    between atoms: C5_5  and  C6_6 
REMARK    4  A    between atoms: C6_6  and  O1_7 
REMARK       I    between atoms: N2_15  and  C12_16 
REMARK    5  A    between atoms: C12_16  and  C13_18 
REMARK    6  A    between atoms: C14_19  and  C15_20 
REMARK    7  A    between atoms: C15_20  and  N3_21 
ROOT
HETATM    1  C5  UNL     1      29.810   7.339  48.338  1.00  0.00     0.193 C 
HETATM    2  N1  UNL     1      30.322   8.069  49.481  1.00  0.00     0.111 N 
HETATM    3  C7  UNL     1      31.203   8.825  48.611  1.00  0.00     0.298 C 
HETATM    4  S1  UNL     1      32.848   8.108  48.360  1.00  0.00    -0.096 SA
HETATM    5  C8  UNL     1      32.586   7.705  46.612  1.00  0.00     0.001 C 
HETATM    6  C9  UNL     1      31.319   7.879  46.363  1.00  0.00    -0.054 C 
HETATM    7  C10 UNL     1      30.928   7.587  44.955  1.00  0.00     0.056 C 
HETATM    8  C11 UNL     1      32.071   7.579  43.994  1.00  0.00     0.131 C 
HETATM    9  N2  UNL     1      33.207   6.842  44.463  1.00  0.00    -0.344 N 
HETATM   10  C12 UNL     1      33.738   5.799  43.664  1.00  0.00     0.243 C 
HETATM   11  O2  UNL     1      33.037   5.729  42.627  1.00  0.00    -0.268 OA
HETATM   12  C18 UNL     1      33.682   7.274  45.745  1.00  0.00     0.172 C 
HETATM   13  C19 UNL     1      30.447   8.321  47.441  1.00  0.00     0.100 C 
HETATM   14  H11 UNL     1      30.879   7.545  50.170  1.00  0.00     0.318 HD
ENDROOT
BRANCH  10  15
HETATM   15  C13 UNL     1      34.890   5.008  44.058  1.00  0.00     0.072 C 
HETATM   16  C14 UNL     1      34.882   4.099  44.998  1.00  0.00     0.008 C 
BRANCH  16  17
HETATM   17  C15 UNL     1      33.843   3.586  45.906  1.00  0.00     0.299 C 
BRANCH  17  18
HETATM   18  N3  UNL     1      34.355   3.190  47.206  1.00  0.00     0.083 N 
HETATM   19  C16 UNL     1      34.726   4.344  48.002  1.00  0.00     0.309 C 
HETATM   20  C17 UNL     1      33.269   2.474  47.886  1.00  0.00     0.309 C 
ENDBRANCH  17  18
ENDBRANCH  16  17
ENDBRANCH  10  15
BRANCH   1  21
HETATM   21  C4  UNL     1      28.283   7.377  48.253  1.00  0.00     0.071 C 
BRANCH  21  22
HETATM   22  C3  UNL     1      27.664   6.062  48.469  1.00  0.00    -0.028 C 
HETATM   23  C2  UNL     1      26.469   5.866  49.045  1.00  0.00    -0.035 C 
HETATM   24  C1  UNL     1      26.042   4.433  49.158  1.00  0.00     0.036 C 
ENDBRANCH  21  22
ENDBRANCH   1  21
BRANCH   1  25
HETATM   25  C6  UNL     1      30.303   5.921  48.347  1.00  0.00     0.207 C 
BRANCH  25  26
HETATM   26  O1  UNL     1      30.673   5.639  49.680  1.00  0.00    -0.398 OA
HETATM   27  H10 UNL     1      29.938   5.144  50.111  1.00  0.00     0.209 HD
ENDBRANCH  25  26
ENDBRANCH   1  25
TORSDOF 7
ENDMDL
MODEL 4
REMARK VINA RESULT:      -6.4      7.481     10.970
REMARK  7 active torsions:
REMARK  status: ('A' for Active; 'I' for Inactive)
REMARK    1  A    between atoms: C3_3  and  C4_4 
REMARK    2  A    between atoms: C4_4  and  C5_5 
REMARK    3  A    between atoms: C5_5  and  C6_6 
REMARK    4  A    between atoms: C6_6  and  O1_7 
REMARK       I    between atoms: N2_15  and  C12_16 
REMARK    5  A    between atoms: C12_16  and  C13_18 
REMARK    6  A    between atoms: C14_19  and  C15_20 
REMARK    7  A    between atoms: C15_20  and  N3_21 
ROOT
HETATM    1  C5  UNL     1      25.634   1.986  51.853  1.00  0.00     0.193 C 
HETATM    2  N1  UNL     1      25.982   2.727  53.050  1.00  0.00     0.111 N 
HETATM    3  C7  UNL     1      24.581   2.805  53.415  1.00  0.00     0.298 C 
HETATM    4  S1  UNL     1      23.697   4.262  52.798  1.00  0.00    -0.096 SA
HETATM    5  C8  UNL     1      22.643   3.339  51.648  1.00  0.00     0.001 C 
HETATM    6  C9  UNL     1      23.109   2.123  51.591  1.00  0.00    -0.054 C 
HETATM    7  C10 UNL     1      22.349   1.221  50.681  1.00  0.00     0.056 C 
HETATM    8  C11 UNL     1      20.978   1.707  50.344  1.00  0.00     0.131 C 
HETATM    9  N2  UNL     1      20.936   3.093  49.983  1.00  0.00    -0.344 N 
HETATM   10  C12 UNL     1      20.366   3.472  48.741  1.00  0.00     0.243 C 
HETATM   11  O2  UNL     1      19.991   2.422  48.167  1.00  0.00    -0.268 OA
HETATM   12  C18 UNL     1      21.506   3.961  50.971  1.00  0.00     0.172 C 
HETATM   13  C19 UNL     1      24.276   1.781  52.390  1.00  0.00     0.100 C 
HETATM   14  H11 UNL     1      26.363   3.676  52.929  1.00  0.00     0.318 HD
ENDROOT
BRANCH  10  15
HETATM   15  C13 UNL     1      20.275   4.852  48.301  1.00  0.00     0.072 C 
HETATM   16  C14 UNL     1      21.257   5.527  47.764  1.00  0.00     0.008 C 
BRANCH  16  17
HETATM   17  C15 UNL     1      22.655   5.202  47.437  1.00  0.00     0.299 C 
BRANCH  17  18
HETATM   18  N3  UNL     1      23.598   6.231  47.834  1.00  0.00     0.083 N 
HETATM   19  C16 UNL     1      22.935   7.505  48.034  1.00  0.00     0.309 C 
HETATM   20  C17 UNL     1      24.185   5.797  49.107  1.00  0.00     0.309 C 
ENDBRANCH  17  18
ENDBRANCH  16  17
ENDBRANCH  10  15
BRANCH   1  21
HETATM   21  C4  UNL     1      26.415   0.677  51.726  1.00  0.00     0.071 C 
BRANCH  21  22
HETATM   22  C3  UNL     1      27.491   0.551  52.718  1.00  0.00    -0.028 C 
HETATM   23  C2  UNL     1      28.041  -0.608  53.105  1.00  0.00    -0.035 C 
HETATM   24  C1  UNL     1      29.127  -0.488  54.133  1.00  0.00     0.036 C 
ENDBRANCH  21  22
ENDBRANCH   1  21
BRANCH   1  25
HETATM   25  C6  UNL     1      25.822   2.834  50.629  1.00  0.00     0.207 C 
BRANCH  25  26
HETATM   26  O1  UNL     1      27.028   3.545  50.819  1.00  0.00    -0.398 OA
HETATM   27  H10 UNL     1      27.780   2.914  50.736  1.00  0.00     0.209 HD
ENDBRANCH  25  26
ENDBRANCH   1  25
TORSDOF 7
ENDMDL
MODEL 5
REMARK VINA RESULT:      -6.4     10.916     14.294
REMARK  7 active torsions:
REMARK  status: ('A' for Active; 'I' for Inactive)
REMARK    1  A    between atoms: C3_3  and  C4_4 
REMARK    2  A    between atoms: C4_4  and  C5_5 
REMARK    3  A    between atoms: C5_5  and  C6_6 
REMARK    4  A    between atoms: C6_6  and  O1_7 
REMARK       I    between atoms: N2_15  and  C12_16 
REMARK    5  A    between atoms: C12_16  and  C13_18 
REMARK    6  A    between atoms: C14_19  and  C15_20 
REMARK    7  A    between atoms: C15_20  and  N3_21 
ROOT
HETATM    1  C5  UNL     1      24.394   6.231  49.827  1.00  0.00     0.193 C 
HETATM    2  N1  UNL     1      23.495   7.090  49.079  1.00  0.00     0.111 N 
HETATM    3  C7  UNL     1      24.362   6.998  47.920  1.00  0.00     0.298 C 
HETATM    4  S1  UNL     1      25.642   8.275  47.805  1.00  0.00    -0.096 SA
HETATM    5  C8  UNL     1      27.030   7.142  48.083  1.00  0.00     0.001 C 
HETATM    6  C9  UNL     1      26.525   6.000  48.459  1.00  0.00    -0.054 C 
HETATM    7  C10 UNL     1      27.540   4.945  48.732  1.00  0.00     0.056 C 
HETATM    8  C11 UNL     1      28.879   5.214  48.127  1.00  0.00     0.131 C 
HETATM    9  N2  UNL     1      29.340   6.554  48.336  1.00  0.00    -0.344 N 
HETATM   10  C12 UNL     1      30.604   6.769  48.941  1.00  0.00     0.243 C 
HETATM   11  O2  UNL     1      31.092   5.642  49.195  1.00  0.00    -0.268 OA
HETATM   12  C18 UNL     1      28.419   7.556  47.886  1.00  0.00     0.172 C 
HETATM   13  C19 UNL     1      25.079   5.877  48.570  1.00  0.00     0.100 C 
HETATM   14  H11 UNL     1      23.417   8.072  49.378  1.00  0.00     0.318 HD
ENDROOT
BRANCH  10  15
HETATM   15  C13 UNL     1      31.152   8.091  49.182  1.00  0.00     0.072 C 
HETATM   16  C14 UNL     1      32.271   8.536  48.675  1.00  0.00     0.008 C 
BRANCH  16  17
HETATM   17  C15 UNL     1      33.285   7.952  47.780  1.00  0.00     0.299 C 
BRANCH  17  18
HETATM   18  N3  UNL     1      34.240   7.100  48.465  1.00  0.00     0.083 N 
HETATM   19  C16 UNL     1      34.318   5.791  47.845  1.00  0.00     0.309 C 
HETATM   20  C17 UNL     1      35.548   7.757  48.352  1.00  0.00     0.309 C 
ENDBRANCH  17  18
ENDBRANCH  16  17
ENDBRANCH  10  15
BRANCH   1  21
HETATM   21  C4  UNL     1      23.675   5.036  50.457  1.00  0.00     0.071 C 
BRANCH  21  22
HETATM   22  C3  UNL     1      24.593   4.099  51.118  1.00  0.00    -0.028 C 
HETATM   23  C2  UNL     1      24.994   2.929  50.600  1.00  0.00    -0.035 C 
HETATM   24  C1  UNL     1      25.935   2.139  51.459  1.00  0.00     0.036 C 
ENDBRANCH  21  22
ENDBRANCH   1  21
BRANCH   1  25
HETATM   25  C6  UNL     1      25.131   7.015  50.872  1.00  0.00     0.207 C 
BRANCH  25  26
HETATM   26  O1  UNL     1      24.152   7.726  51.600  1.00  0.00    -0.398 OA
HETATM   27  H10 UNL     1      23.923   8.544  51.102  1.00  0.00     0.209 HD
ENDBRANCH  25  26
ENDBRANCH   1  25
TORSDOF 7
ENDMDL
MODEL 6
REMARK VINA RESULT:      -6.4      6.172     10.706
REMARK  7 active torsions:
REMARK  status: ('A' for Active; 'I' for Inactive)
REMARK    1  A    between atoms: C3_3  and  C4_4 
REMARK    2  A    between atoms: C4_4  and  C5_5 
REMARK    3  A    between atoms: C5_5  and  C6_6 
REMARK    4  A    between atoms: C6_6  and  O1_7 
REMARK       I    between atoms: N2_15  and  C12_16 
REMARK    5  A    between atoms: C12_16  and  C13_18 
REMARK    6  A    between atoms: C14_19  and  C15_20 
REMARK    7  A    between atoms: C15_20  and  N3_21 
ROOT
HETATM    1  C5  UNL     1      25.256   4.761  49.944  1.00  0.00     0.193 C 
HETATM    2  N1  UNL     1      26.200   4.121  50.840  1.00  0.00     0.111 N 
HETATM    3  C7  UNL     1      25.627   2.826  50.529  1.00  0.00     0.298 C 
HETATM    4  S1  UNL     1      24.274   2.295  51.612  1.00  0.00    -0.096 SA
HETATM    5  C8  UNL     1      22.990   2.409  50.337  1.00  0.00     0.001 C 
HETATM    6  C9  UNL     1      23.519   3.015  49.311  1.00  0.00    -0.054 C 
HETATM    7  C10 UNL     1      22.589   3.193  48.162  1.00  0.00     0.056 C 
HETATM    8  C11 UNL     1      21.396   2.294  48.197  1.00  0.00     0.131 C 
HETATM    9  N2  UNL     1      20.758   2.241  49.478  1.00  0.00    -0.344 N 
HETATM   10  C12 UNL     1      19.376   2.539  49.581  1.00  0.00     0.243 C 
HETATM   11  O2  UNL     1      18.968   2.817  48.428  1.00  0.00    -0.268 OA
HETATM   12  C18 UNL     1      21.643   1.879  50.546  1.00  0.00     0.172 C 
HETATM   13  C19 UNL     1      24.909   3.440  49.389  1.00  0.00     0.100 C 
HETATM   14  H11 UNL     1      26.104   4.311  51.848  1.00  0.00     0.318 HD
ENDROOT
BRANCH  10  15
HETATM   15  C13 UNL     1      18.649   2.501  50.836  1.00  0.00     0.072 C 
HETATM   16  C14 UNL     1      18.238   1.410  51.425  1.00  0.00     0.008 C 
BRANCH  16  17
HETATM   17  C15 UNL     1      18.333  -0.022  51.093  1.00  0.00     0.299 C 
BRANCH  17  18
HETATM   18  N3  UNL     1      18.290  -0.890  52.256  1.00  0.00     0.083 N 
HETATM   19  C16 UNL     1      19.267  -0.490  53.250  1.00  0.00     0.309 C 
HETATM   20  C17 UNL     1      16.946  -0.758  52.831  1.00  0.00     0.309 C 
ENDBRANCH  17  18
ENDBRANCH  16  17
ENDBRANCH  10  15
BRANCH   1  21
HETATM   21  C4  UNL     1      25.942   5.664  48.917  1.00  0.00     0.071 C 
BRANCH  21  22
HETATM   22  C3  UNL     1      27.340   5.288  48.665  1.00  0.00    -0.028 C 
HETATM   23  C2  UNL     1      28.297   6.135  48.263  1.00  0.00    -0.035 C 
HETATM   24  C1  UNL     1      29.652   5.523  48.071  1.00  0.00     0.036 C 
ENDBRANCH  21  22
ENDBRANCH   1  21
BRANCH   1  25
HETATM   25  C6  UNL     1      24.225   5.529  50.718  1.00  0.00     0.207 C 
BRANCH  25  26
HETATM   26  O1  UNL     1      24.919   6.556  51.393  1.00  0.00    -0.398 OA
HETATM   27  H10 UNL     1      24.719   7.413  50.951  1.00  0.00     0.209 HD
ENDBRANCH  25  26
ENDBRANCH   1  25
TORSDOF 7
ENDMDL
MODEL 7
REMARK VINA RESULT:      -6.4      7.478     10.068
REMARK  7 active torsions:
REMARK  status: ('A' for Active; 'I' for Inactive)
REMARK    1  A    between atoms: C3_3  and  C4_4 
REMARK    2  A    between atoms: C4_4  and  C5_5 
REMARK    3  A    between atoms: C5_5  and  C6_6 
REMARK    4  A    between atoms: C6_6  and  O1_7 
REMARK       I    between atoms: N2_15  and  C12_16 
REMARK    5  A    between atoms: C12_16  and  C13_18 
REMARK    6  A    between atoms: C14_19  and  C15_20 
REMARK    7  A    between atoms: C15_20  and  N3_21 
ROOT
HETATM    1  C5  UNL     1      24.586   6.920  50.279  1.00  0.00     0.193 C 
HETATM    2  N1  UNL     1      26.019   6.768  50.436  1.00  0.00     0.111 N 
HETATM    3  C7  UNL     1      26.052   5.856  49.309  1.00  0.00     0.298 C 
HETATM    4  S1  UNL     1      25.844   4.104  49.721  1.00  0.00    -0.096 SA
HETATM    5  C8  UNL     1      24.220   3.942  48.931  1.00  0.00     0.001 C 
HETATM    6  C9  UNL     1      23.818   5.144  48.629  1.00  0.00    -0.054 C 
HETATM    7  C10 UNL     1      22.485   5.192  47.966  1.00  0.00     0.056 C 
HETATM    8  C11 UNL     1      22.049   3.891  47.376  1.00  0.00     0.131 C 
HETATM    9  N2  UNL     1      22.239   2.775  48.254  1.00  0.00    -0.344 N 
HETATM   10  C12 UNL     1      21.137   1.939  48.566  1.00  0.00     0.243 C 
HETATM   11  O2  UNL     1      20.138   2.397  47.960  1.00  0.00    -0.268 OA
HETATM   12  C18 UNL     1      23.584   2.640  48.729  1.00  0.00     0.172 C 
HETATM   13  C19 UNL     1      24.675   6.273  48.957  1.00  0.00     0.100 C 
HETATM   14  H11 UNL     1      26.358   6.288  51.281  1.00  0.00     0.318 HD
ENDROOT
BRANCH  10  15
HETATM   15  C13 UNL     1      21.242   0.783  49.437  1.00  0.00     0.072 C 
HETATM   16  C14 UNL     1      21.264   0.836  50.743  1.00  0.00     0.008 C 
BRANCH  16  17
HETATM   17  C15 UNL     1      21.201   1.939  51.717  1.00  0.00     0.299 C 
BRANCH  17  18
HETATM   18  N3  UNL     1      22.146   1.802  52.810  1.00  0.00     0.083 N 
HETATM   19  C16 UNL     1      22.547   0.420  52.991  1.00  0.00     0.309 C 
HETATM   20  C17 UNL     1      23.327   2.595  52.449  1.00  0.00     0.309 C 
ENDBRANCH  17  18
ENDBRANCH  16  17
ENDBRANCH  10  15
BRANCH   1  21
HETATM   21  C4  UNL     1      24.158   8.386  50.184  1.00  0.00     0.071 C 
BRANCH  21  22
HETATM   22  C3  UNL     1      23.125   8.617  49.165  1.00  0.00    -0.028 C 
HETATM   23  C2  UNL     1      21.809   8.666  49.410  1.00  0.00    -0.035 C 
HETATM   24  C1  UNL     1      20.944   8.915  48.210  1.00  0.00     0.036 C 
ENDBRANCH  21  22
ENDBRANCH   1  21
BRANCH   1  25
HETATM   25  C6  UNL     1      23.853   6.227  51.390  1.00  0.00     0.207 C 
BRANCH  25  26
HETATM   26  O1  UNL     1      24.442   6.673  52.593  1.00  0.00    -0.398 OA
HETATM   27  H10 UNL     1      23.954   6.271  53.349  1.00  0.00     0.209 HD
ENDBRANCH  25  26
ENDBRANCH   1  25
TORSDOF 7
ENDMDL
MODEL 8
REMARK VINA RESULT:      -6.4      9.208     12.640
REMARK  7 active torsions:
REMARK  status: ('A' for Active; 'I' for Inactive)
REMARK    1  A    between atoms: C3_3  and  C4_4 
REMARK    2  A    between atoms: C4_4  and  C5_5 
REMARK    3  A    between atoms: C5_5  and  C6_6 
REMARK    4  A    between atoms: C6_6  and  O1_7 
REMARK       I    between atoms: N2_15  and  C12_16 
REMARK    5  A    between atoms: C12_16  and  C13_18 
REMARK    6  A    between atoms: C14_19  and  C15_20 
REMARK    7  A    between atoms: C15_20  and  N3_21 
ROOT
HETATM    1  C5  UNL     1      26.663   1.203  53.091  1.00  0.00     0.193 C 
HETATM    2  N1  UNL     1      25.638   0.234  53.428  1.00  0.00     0.111 N 
HETATM    3  C7  UNL     1      24.929   0.548  52.203  1.00  0.00     0.298 C 
HETATM    4  S1  UNL     1      23.694   1.867  52.336  1.00  0.00    -0.096 SA
HETATM    5  C8  UNL     1      24.607   3.050  51.308  1.00  0.00     0.001 C 
HETATM    6  C9  UNL     1      25.798   2.556  51.119  1.00  0.00    -0.054 C 
HETATM    7  C10 UNL     1      26.688   3.412  50.285  1.00  0.00     0.056 C 
HETATM    8  C11 UNL     1      25.963   4.430  49.466  1.00  0.00     0.131 C 
HETATM    9  N2  UNL     1      24.963   5.146  50.200  1.00  0.00    -0.344 N 
HETATM   10  C12 UNL     1      25.004   6.562  50.233  1.00  0.00     0.243 C 
HETATM   11  O2  UNL     1      25.999   6.922  49.560  1.00  0.00    -0.268 OA
HETATM   12  C18 UNL     1      24.001   4.296  50.840  1.00  0.00     0.172 C 
HETATM   13  C19 UNL     1      26.127   1.271  51.719  1.00  0.00     0.100 C 
HETATM   14  H11 UNL     1      25.038   0.439  54.239  1.00  0.00     0.318 HD
ENDROOT
BRANCH  10  15
HETATM   15  C13 UNL     1      24.027   7.366  50.944  1.00  0.00     0.072 C 
HETATM   16  C14 UNL     1      23.089   8.074  50.372  1.00  0.00     0.008 C 
BRANCH  16  17
HETATM   17  C15 UNL     1      22.704   8.308  48.970  1.00  0.00     0.299 C 
BRANCH  17  18
HETATM   18  N3  UNL     1      21.334   7.929  48.674  1.00  0.00     0.083 N 
HETATM   19  C16 UNL     1      20.509   7.959  49.866  1.00  0.00     0.309 C 
HETATM   20  C17 UNL     1      20.821   8.916  47.717  1.00  0.00     0.309 C 
ENDBRANCH  17  18
ENDBRANCH  16  17
ENDBRANCH  10  15
BRANCH   1  21
HETATM   21  C4  UNL     1      28.071   0.607  53.138  1.00  0.00     0.071 C 
BRANCH  21  22
HETATM   22  C3  UNL     1      28.072  -0.862  53.174  1.00  0.00    -0.028 C 
HETATM   23  C2  UNL     1      29.175  -1.624  53.195  1.00  0.00    -0.035 C 
HETATM   24  C1  UNL     1      28.928  -3.103  53.231  1.00  0.00     0.036 C 
ENDBRANCH  21  22
ENDBRANCH   1  21
BRANCH   1  25
HETATM   25  C6  UNL     1      26.569   2.408  53.980  1.00  0.00     0.207 C 
BRANCH  25  26
HETATM   26  O1  UNL     1      27.881   2.917  54.099  1.00  0.00    -0.398 OA
HETATM   27  H10 UNL     1      28.202   2.747  55.014  1.00  0.00     0.209 HD
ENDBRANCH  25  26
ENDBRANCH   1  25
TORSDOF 7
ENDMDL
MODEL 9
REMARK VINA RESULT:      -6.3      6.691      9.692
REMARK  7 active torsions:
REMARK  status: ('A' for Active; 'I' for Inactive)
REMARK    1  A    between atoms: C3_3  and  C4_4 
REMARK    2  A    between atoms: C4_4  and  C5_5 
REMARK    3  A    between atoms: C5_5  and  C6_6 
REMARK    4  A    between atoms: C6_6  and  O1_7 
REMARK       I    between atoms: N2_15  and  C12_16 
REMARK    5  A    between atoms: C12_16  and  C13_18 
REMARK    6  A    between atoms: C14_19  and  C15_20 
REMARK    7  A    between atoms: C15_20  and  N3_21 
ROOT
HETATM    1  C5  UNL     1      21.354   1.403  52.032  1.00  0.00     0.193 C 
HETATM    2  N1  UNL     1      20.310   0.703  51.308  1.00  0.00     0.111 N 
HETATM    3  C7  UNL     1      21.134   0.697  50.114  1.00  0.00     0.298 C 
HETATM    4  S1  UNL     1      20.913   2.118  49.012  1.00  0.00    -0.096 SA
HETATM    5  C8  UNL     1      22.557   2.820  49.318  1.00  0.00     0.001 C 
HETATM    6  C9  UNL     1      23.073   2.167  50.321  1.00  0.00    -0.054 C 
HETATM    7  C10 UNL     1      24.437   2.623  50.707  1.00  0.00     0.056 C 
HETATM    8  C11 UNL     1      25.140   3.409  49.650  1.00  0.00     0.131 C 
HETATM    9  N2  UNL     1      24.321   4.420  49.051  1.00  0.00    -0.344 N 
HETATM   10  C12 UNL     1      24.770   5.765  49.041  1.00  0.00     0.243 C 
HETATM   11  O2  UNL     1      25.885   5.790  49.615  1.00  0.00    -0.268 OA
HETATM   12  C18 UNL     1      23.090   3.919  48.514  1.00  0.00     0.172 C 
HETATM   13  C19 UNL     1      22.296   1.102  50.938  1.00  0.00     0.100 C 
HETATM   14  H11 UNL     1      19.434   1.211  51.124  1.00  0.00     0.318 HD
ENDROOT
BRANCH  10  15
HETATM   15  C13 UNL     1      24.009   6.849  48.449  1.00  0.00     0.072 C 
HETATM   16  C14 UNL     1      23.247   7.675  49.117  1.00  0.00     0.008 C 
BRANCH  16  17
HETATM   17  C15 UNL     1      22.904   7.814  50.542  1.00  0.00     0.299 C 
BRANCH  17  18
HETATM   18  N3  UNL     1      21.509   7.537  50.833  1.00  0.00     0.083 N 
HETATM   19  C16 UNL     1      20.646   7.996  49.762  1.00  0.00     0.309 C 
HETATM   20  C17 UNL     1      21.385   6.079  50.951  1.00  0.00     0.309 C 
ENDBRANCH  17  18
ENDBRANCH  16  17
ENDBRANCH  10  15
BRANCH   1  21
HETATM   21  C4  UNL     1      21.733   0.703  53.338  1.00  0.00     0.071 C 
BRANCH  21  22
HETATM   22  C3  UNL     1      23.184   0.539  53.500  1.00  0.00    -0.028 C 
HETATM   23  C2  UNL     1      23.801  -0.630  53.720  1.00  0.00    -0.035 C 
HETATM   24  C1  UNL     1      25.292  -0.551  53.852  1.00  0.00     0.036 C 
ENDBRANCH  21  22
ENDBRANCH   1  21
BRANCH   1  25
HETATM   25  C6  UNL     1      20.956   2.827  52.291  1.00  0.00     0.207 C 
BRANCH  25  26
HETATM   26  O1  UNL     1      19.560   2.818  52.504  1.00  0.00    -0.398 OA
HETATM   27  H10 UNL     1      19.111   2.732  51.632  1.00  0.00     0.209 HD
ENDBRANCH  25  26
ENDBRANCH   1  25
TORSDOF 7
ENDMDL
