MODEL 1
REMARK VINA RESULT:      -8.2      0.000      0.000
REMARK  7 active torsions:
REMARK  status: ('A' for Active; 'I' for Inactive)
REMARK    1  A    between atoms: N1_2  and  C3_4 
REMARK    2  A    between atoms: C3_4  and  C4_5 
REMARK    3  A    between atoms: C5_6  and  C6_7 
REMARK       I    between atoms: C6_7  and  N2_9 
REMARK    4  A    between atoms: C13_19  and  C14_20 
REMARK    5  A    between atoms: C14_20  and  C15_21 
REMARK    6  A    between atoms: C14_20  and  C16_23 
REMARK    7  A    between atoms: C15_21  and  O2_22 
ROOT
HETATM    1  C6  UNL     1      26.109   4.292  49.877  1.00  0.00     0.243 C 
HETATM    2  O1  UNL     1      27.116   3.556  50.013  1.00  0.00    -0.268 OA
HETATM    3  N2  UNL     1      25.226   3.788  50.864  1.00  0.00    -0.344 N 
HETATM    4  C7  UNL     1      25.719   2.685  51.639  1.00  0.00     0.131 C 
HETATM    5  C8  UNL     1      24.915   2.498  52.961  1.00  0.00     0.060 C 
HETATM    6  C9  UNL     1      23.573   2.002  52.643  1.00  0.00    -0.027 A 
HETATM    7  C10 UNL     1      23.090   2.981  51.694  1.00  0.00     0.010 A 
HETATM    8  S1  UNL     1      21.465   2.427  51.263  1.00  0.00    -0.072 SA
HETATM    9  C11 UNL     1      21.481   0.988  52.305  1.00  0.00     0.112 A 
HETATM   10  N3  UNL     1      20.503   0.098  52.449  1.00  0.00    -0.234 NA
HETATM   11  C12 UNL     1      20.692  -0.927  53.285  1.00  0.00     0.234 A 
HETATM   12  N4  UNL     1      21.858  -0.923  53.877  1.00  0.00    -0.245 NA
HETATM   13  C13 UNL     1      22.892  -0.065  53.786  1.00  0.00     0.060 A 
HETATM   14  C22 UNL     1      22.697   1.011  52.910  1.00  0.00     0.033 A 
HETATM   15  C23 UNL     1      23.884   4.193  51.233  1.00  0.00     0.172 C 
ENDROOT
BRANCH  13  16
HETATM   16  C14 UNL     1      24.106  -0.299  54.591  1.00  0.00     0.095 C 
BRANCH  16  17
HETATM   17  C15 UNL     1      23.878  -0.955  55.918  1.00  0.00     0.179 C 
BRANCH  17  18
HETATM   18  O2  UNL     1      23.199  -2.140  55.905  1.00  0.00    -0.400 OA
HETATM   19  H19 UNL     1      22.511  -2.145  55.189  1.00  0.00     0.209 HD
ENDBRANCH  17  18
ENDBRANCH  16  17
BRANCH  16  20
HETATM   20  C16 UNL     1      25.356  -0.543  53.896  1.00  0.00    -0.046 A 
HETATM   21  C17 UNL     1      25.728  -1.126  52.677  1.00  0.00     0.008 A 
HETATM   22  C18 UNL     1      27.026  -1.223  52.241  1.00  0.00     0.001 A 
HETATM   23  C19 UNL     1      28.050  -0.733  53.015  1.00  0.00     0.000 A 
HETATM   24  C20 UNL     1      27.768  -0.135  54.246  1.00  0.00     0.001 A 
HETATM   25  C21 UNL     1      26.441  -0.066  54.632  1.00  0.00     0.008 A 
ENDBRANCH  16  20
ENDBRANCH  13  16
BRANCH   1  26
HETATM   26  C5  UNL     1      25.810   5.396  48.984  1.00  0.00     0.072 C 
HETATM   27  C4  UNL     1      26.752   6.083  48.370  1.00  0.00     0.008 C 
BRANCH  27  28
HETATM   28  C3  UNL     1      28.201   5.952  48.401  1.00  0.00     0.299 C 
BRANCH  28  29
HETATM   29  N1  UNL     1      28.913   7.193  48.207  1.00  0.00     0.083 N 
HETATM   30  C1  UNL     1      28.308   8.327  48.834  1.00  0.00     0.309 C 
HETATM   31  C2  UNL     1      30.321   7.100  48.430  1.00  0.00     0.309 C 
ENDBRANCH  28  29
ENDBRANCH  27  28
ENDBRANCH   1  26
TORSDOF 7
ENDMDL
MODEL 2
REMARK VINA RESULT:      -8.1      3.516      8.965
REMARK  7 active torsions:
REMARK  status: ('A' for Active; 'I' for Inactive)
REMARK    1  A    between atoms: N1_2  and  C3_4 
REMARK    2  A    between atoms: C3_4  and  C4_5 
REMARK    3  A    between atoms: C5_6  and  C6_7 
REMARK       I    between atoms: C6_7  and  N2_9 
REMARK    4  A    between atoms: C13_19  and  C14_20 
REMARK    5  A    between atoms: C14_20  and  C15_21 
REMARK    6  A    between atoms: C14_20  and  C16_23 
REMARK    7  A    between atoms: C15_21  and  O2_22 
ROOT
HETATM    1  C6  UNL     1      18.558  -0.227  51.959  1.00  0.00     0.243 C 
HETATM    2  O1  UNL     1      18.272   0.225  50.824  1.00  0.00    -0.268 OA
HETATM    3  N2  UNL     1      19.751   0.469  52.274  1.00  0.00    -0.344 N 
HETATM    4  C7  UNL     1      20.219   1.391  51.279  1.00  0.00     0.131 C 
HETATM    5  C8  UNL     1      21.230   2.420  51.867  1.00  0.00     0.060 C 
HETATM    6  C9  UNL     1      22.486   1.735  52.185  1.00  0.00    -0.027 A 
HETATM    7  C10 UNL     1      22.049   0.655  53.042  1.00  0.00     0.010 A 
HETATM    8  S1  UNL     1      23.531  -0.221  53.455  1.00  0.00    -0.072 SA
HETATM    9  C11 UNL     1      24.625   0.824  52.524  1.00  0.00     0.112 A 
HETATM   10  N3  UNL     1      25.944   0.700  52.415  1.00  0.00    -0.234 NA
HETATM   11  C12 UNL     1      26.609   1.588  51.669  1.00  0.00     0.234 A 
HETATM   12  N4  UNL     1      25.848   2.498  51.120  1.00  0.00    -0.245 NA
HETATM   13  C13 UNL     1      24.516   2.691  51.182  1.00  0.00     0.060 A 
HETATM   14  C22 UNL     1      23.816   1.762  51.963  1.00  0.00     0.033 A 
HETATM   15  C23 UNL     1      20.604   0.411  53.446  1.00  0.00     0.172 C 
ENDROOT
BRANCH  13  16
HETATM   16  C14 UNL     1      23.909   3.827  50.462  1.00  0.00     0.095 C 
BRANCH  16  17
HETATM   17  C15 UNL     1      24.577   5.150  50.676  1.00  0.00     0.179 C 
BRANCH  17  18
HETATM   18  O2  UNL     1      25.896   5.232  50.331  1.00  0.00    -0.400 OA
HETATM   19  H19 UNL     1      26.038   4.916  49.400  1.00  0.00     0.209 HD
ENDBRANCH  17  18
ENDBRANCH  16  17
BRANCH  16  20
HETATM   20  C16 UNL     1      23.261   3.568  49.190  1.00  0.00    -0.046 A 
HETATM   21  C17 UNL     1      22.862   2.427  48.482  1.00  0.00     0.008 A 
HETATM   22  C18 UNL     1      22.239   2.465  47.260  1.00  0.00     0.001 A 
HETATM   23  C19 UNL     1      21.971   3.672  46.661  1.00  0.00     0.000 A 
HETATM   24  C20 UNL     1      22.335   4.862  47.298  1.00  0.00     0.001 A 
HETATM   25  C21 UNL     1      22.961   4.759  48.529  1.00  0.00     0.008 A 
ENDBRANCH  16  20
ENDBRANCH  13  16
BRANCH   1  26
HETATM   26  C5  UNL     1      17.916  -1.203  52.820  1.00  0.00     0.072 C 
HETATM   27  C4  UNL     1      16.608  -1.338  52.882  1.00  0.00     0.008 C 
BRANCH  27  28
HETATM   28  C3  UNL     1      15.542  -0.631  52.187  1.00  0.00     0.299 C 
BRANCH  28  29
HETATM   29  N1  UNL     1      15.037   0.523  52.892  1.00  0.00     0.083 N 
HETATM   30  C1  UNL     1      15.215   1.763  52.202  1.00  0.00     0.309 C 
HETATM   31  C2  UNL     1      13.725   0.352  53.430  1.00  0.00     0.309 C 
ENDBRANCH  28  29
ENDBRANCH  27  28
ENDBRANCH   1  26
TORSDOF 7
ENDMDL
MODEL 3
REMARK VINA RESULT:      -8.0      3.934      9.034
REMARK  7 active torsions:
REMARK  status: ('A' for Active; 'I' for Inactive)
REMARK    1  A    between atoms: N1_2  and  C3_4 
REMARK    2  A    between atoms: C3_4  and  C4_5 
REMARK    3  A    between atoms: C5_6  and  C6_7 
REMARK       I    between atoms: C6_7  and  N2_9 
REMARK    4  A    between atoms: C13_19  and  C14_20 
REMARK    5  A    between atoms: C14_20  and  C15_21 
REMARK    6  A    between atoms: C14_20  and  C16_23 
REMARK    7  A    between atoms: C15_21  and  O2_22 
ROOT
HETATM    1  C6  UNL     1      17.275  -0.766  51.546  1.00  0.00     0.243 C 
HETATM    2  O1  UNL     1      17.268  -0.209  50.422  1.00  0.00    -0.268 OA
HETATM    3  N2  UNL     1      18.443  -0.233  52.145  1.00  0.00    -0.344 N 
HETATM    4  C7  UNL     1      19.189   0.694  51.343  1.00  0.00     0.131 C 
HETATM    5  C8  UNL     1      20.158   1.559  52.203  1.00  0.00     0.060 C 
HETATM    6  C9  UNL     1      21.251   0.715  52.694  1.00  0.00    -0.027 A 
HETATM    7  C10 UNL     1      20.547  -0.363  53.352  1.00  0.00     0.010 A 
HETATM    8  S1  UNL     1      21.824  -1.428  53.962  1.00  0.00    -0.072 SA
HETATM    9  C11 UNL     1      23.179  -0.454  53.354  1.00  0.00     0.112 A 
HETATM   10  N3  UNL     1      24.475  -0.720  53.490  1.00  0.00    -0.234 NA
HETATM   11  C12 UNL     1      25.360   0.135  52.966  1.00  0.00     0.234 A 
HETATM   12  N4  UNL     1      24.817   1.161  52.365  1.00  0.00    -0.245 NA
HETATM   13  C13 UNL     1      23.526   1.499  52.188  1.00  0.00     0.060 A 
HETATM   14  C22 UNL     1      22.595   0.605  52.735  1.00  0.00     0.033 A 
HETATM   15  C23 UNL     1      19.034  -0.468  53.448  1.00  0.00     0.172 C 
ENDROOT
BRANCH  13  16
HETATM   16  C14 UNL     1      23.190   2.743  51.468  1.00  0.00     0.095 C 
BRANCH  16  17
HETATM   17  C15 UNL     1      23.920   3.966  51.930  1.00  0.00     0.179 C 
BRANCH  17  18
HETATM   18  O2  UNL     1      24.186   4.051  53.267  1.00  0.00    -0.400 OA
HETATM   19  H19 UNL     1      24.408   4.985  53.524  1.00  0.00     0.209 HD
ENDBRANCH  17  18
ENDBRANCH  16  17
BRANCH  16  20
HETATM   20  C16 UNL     1      22.798   2.647  50.074  1.00  0.00    -0.046 A 
HETATM   21  C17 UNL     1      22.255   1.651  49.252  1.00  0.00     0.008 A 
HETATM   22  C18 UNL     1      21.961   1.834  47.923  1.00  0.00     0.001 A 
HETATM   23  C19 UNL     1      22.196   3.049  47.327  1.00  0.00     0.000 A 
HETATM   24  C20 UNL     1      22.736   4.099  48.075  1.00  0.00     0.001 A 
HETATM   25  C21 UNL     1      23.012   3.855  49.409  1.00  0.00     0.008 A 
ENDBRANCH  16  20
ENDBRANCH  13  16
BRANCH   1  26
HETATM   26  C5  UNL     1      16.381  -1.718  52.178  1.00  0.00     0.072 C 
HETATM   27  C4  UNL     1      15.104  -1.463  52.380  1.00  0.00     0.008 C 
BRANCH  27  28
HETATM   28  C3  UNL     1      14.306  -0.287  52.066  1.00  0.00     0.299 C 
BRANCH  28  29
HETATM   29  N1  UNL     1      14.292   0.716  53.104  1.00  0.00     0.083 N 
HETATM   30  C1  UNL     1      14.759   2.003  52.691  1.00  0.00     0.309 C 
HETATM   31  C2  UNL     1      13.078   0.763  53.856  1.00  0.00     0.309 C 
ENDBRANCH  28  29
ENDBRANCH  27  28
ENDBRANCH   1  26
TORSDOF 7
ENDMDL
MODEL 4
REMARK VINA RESULT:      -7.9      6.411      9.619
REMARK  7 active torsions:
REMARK  status: ('A' for Active; 'I' for Inactive)
REMARK    1  A    between atoms: N1_2  and  C3_4 
REMARK    2  A    between atoms: C3_4  and  C4_5 
REMARK    3  A    between atoms: C5_6  and  C6_7 
REMARK       I    between atoms: C6_7  and  N2_9 
REMARK    4  A    between atoms: C13_19  and  C14_20 
REMARK    5  A    between atoms: C14_20  and  C15_21 
REMARK    6  A    between atoms: C14_20  and  C16_23 
REMARK    7  A    between atoms: C15_21  and  O2_22 
ROOT
HETATM    1  C6  UNL     1      33.274   4.407  47.483  1.00  0.00     0.243 C 
HETATM    2  O1  UNL     1      32.660   3.548  48.161  1.00  0.00    -0.268 OA
HETATM    3  N2  UNL     1      32.379   5.504  47.496  1.00  0.00    -0.344 N 
HETATM    4  C7  UNL     1      31.154   5.303  48.216  1.00  0.00     0.131 C 
HETATM    5  C8  UNL     1      30.458   6.651  48.570  1.00  0.00     0.060 C 
HETATM    6  C9  UNL     1      29.932   7.259  47.344  1.00  0.00    -0.027 A 
HETATM    7  C10 UNL     1      31.097   7.306  46.489  1.00  0.00     0.010 A 
HETATM    8  S1  UNL     1      30.519   8.026  44.978  1.00  0.00    -0.072 SA
HETATM    9  C11 UNL     1      28.835   8.231  45.507  1.00  0.00     0.112 A 
HETATM   10  N3  UNL     1      27.835   8.747  44.799  1.00  0.00    -0.234 NA
HETATM   11  C12 UNL     1      26.627   8.825  45.365  1.00  0.00     0.234 A 
HETATM   12  N4  UNL     1      26.582   8.366  46.589  1.00  0.00    -0.245 NA
HETATM   13  C13 UNL     1      27.542   7.833  47.368  1.00  0.00     0.060 A 
HETATM   14  C22 UNL     1      28.810   7.749  46.778  1.00  0.00     0.033 A 
HETATM   15  C23 UNL     1      32.479   6.819  46.894  1.00  0.00     0.172 C 
ENDROOT
BRANCH  13  16
HETATM   16  C14 UNL     1      27.211   7.400  48.740  1.00  0.00     0.095 C 
BRANCH  16  17
HETATM   17  C15 UNL     1      26.695   8.477  49.643  1.00  0.00     0.179 C 
BRANCH  17  18
HETATM   18  O2  UNL     1      27.376   8.676  50.810  1.00  0.00    -0.400 OA
HETATM   19  H19 UNL     1      27.120   9.541  51.226  1.00  0.00     0.209 HD
ENDBRANCH  17  18
ENDBRANCH  16  17
BRANCH  16  20
HETATM   20  C16 UNL     1      26.749   6.039  48.939  1.00  0.00    -0.046 A 
HETATM   21  C17 UNL     1      27.346   4.772  48.966  1.00  0.00     0.008 A 
HETATM   22  C18 UNL     1      26.656   3.607  49.193  1.00  0.00     0.001 A 
HETATM   23  C19 UNL     1      25.301   3.642  49.414  1.00  0.00     0.000 A 
HETATM   24  C20 UNL     1      24.625   4.866  49.405  1.00  0.00     0.001 A 
HETATM   25  C21 UNL     1      25.374   6.005  49.170  1.00  0.00     0.008 A 
ENDBRANCH  16  20
ENDBRANCH  13  16
BRANCH   1  26
HETATM   26  C5  UNL     1      34.562   4.396  46.814  1.00  0.00     0.072 C 
HETATM   27  C4  UNL     1      34.676   4.381  45.502  1.00  0.00     0.008 C 
BRANCH  27  28
HETATM   28  C3  UNL     1      33.663   4.372  44.456  1.00  0.00     0.299 C 
BRANCH  28  29
HETATM   29  N1  UNL     1      34.034   5.099  43.265  1.00  0.00     0.083 N 
HETATM   30  C1  UNL     1      33.571   4.513  42.046  1.00  0.00     0.309 C 
HETATM   31  C2  UNL     1      33.808   6.507  43.344  1.00  0.00     0.309 C 
ENDBRANCH  28  29
ENDBRANCH  27  28
ENDBRANCH   1  26
TORSDOF 7
ENDMDL
MODEL 5
REMARK VINA RESULT:      -7.7      2.718      8.033
REMARK  7 active torsions:
REMARK  status: ('A' for Active; 'I' for Inactive)
REMARK    1  A    between atoms: N1_2  and  C3_4 
REMARK    2  A    between atoms: C3_4  and  C4_5 
REMARK    3  A    between atoms: C5_6  and  C6_7 
REMARK       I    between atoms: C6_7  and  N2_9 
REMARK    4  A    between atoms: C13_19  and  C14_20 
REMARK    5  A    between atoms: C14_20  and  C15_21 
REMARK    6  A    between atoms: C14_20  and  C16_23 
REMARK    7  A    between atoms: C15_21  and  O2_22 
ROOT
HETATM    1  C6  UNL     1      23.576   2.116  52.634  1.00  0.00     0.243 C 
HETATM    2  O1  UNL     1      23.933   2.982  53.469  1.00  0.00    -0.268 OA
HETATM    3  N2  UNL     1      23.895   2.733  51.399  1.00  0.00    -0.344 N 
HETATM    4  C7  UNL     1      24.472   4.044  51.486  1.00  0.00     0.131 C 
HETATM    5  C8  UNL     1      25.199   4.448  50.168  1.00  0.00     0.060 C 
HETATM    6  C9  UNL     1      24.202   4.682  49.119  1.00  0.00    -0.027 A 
HETATM    7  C10 UNL     1      23.446   3.448  49.121  1.00  0.00     0.010 A 
HETATM    8  S1  UNL     1      22.212   3.675  47.872  1.00  0.00    -0.072 SA
HETATM    9  C11 UNL     1      22.716   5.316  47.413  1.00  0.00     0.112 A 
HETATM   10  N3  UNL     1      22.166   6.086  46.479  1.00  0.00    -0.234 NA
HETATM   11  C12 UNL     1      22.684   7.300  46.268  1.00  0.00     0.234 A 
HETATM   12  N4  UNL     1      23.704   7.585  47.035  1.00  0.00    -0.245 NA
HETATM   13  C13 UNL     1      24.315   6.865  47.995  1.00  0.00     0.060 A 
HETATM   14  C22 UNL     1      23.774   5.592  48.220  1.00  0.00     0.033 A 
HETATM   15  C23 UNL     1      23.732   2.268  50.035  1.00  0.00     0.172 C 
ENDROOT
BRANCH  13  16
HETATM   16  C14 UNL     1      25.473   7.436  48.709  1.00  0.00     0.095 C 
BRANCH  16  17
HETATM   17  C15 UNL     1      25.211   7.852  50.123  1.00  0.00     0.179 C 
BRANCH  17  18
HETATM   18  O2  UNL     1      26.222   7.646  51.019  1.00  0.00    -0.400 OA
HETATM   19  H19 UNL     1      26.373   6.675  51.163  1.00  0.00     0.209 HD
ENDBRANCH  17  18
ENDBRANCH  16  17
BRANCH  16  20
HETATM   20  C16 UNL     1      26.800   6.970  48.352  1.00  0.00    -0.046 A 
HETATM   21  C17 UNL     1      27.529   5.787  48.531  1.00  0.00     0.008 A 
HETATM   22  C18 UNL     1      28.808   5.600  48.068  1.00  0.00     0.001 A 
HETATM   23  C19 UNL     1      29.446   6.606  47.383  1.00  0.00     0.000 A 
HETATM   24  C20 UNL     1      28.791   7.820  47.158  1.00  0.00     0.001 A 
HETATM   25  C21 UNL     1      27.503   7.949  47.649  1.00  0.00     0.008 A 
ENDBRANCH  16  20
ENDBRANCH  13  16
BRANCH   1  26
HETATM   26  C5  UNL     1      22.984   0.799  52.773  1.00  0.00     0.072 C 
HETATM   27  C4  UNL     1      23.664  -0.239  53.215  1.00  0.00     0.008 C 
BRANCH  27  28
HETATM   28  C3  UNL     1      25.050  -0.358  53.645  1.00  0.00     0.299 C 
BRANCH  28  29
HETATM   29  N1  UNL     1      25.996  -0.509  52.565  1.00  0.00     0.083 N 
HETATM   30  C1  UNL     1      26.807   0.644  52.322  1.00  0.00     0.309 C 
HETATM   31  C2  UNL     1      26.735  -1.731  52.600  1.00  0.00     0.309 C 
ENDBRANCH  28  29
ENDBRANCH  27  28
ENDBRANCH   1  26
TORSDOF 7
ENDMDL
MODEL 6
REMARK VINA RESULT:      -7.6      3.887      7.790
REMARK  7 active torsions:
REMARK  status: ('A' for Active; 'I' for Inactive)
REMARK    1  A    between atoms: N1_2  and  C3_4 
REMARK    2  A    between atoms: C3_4  and  C4_5 
REMARK    3  A    between atoms: C5_6  and  C6_7 
REMARK       I    between atoms: C6_7  and  N2_9 
REMARK    4  A    between atoms: C13_19  and  C14_20 
REMARK    5  A    between atoms: C14_20  and  C15_21 
REMARK    6  A    between atoms: C14_20  and  C16_23 
REMARK    7  A    between atoms: C15_21  and  O2_22 
ROOT
HETATM    1  C6  UNL     1      17.236   0.435  50.056  1.00  0.00     0.243 C 
HETATM    2  O1  UNL     1      17.427  -0.528  50.838  1.00  0.00    -0.268 OA
HETATM    3  N2  UNL     1      18.509   1.055  50.018  1.00  0.00    -0.344 N 
HETATM    4  C7  UNL     1      19.528   0.442  50.822  1.00  0.00     0.131 C 
HETATM    5  C8  UNL     1      20.957   0.880  50.383  1.00  0.00     0.060 C 
HETATM    6  C9  UNL     1      21.163   2.285  50.745  1.00  0.00    -0.027 A 
HETATM    7  C10 UNL     1      20.036   2.942  50.120  1.00  0.00     0.010 A 
HETATM    8  S1  UNL     1      20.227   4.653  50.533  1.00  0.00    -0.072 SA
HETATM    9  C11 UNL     1      21.720   4.449  51.472  1.00  0.00     0.112 A 
HETATM   10  N3  UNL     1      22.414   5.405  52.083  1.00  0.00    -0.234 NA
HETATM   11  C12 UNL     1      23.524   5.063  52.746  1.00  0.00     0.234 A 
HETATM   12  N4  UNL     1      23.795   3.785  52.707  1.00  0.00    -0.245 NA
HETATM   13  C13 UNL     1      23.148   2.762  52.114  1.00  0.00     0.060 A 
HETATM   14  C22 UNL     1      21.984   3.117  51.420  1.00  0.00     0.033 A 
HETATM   15  C23 UNL     1      18.973   2.227  49.302  1.00  0.00     0.172 C 
ENDROOT
BRANCH  13  16
HETATM   16  C14 UNL     1      23.693   1.395  52.223  1.00  0.00     0.095 C 
BRANCH  16  17
HETATM   17  C15 UNL     1      25.124   1.242  51.810  1.00  0.00     0.179 C 
BRANCH  17  18
HETATM   18  O2  UNL     1      25.639   2.223  51.011  1.00  0.00    -0.400 OA
HETATM   19  H19 UNL     1      26.568   2.446  51.282  1.00  0.00     0.209 HD
ENDBRANCH  17  18
ENDBRANCH  16  17
BRANCH  16  20
HETATM   20  C16 UNL     1      23.166   0.525  53.258  1.00  0.00    -0.046 A 
HETATM   21  C17 UNL     1      21.904   0.276  53.812  1.00  0.00     0.008 A 
HETATM   22  C18 UNL     1      21.674  -0.639  54.810  1.00  0.00     0.001 A 
HETATM   23  C19 UNL     1      22.715  -1.374  55.322  1.00  0.00     0.000 A 
HETATM   24  C20 UNL     1      24.009  -1.189  54.826  1.00  0.00     0.001 A 
HETATM   25  C21 UNL     1      24.178  -0.253  53.821  1.00  0.00     0.008 A 
ENDBRANCH  16  20
ENDBRANCH  13  16
BRANCH   1  26
HETATM   26  C5  UNL     1      16.069   0.892  49.324  1.00  0.00     0.072 C 
HETATM   27  C4  UNL     1      15.121   1.613  49.885  1.00  0.00     0.008 C 
BRANCH  27  28
HETATM   28  C3  UNL     1      14.979   2.109  51.247  1.00  0.00     0.299 C 
BRANCH  28  29
HETATM   29  N1  UNL     1      15.234   3.522  51.394  1.00  0.00     0.083 N 
HETATM   30  C1  UNL     1      16.590   3.849  51.709  1.00  0.00     0.309 C 
HETATM   31  C2  UNL     1      14.678   4.328  50.354  1.00  0.00     0.309 C 
ENDBRANCH  28  29
ENDBRANCH  27  28
ENDBRANCH   1  26
TORSDOF 7
ENDMDL
MODEL 7
REMARK VINA RESULT:      -7.6      7.046     10.003
REMARK  7 active torsions:
REMARK  status: ('A' for Active; 'I' for Inactive)
REMARK    1  A    between atoms: N1_2  and  C3_4 
REMARK    2  A    between atoms: C3_4  and  C4_5 
REMARK    3  A    between atoms: C5_6  and  C6_7 
REMARK       I    between atoms: C6_7  and  N2_9 
REMARK    4  A    between atoms: C13_19  and  C14_20 
REMARK    5  A    between atoms: C14_20  and  C15_21 
REMARK    6  A    between atoms: C14_20  and  C16_23 
REMARK    7  A    between atoms: C15_21  and  O2_22 
ROOT
HETATM    1  C6  UNL     1      29.828  12.820  47.095  1.00  0.00     0.243 C 
HETATM    2  O1  UNL     1      30.777  12.586  46.308  1.00  0.00    -0.268 OA
HETATM    3  N2  UNL     1      29.730  11.609  47.824  1.00  0.00    -0.344 N 
HETATM    4  C7  UNL     1      30.664  10.582  47.460  1.00  0.00     0.131 C 
HETATM    5  C8  UNL     1      30.801   9.499  48.571  1.00  0.00     0.060 C 
HETATM    6  C9  UNL     1      29.568   8.708  48.629  1.00  0.00    -0.027 A 
HETATM    7  C10 UNL     1      28.550   9.721  48.798  1.00  0.00     0.010 A 
HETATM    8  S1  UNL     1      27.027   8.822  48.865  1.00  0.00    -0.072 SA
HETATM    9  C11 UNL     1      27.757   7.213  48.678  1.00  0.00     0.112 A 
HETATM   10  N3  UNL     1      27.118   6.047  48.648  1.00  0.00    -0.234 NA
HETATM   11  C12 UNL     1      27.838   4.930  48.501  1.00  0.00     0.234 A 
HETATM   12  N4  UNL     1      29.125   5.135  48.402  1.00  0.00    -0.245 NA
HETATM   13  C13 UNL     1      29.842   6.274  48.424  1.00  0.00     0.060 A 
HETATM   14  C22 UNL     1      29.092   7.447  48.576  1.00  0.00     0.033 A 
HETATM   15  C23 UNL     1      28.830  11.212  48.890  1.00  0.00     0.172 C 
ENDROOT
BRANCH  13  16
HETATM   16  C14 UNL     1      31.312   6.213  48.301  1.00  0.00     0.095 C 
BRANCH  16  17
HETATM   17  C15 UNL     1      32.043   5.842  49.554  1.00  0.00     0.179 C 
BRANCH  17  18
HETATM   18  O2  UNL     1      31.293   5.320  50.569  1.00  0.00    -0.400 OA
HETATM   19  H19 UNL     1      30.736   4.565  50.244  1.00  0.00     0.209 HD
ENDBRANCH  17  18
ENDBRANCH  16  17
BRANCH  16  20
HETATM   20  C16 UNL     1      31.880   5.833  47.021  1.00  0.00    -0.046 A 
HETATM   21  C17 UNL     1      32.201   6.498  45.830  1.00  0.00     0.008 A 
HETATM   22  C18 UNL     1      32.757   5.881  44.737  1.00  0.00     0.001 A 
HETATM   23  C19 UNL     1      33.034   4.536  44.772  1.00  0.00     0.000 A 
HETATM   24  C20 UNL     1      32.746   3.796  45.923  1.00  0.00     0.001 A 
HETATM   25  C21 UNL     1      32.185   4.472  46.992  1.00  0.00     0.008 A 
ENDBRANCH  16  20
ENDBRANCH  13  16
BRANCH   1  26
HETATM   26  C5  UNL     1      28.982  13.981  47.300  1.00  0.00     0.072 C 
HETATM   27  C4  UNL     1      27.775  14.075  46.781  1.00  0.00     0.008 C 
BRANCH  27  28
HETATM   28  C3  UNL     1      27.020  13.152  45.947  1.00  0.00     0.299 C 
BRANCH  28  29
HETATM   29  N1  UNL     1      26.067  12.343  46.669  1.00  0.00     0.083 N 
HETATM   30  C1  UNL     1      25.628  12.908  47.906  1.00  0.00     0.309 C 
HETATM   31  C2  UNL     1      25.003  11.832  45.864  1.00  0.00     0.309 C 
ENDBRANCH  28  29
ENDBRANCH  27  28
ENDBRANCH   1  26
TORSDOF 7
ENDMDL
MODEL 8
REMARK VINA RESULT:      -7.6      2.977      9.558
REMARK  7 active torsions:
REMARK  status: ('A' for Active; 'I' for Inactive)
REMARK    1  A    between atoms: N1_2  and  C3_4 
REMARK    2  A    between atoms: C3_4  and  C4_5 
REMARK    3  A    between atoms: C5_6  and  C6_7 
REMARK       I    between atoms: C6_7  and  N2_9 
REMARK    4  A    between atoms: C13_19  and  C14_20 
REMARK    5  A    between atoms: C14_20  and  C15_21 
REMARK    6  A    between atoms: C14_20  and  C16_23 
REMARK    7  A    between atoms: C15_21  and  O2_22 
ROOT
HETATM    1  C6  UNL     1      25.762   3.108  50.830  1.00  0.00     0.243 C 
HETATM    2  O1  UNL     1      26.880   2.554  50.700  1.00  0.00    -0.268 OA
HETATM    3  N2  UNL     1      25.913   4.285  50.056  1.00  0.00    -0.344 N 
HETATM    4  C7  UNL     1      27.190   4.459  49.425  1.00  0.00     0.131 C 
HETATM    5  C8  UNL     1      27.129   5.493  48.261  1.00  0.00     0.060 C 
HETATM    6  C9  UNL     1      26.939   6.836  48.817  1.00  0.00    -0.027 A 
HETATM    7  C10 UNL     1      25.759   6.674  49.637  1.00  0.00     0.010 A 
HETATM    8  S1  UNL     1      25.482   8.272  50.349  1.00  0.00    -0.072 SA
HETATM    9  C11 UNL     1      26.872   9.059  49.571  1.00  0.00     0.112 A 
HETATM   10  N3  UNL     1      27.240  10.331  49.699  1.00  0.00    -0.234 NA
HETATM   11  C12 UNL     1      28.319  10.752  49.031  1.00  0.00     0.234 A 
HETATM   12  N4  UNL     1      28.895   9.825  48.311  1.00  0.00    -0.245 NA
HETATM   13  C13 UNL     1      28.585   8.527  48.130  1.00  0.00     0.060 A 
HETATM   14  C22 UNL     1      27.455   8.082  48.829  1.00  0.00     0.033 A 
HETATM   15  C23 UNL     1      24.990   5.371  49.788  1.00  0.00     0.172 C 
ENDROOT
BRANCH  13  16
HETATM   16  C14 UNL     1      29.415   7.697  47.236  1.00  0.00     0.095 C 
BRANCH  16  17
HETATM   17  C15 UNL     1      29.463   8.145  45.808  1.00  0.00     0.179 C 
BRANCH  17  18
HETATM   18  O2  UNL     1      28.764   9.277  45.499  1.00  0.00    -0.400 OA
HETATM   19  H19 UNL     1      27.999   9.067  44.901  1.00  0.00     0.209 HD
ENDBRANCH  17  18
ENDBRANCH  16  17
BRANCH  16  20
HETATM   20  C16 UNL     1      30.573   7.026  47.798  1.00  0.00    -0.046 A 
HETATM   21  C17 UNL     1      30.863   5.730  48.242  1.00  0.00     0.008 A 
HETATM   22  C18 UNL     1      32.086   5.347  48.736  1.00  0.00     0.001 A 
HETATM   23  C19 UNL     1      33.111   6.257  48.816  1.00  0.00     0.000 A 
HETATM   24  C20 UNL     1      32.908   7.575  48.394  1.00  0.00     0.001 A 
HETATM   25  C21 UNL     1      31.655   7.900  47.905  1.00  0.00     0.008 A 
ENDBRANCH  16  20
ENDBRANCH  13  16
BRANCH   1  26
HETATM   26  C5  UNL     1      24.558   2.741  51.552  1.00  0.00     0.072 C 
HETATM   27  C4  UNL     1      24.591   2.226  52.764  1.00  0.00     0.008 C 
BRANCH  27  28
HETATM   28  C3  UNL     1      25.713   1.911  53.637  1.00  0.00     0.299 C 
BRANCH  28  29
HETATM   29  N1  UNL     1      25.886   0.502  53.897  1.00  0.00     0.083 N 
HETATM   30  C1  UNL     1      26.128  -0.290  52.731  1.00  0.00     0.309 C 
HETATM   31  C2  UNL     1      26.771   0.211  54.979  1.00  0.00     0.309 C 
ENDBRANCH  28  29
ENDBRANCH  27  28
ENDBRANCH   1  26
TORSDOF 7
ENDMDL
MODEL 9
REMARK VINA RESULT:      -7.6      2.994      8.203
REMARK  7 active torsions:
REMARK  status: ('A' for Active; 'I' for Inactive)
REMARK    1  A    between atoms: N1_2  and  C3_4 
REMARK    2  A    between atoms: C3_4  and  C4_5 
REMARK    3  A    between atoms: C5_6  and  C6_7 
REMARK       I    between atoms: C6_7  and  N2_9 
REMARK    4  A    between atoms: C13_19  and  C14_20 
REMARK    5  A    between atoms: C14_20  and  C15_21 
REMARK    6  A    between atoms: C14_20  and  C16_23 
REMARK    7  A    between atoms: C15_21  and  O2_22 
ROOT
HETATM    1  C6  UNL     1      25.992   1.850  51.960  1.00  0.00     0.243 C 
HETATM    2  O1  UNL     1      27.121   2.361  51.764  1.00  0.00    -0.268 OA
HETATM    3  N2  UNL     1      25.149   2.656  51.157  1.00  0.00    -0.344 N 
HETATM    4  C7  UNL     1      25.795   3.716  50.438  1.00  0.00     0.131 C 
HETATM    5  C8  UNL     1      24.918   4.243  49.262  1.00  0.00     0.060 C 
HETATM    6  C9  UNL     1      23.770   4.973  49.807  1.00  0.00    -0.027 A 
HETATM    7  C10 UNL     1      23.180   4.008  50.708  1.00  0.00     0.010 A 
HETATM    8  S1  UNL     1      21.783   4.841  51.409  1.00  0.00    -0.072 SA
HETATM    9  C11 UNL     1      22.019   6.364  50.525  1.00  0.00     0.112 A 
HETATM   10  N3  UNL     1      21.264   7.456  50.605  1.00  0.00    -0.234 NA
HETATM   11  C12 UNL     1      21.593   8.515  49.858  1.00  0.00     0.234 A 
HETATM   12  N4  UNL     1      22.655   8.334  49.117  1.00  0.00    -0.245 NA
HETATM   13  C13 UNL     1      23.466   7.268  48.980  1.00  0.00     0.060 A 
HETATM   14  C22 UNL     1      23.124   6.156  49.762  1.00  0.00     0.033 A 
HETATM   15  C23 UNL     1      23.717   2.604  50.933  1.00  0.00     0.172 C 
ENDROOT
BRANCH  13  16
HETATM   16  C14 UNL     1      24.606   7.334  48.046  1.00  0.00     0.095 C 
BRANCH  16  17
HETATM   17  C15 UNL     1      24.246   7.568  46.612  1.00  0.00     0.179 C 
BRANCH  17  18
HETATM   18  O2  UNL     1      23.575   8.724  46.331  1.00  0.00    -0.400 OA
HETATM   19  H19 UNL     1      23.903   9.125  45.483  1.00  0.00     0.209 HD
ENDBRANCH  17  18
ENDBRANCH  16  17
BRANCH  16  20
HETATM   20  C16 UNL     1      25.872   7.842  48.542  1.00  0.00    -0.046 A 
HETATM   21  C17 UNL     1      26.272   8.714  49.562  1.00  0.00     0.008 A 
HETATM   22  C18 UNL     1      27.582   9.026  49.832  1.00  0.00     0.001 A 
HETATM   23  C19 UNL     1      28.589   8.472  49.081  1.00  0.00     0.000 A 
HETATM   24  C20 UNL     1      28.279   7.590  48.041  1.00  0.00     0.001 A 
HETATM   25  C21 UNL     1      26.942   7.314  47.818  1.00  0.00     0.008 A 
ENDBRANCH  16  20
ENDBRANCH  13  16
BRANCH   1  26
HETATM   26  C5  UNL     1      25.545   0.731  52.768  1.00  0.00     0.072 C 
HETATM   27  C4  UNL     1      26.333  -0.278  53.076  1.00  0.00     0.008 C 
BRANCH  27  28
HETATM   28  C3  UNL     1      27.725  -0.540  52.736  1.00  0.00     0.299 C 
BRANCH  28  29
HETATM   29  N1  UNL     1      28.606  -0.638  53.876  1.00  0.00     0.083 N 
HETATM   30  C1  UNL     1      29.983  -0.835  53.545  1.00  0.00     0.309 C 
HETATM   31  C2  UNL     1      28.394   0.368  54.868  1.00  0.00     0.309 C 
ENDBRANCH  28  29
ENDBRANCH  27  28
ENDBRANCH   1  26
TORSDOF 7
ENDMDL
