MODEL 1
REMARK VINA RESULT:      -8.5      0.000      0.000
REMARK  4 active torsions:
REMARK  status: ('A' for Active; 'I' for Inactive)
REMARK    1  A    between atoms: C2_2  and  C3_3 
REMARK    2  A    between atoms: C2_2  and  N1_10 
REMARK    3  A    between atoms: C3_3  and  C4_4 
REMARK    4  A    between atoms: N2_11  and  N3_12 
ROOT
HETATM    1  N3  UNL     1      26.616   1.396  52.007  1.00  0.00    -0.237 N 
HETATM    2  C10 UNL     1      26.697  -0.005  51.740  1.00  0.00     0.119 C 
HETATM    3  C11 UNL     1      27.003  -0.648  52.840  1.00  0.00    -0.057 C 
HETATM    4  C12 UNL     1      27.161  -2.126  52.890  1.00  0.00     0.045 C 
HETATM    5  C13 UNL     1      27.165   0.261  53.987  1.00  0.00     0.083 C 
HETATM    6  C14 UNL     1      28.570   0.288  54.540  1.00  0.00     0.188 C 
HETATM    7  N4  UNL     1      29.428   1.205  53.842  1.00  0.00    -0.174 NA
HETATM    8  N5  UNL     1      28.980   2.325  53.490  1.00  0.00    -0.076 NA
HETATM    9  N6  UNL     1      27.672   2.661  53.777  1.00  0.00    -0.270 N 
HETATM   10  C15 UNL     1      26.745   1.608  53.454  1.00  0.00     0.237 C 
HETATM   11  H17 UNL     1      27.336   3.578  54.188  1.00  0.00     0.186 HD
ENDROOT
BRANCH   1  12
HETATM   12  N2  UNL     1      26.453   2.589  51.294  1.00  0.00    -0.064 NA
HETATM   13  N1  UNL     1      25.330   3.176  51.374  1.00  0.00    -0.141 NA
BRANCH  13  14
HETATM   14  C2  UNL     1      24.283   2.659  52.146  1.00  0.00     0.041 C 
HETATM   15  C1  UNL     1      24.075   3.304  53.282  1.00  0.00     0.062 C 
BRANCH  14  16
HETATM   16  C3  UNL     1      23.564   1.483  51.594  1.00  0.00     0.095 C 
BRANCH  16  17
HETATM   17  C4  UNL     1      22.816   0.754  52.658  1.00  0.00    -0.053 A 
HETATM   18  C5  UNL     1      23.454  -0.229  53.357  1.00  0.00     0.007 A 
HETATM   19  C6  UNL     1      22.722  -0.880  54.336  1.00  0.00     0.001 A 
HETATM   20  C7  UNL     1      21.397  -0.556  54.605  1.00  0.00     0.000 A 
HETATM   21  C8  UNL     1      20.797   0.448  53.869  1.00  0.00     0.001 A 
HETATM   22  C9  UNL     1      21.500   1.131  52.871  1.00  0.00     0.007 A 
ENDBRANCH  16  17
ENDBRANCH  14  16
ENDBRANCH  13  14
ENDBRANCH   1  12
TORSDOF 4
ENDMDL
MODEL 2
REMARK VINA RESULT:      -7.6      2.763      4.703
REMARK  4 active torsions:
REMARK  status: ('A' for Active; 'I' for Inactive)
REMARK    1  A    between atoms: C2_2  and  C3_3 
REMARK    2  A    between atoms: C2_2  and  N1_10 
REMARK    3  A    between atoms: C3_3  and  C4_4 
REMARK    4  A    between atoms: N2_11  and  N3_12 
ROOT
HETATM    1  N3  UNL     1      25.165   1.506  53.122  1.00  0.00    -0.237 N 
HETATM    2  C10 UNL     1      26.184   2.419  53.531  1.00  0.00     0.119 C 
HETATM    3  C11 UNL     1      27.358   1.960  53.176  1.00  0.00    -0.057 C 
HETATM    4  C12 UNL     1      28.625   2.686  53.459  1.00  0.00     0.045 C 
HETATM    5  C13 UNL     1      27.260   0.667  52.478  1.00  0.00     0.083 C 
HETATM    6  C14 UNL     1      27.911  -0.472  53.226  1.00  0.00     0.188 C 
HETATM    7  N4  UNL     1      27.041  -1.067  54.204  1.00  0.00    -0.174 NA
HETATM    8  N5  UNL     1      25.829  -1.244  53.927  1.00  0.00    -0.076 NA
HETATM    9  N6  UNL     1      25.345  -0.866  52.689  1.00  0.00    -0.270 N 
HETATM   10  C15 UNL     1      25.777   0.453  52.304  1.00  0.00     0.237 C 
HETATM   11  H17 UNL     1      24.723  -1.445  52.056  1.00  0.00     0.186 HD
ENDROOT
BRANCH   1  12
HETATM   12  N2  UNL     1      23.784   1.340  53.279  1.00  0.00    -0.064 NA
HETATM   13  N1  UNL     1      23.018   2.137  52.653  1.00  0.00    -0.141 NA
BRANCH  13  14
HETATM   14  C2  UNL     1      23.525   3.150  51.830  1.00  0.00     0.041 C 
HETATM   15  C1  UNL     1      23.656   4.322  52.428  1.00  0.00     0.062 C 
BRANCH  14  16
HETATM   16  C3  UNL     1      23.840   2.777  50.428  1.00  0.00     0.095 C 
BRANCH  16  17
HETATM   17  C4  UNL     1      24.871   3.679  49.843  1.00  0.00    -0.053 A 
HETATM   18  C5  UNL     1      26.175   3.274  49.836  1.00  0.00     0.007 A 
HETATM   19  C6  UNL     1      27.100   4.144  49.283  1.00  0.00     0.001 A 
HETATM   20  C7  UNL     1      26.732   5.375  48.754  1.00  0.00     0.000 A 
HETATM   21  C8  UNL     1      25.398   5.738  48.784  1.00  0.00     0.001 A 
HETATM   22  C9  UNL     1      24.431   4.891  49.334  1.00  0.00     0.007 A 
ENDBRANCH  16  17
ENDBRANCH  14  16
ENDBRANCH  13  14
ENDBRANCH   1  12
TORSDOF 4
ENDMDL
MODEL 3
REMARK VINA RESULT:      -7.5      2.371      5.829
REMARK  4 active torsions:
REMARK  status: ('A' for Active; 'I' for Inactive)
REMARK    1  A    between atoms: C2_2  and  C3_3 
REMARK    2  A    between atoms: C2_2  and  N1_10 
REMARK    3  A    between atoms: C3_3  and  C4_4 
REMARK    4  A    between atoms: N2_11  and  N3_12 
ROOT
HETATM    1  N3  UNL     1      23.862   2.822  51.573  1.00  0.00    -0.237 N 
HETATM    2  C10 UNL     1      22.822   2.083  50.932  1.00  0.00     0.119 C 
HETATM    3  C11 UNL     1      22.848   2.311  49.642  1.00  0.00    -0.057 C 
HETATM    4  C12 UNL     1      21.887   1.686  48.695  1.00  0.00     0.045 C 
HETATM    5  C13 UNL     1      23.925   3.242  49.265  1.00  0.00     0.083 C 
HETATM    6  C14 UNL     1      23.420   4.547  48.694  1.00  0.00     0.188 C 
HETATM    7  N4  UNL     1      23.098   5.513  49.707  1.00  0.00    -0.174 NA
HETATM    8  N5  UNL     1      23.848   5.633  50.709  1.00  0.00    -0.076 NA
HETATM    9  N6  UNL     1      24.970   4.836  50.824  1.00  0.00    -0.270 N 
HETATM   10  C15 UNL     1      24.698   3.450  50.544  1.00  0.00     0.237 C 
HETATM   11  H17 UNL     1      25.944   5.160  51.087  1.00  0.00     0.186 HD
ENDROOT
BRANCH   1  12
HETATM   12  N2  UNL     1      24.295   3.105  52.874  1.00  0.00    -0.064 NA
HETATM   13  N1  UNL     1      24.866   2.174  53.523  1.00  0.00    -0.141 NA
BRANCH  13  14
HETATM   14  C2  UNL     1      25.061   0.903  52.968  1.00  0.00     0.041 C 
HETATM   15  C1  UNL     1      24.208  -0.013  53.394  1.00  0.00     0.062 C 
BRANCH  14  16
HETATM   16  C3  UNL     1      26.176   0.763  51.997  1.00  0.00     0.095 C 
BRANCH  16  17
HETATM   17  C4  UNL     1      27.412   0.258  52.658  1.00  0.00    -0.053 A 
HETATM   18  C5  UNL     1      28.285   1.156  53.200  1.00  0.00     0.007 A 
HETATM   19  C6  UNL     1      29.421   0.644  53.804  1.00  0.00     0.001 A 
HETATM   20  C7  UNL     1      29.673  -0.722  53.863  1.00  0.00     0.000 A 
HETATM   21  C8  UNL     1      28.757  -1.590  53.300  1.00  0.00     0.001 A 
HETATM   22  C9  UNL     1      27.597  -1.116  52.680  1.00  0.00     0.007 A 
ENDBRANCH  16  17
ENDBRANCH  14  16
ENDBRANCH  13  14
ENDBRANCH   1  12
TORSDOF 4
ENDMDL
MODEL 4
REMARK VINA RESULT:      -7.4      1.463      2.172
REMARK  4 active torsions:
REMARK  status: ('A' for Active; 'I' for Inactive)
REMARK    1  A    between atoms: C2_2  and  C3_3 
REMARK    2  A    between atoms: C2_2  and  N1_10 
REMARK    3  A    between atoms: C3_3  and  C4_4 
REMARK    4  A    between atoms: N2_11  and  N3_12 
ROOT
HETATM    1  N3  UNL     1      26.585   1.551  52.114  1.00  0.00    -0.237 N 
HETATM    2  C10 UNL     1      26.789   0.178  51.781  1.00  0.00     0.119 C 
HETATM    3  C11 UNL     1      26.959  -0.521  52.875  1.00  0.00    -0.057 C 
HETATM    4  C12 UNL     1      27.196  -1.990  52.863  1.00  0.00     0.045 C 
HETATM    5  C13 UNL     1      26.887   0.314  54.086  1.00  0.00     0.083 C 
HETATM    6  C14 UNL     1      28.185   0.374  54.855  1.00  0.00     0.188 C 
HETATM    7  N4  UNL     1      29.084   1.378  54.358  1.00  0.00    -0.174 NA
HETATM    8  N5  UNL     1      28.630   2.496  54.005  1.00  0.00    -0.076 NA
HETATM    9  N6  UNL     1      27.275   2.746  54.100  1.00  0.00    -0.270 N 
HETATM   10  C15 UNL     1      26.474   1.672  53.572  1.00  0.00     0.237 C 
HETATM   11  H17 UNL     1      26.825   3.615  54.506  1.00  0.00     0.186 HD
ENDROOT
BRANCH   1  12
HETATM   12  N2  UNL     1      26.463   2.781  51.455  1.00  0.00    -0.064 NA
HETATM   13  N1  UNL     1      25.297   3.268  51.325  1.00  0.00    -0.141 NA
BRANCH  13  14
HETATM   14  C2  UNL     1      24.165   2.609  51.818  1.00  0.00     0.041 C 
HETATM   15  C1  UNL     1      23.543   3.253  52.791  1.00  0.00     0.062 C 
BRANCH  14  16
HETATM   16  C3  UNL     1      23.826   1.306  51.194  1.00  0.00     0.095 C 
BRANCH  16  17
HETATM   17  C4  UNL     1      22.408   1.274  50.737  1.00  0.00    -0.053 A 
HETATM   18  C5  UNL     1      21.498   0.556  51.458  1.00  0.00     0.007 A 
HETATM   19  C6  UNL     1      20.192   0.554  50.998  1.00  0.00     0.001 A 
HETATM   20  C7  UNL     1      19.811   1.247  49.855  1.00  0.00     0.000 A 
HETATM   21  C8  UNL     1      20.770   1.960  49.161  1.00  0.00     0.001 A 
HETATM   22  C9  UNL     1      22.100   1.989  49.590  1.00  0.00     0.007 A 
ENDBRANCH  16  17
ENDBRANCH  14  16
ENDBRANCH  13  14
ENDBRANCH   1  12
TORSDOF 4
ENDMDL
MODEL 5
REMARK VINA RESULT:      -7.2      3.314      5.522
REMARK  4 active torsions:
REMARK  status: ('A' for Active; 'I' for Inactive)
REMARK    1  A    between atoms: C2_2  and  C3_3 
REMARK    2  A    between atoms: C2_2  and  N1_10 
REMARK    3  A    between atoms: C3_3  and  C4_4 
REMARK    4  A    between atoms: N2_11  and  N3_12 
ROOT
HETATM    1  N3  UNL     1      23.032   2.466  52.502  1.00  0.00    -0.237 N 
HETATM    2  C10 UNL     1      24.231   2.895  53.149  1.00  0.00     0.119 C 
HETATM    3  C11 UNL     1      25.123   1.938  53.107  1.00  0.00    -0.057 C 
HETATM    4  C12 UNL     1      26.481   2.077  53.697  1.00  0.00     0.045 C 
HETATM    5  C13 UNL     1      24.619   0.739  52.417  1.00  0.00     0.083 C 
HETATM    6  C14 UNL     1      24.508  -0.471  53.314  1.00  0.00     0.188 C 
HETATM    7  N4  UNL     1      23.270  -0.514  54.043  1.00  0.00    -0.174 NA
HETATM    8  N5  UNL     1      22.202  -0.185  53.469  1.00  0.00    -0.076 NA
HETATM    9  N6  UNL     1      22.229   0.213  52.147  1.00  0.00    -0.270 N 
HETATM   10  C15 UNL     1      23.277   1.163  51.874  1.00  0.00     0.237 C 
HETATM   11  H17 UNL     1      21.573  -0.113  51.381  1.00  0.00     0.186 HD
ENDROOT
BRANCH   1  12
HETATM   12  N2  UNL     1      21.726   2.930  52.305  1.00  0.00    -0.064 NA
HETATM   13  N1  UNL     1      21.565   3.944  51.558  1.00  0.00    -0.141 NA
BRANCH  13  14
HETATM   14  C2  UNL     1      22.649   4.586  50.946  1.00  0.00     0.041 C 
HETATM   15  C1  UNL     1      23.148   5.593  51.643  1.00  0.00     0.062 C 
BRANCH  14  16
HETATM   16  C3  UNL     1      23.080   4.058  49.627  1.00  0.00     0.095 C 
BRANCH  16  17
HETATM   17  C4  UNL     1      24.534   4.290  49.397  1.00  0.00    -0.053 A 
HETATM   18  C5  UNL     1      25.417   3.300  49.713  1.00  0.00     0.007 A 
HETATM   19  C6  UNL     1      26.759   3.557  49.482  1.00  0.00     0.001 A 
HETATM   20  C7  UNL     1      27.198   4.765  48.953  1.00  0.00     0.000 A 
HETATM   21  C8  UNL     1      26.263   5.735  48.649  1.00  0.00     0.001 A 
HETATM   22  C9  UNL     1      24.899   5.517  48.866  1.00  0.00     0.007 A 
ENDBRANCH  16  17
ENDBRANCH  14  16
ENDBRANCH  13  14
ENDBRANCH   1  12
TORSDOF 4
ENDMDL
MODEL 6
REMARK VINA RESULT:      -7.2      2.098      5.891
REMARK  4 active torsions:
REMARK  status: ('A' for Active; 'I' for Inactive)
REMARK    1  A    between atoms: C2_2  and  C3_3 
REMARK    2  A    between atoms: C2_2  and  N1_10 
REMARK    3  A    between atoms: C3_3  and  C4_4 
REMARK    4  A    between atoms: N2_11  and  N3_12 
ROOT
HETATM    1  N3  UNL     1      23.567   2.359  52.607  1.00  0.00    -0.237 N 
HETATM    2  C10 UNL     1      22.674   1.245  52.651  1.00  0.00     0.119 C 
HETATM    3  C11 UNL     1      21.872   1.280  51.617  1.00  0.00    -0.057 C 
HETATM    4  C12 UNL     1      20.823   0.253  51.378  1.00  0.00     0.045 C 
HETATM    5  C13 UNL     1      22.138   2.437  50.747  1.00  0.00     0.083 C 
HETATM    6  C14 UNL     1      20.991   3.419  50.682  1.00  0.00     0.188 C 
HETATM    7  N4  UNL     1      21.010   4.372  51.758  1.00  0.00    -0.174 NA
HETATM    8  N5  UNL     1      22.104   4.865  52.128  1.00  0.00    -0.076 NA
HETATM    9  N6  UNL     1      23.274   4.488  51.499  1.00  0.00    -0.270 N 
HETATM   10  C15 UNL     1      23.380   3.062  51.332  1.00  0.00     0.237 C 
HETATM   11  H17 UNL     1      24.040   5.137  51.159  1.00  0.00     0.186 HD
ENDROOT
BRANCH   1  12
HETATM   12  N2  UNL     1      24.544   2.950  53.417  1.00  0.00    -0.064 NA
HETATM   13  N1  UNL     1      25.712   2.453  53.392  1.00  0.00    -0.141 NA
BRANCH  13  14
HETATM   14  C2  UNL     1      26.026   1.353  52.585  1.00  0.00     0.041 C 
HETATM   15  C1  UNL     1      26.440   1.670  51.370  1.00  0.00     0.062 C 
BRANCH  14  16
HETATM   16  C3  UNL     1      25.855   0.009  53.192  1.00  0.00     0.095 C 
BRANCH  16  17
HETATM   17  C4  UNL     1      27.147  -0.732  53.246  1.00  0.00    -0.053 A 
HETATM   18  C5  UNL     1      27.209  -1.987  52.713  1.00  0.00     0.007 A 
HETATM   19  C6  UNL     1      28.428  -2.640  52.784  1.00  0.00     0.001 A 
HETATM   20  C7  UNL     1      29.546  -2.056  53.368  1.00  0.00     0.000 A 
HETATM   21  C8  UNL     1      29.430  -0.782  53.892  1.00  0.00     0.001 A 
HETATM   22  C9  UNL     1      28.219  -0.087  53.842  1.00  0.00     0.007 A 
ENDBRANCH  16  17
ENDBRANCH  14  16
ENDBRANCH  13  14
ENDBRANCH   1  12
TORSDOF 4
ENDMDL
MODEL 7
REMARK VINA RESULT:      -7.0      3.689      6.258
REMARK  4 active torsions:
REMARK  status: ('A' for Active; 'I' for Inactive)
REMARK    1  A    between atoms: C2_2  and  C3_3 
REMARK    2  A    between atoms: C2_2  and  N1_10 
REMARK    3  A    between atoms: C3_3  and  C4_4 
REMARK    4  A    between atoms: N2_11  and  N3_12 
ROOT
HETATM    1  N3  UNL     1      22.761   1.809  52.482  1.00  0.00    -0.237 N 
HETATM    2  C10 UNL     1      24.004   1.404  53.056  1.00  0.00     0.119 C 
HETATM    3  C11 UNL     1      23.994   0.111  53.264  1.00  0.00    -0.057 C 
HETATM    4  C12 UNL     1      25.149  -0.618  53.855  1.00  0.00     0.045 C 
HETATM    5  C13 UNL     1      22.725  -0.509  52.848  1.00  0.00     0.083 C 
HETATM    6  C14 UNL     1      21.943  -1.109  53.992  1.00  0.00     0.188 C 
HETATM    7  N4  UNL     1      21.116  -0.147  54.669  1.00  0.00    -0.174 NA
HETATM    8  N5  UNL     1      20.491   0.712  53.998  1.00  0.00    -0.076 NA
HETATM    9  N6  UNL     1      20.605   0.723  52.621  1.00  0.00    -0.270 N 
HETATM   10  C15 UNL     1      21.970   0.611  52.176  1.00  0.00     0.237 C 
HETATM   11  H17 UNL     1      19.808   0.802  51.927  1.00  0.00     0.186 HD
ENDROOT
BRANCH   1  12
HETATM   12  N2  UNL     1      22.104   2.998  52.139  1.00  0.00    -0.064 NA
HETATM   13  N1  UNL     1      22.529   3.635  51.126  1.00  0.00    -0.141 NA
BRANCH  13  14
HETATM   14  C2  UNL     1      23.614   3.177  50.370  1.00  0.00     0.041 C 
HETATM   15  C1  UNL     1      23.274   2.544  49.260  1.00  0.00     0.062 C 
BRANCH  14  16
HETATM   16  C3  UNL     1      24.969   3.459  50.907  1.00  0.00     0.095 C 
BRANCH  16  17
HETATM   17  C4  UNL     1      25.706   4.424  50.043  1.00  0.00    -0.053 A 
HETATM   18  C5  UNL     1      25.222   5.693  49.910  1.00  0.00     0.007 A 
HETATM   19  C6  UNL     1      25.939   6.557  49.098  1.00  0.00     0.001 A 
HETATM   20  C7  UNL     1      27.100   6.162  48.443  1.00  0.00     0.000 A 
HETATM   21  C8  UNL     1      27.549   4.866  48.612  1.00  0.00     0.001 A 
HETATM   22  C9  UNL     1      26.856   3.962  49.423  1.00  0.00     0.007 A 
ENDBRANCH  16  17
ENDBRANCH  14  16
ENDBRANCH  13  14
ENDBRANCH   1  12
TORSDOF 4
ENDMDL
MODEL 8
REMARK VINA RESULT:      -6.9      3.089      5.547
REMARK  4 active torsions:
REMARK  status: ('A' for Active; 'I' for Inactive)
REMARK    1  A    between atoms: C2_2  and  C3_3 
REMARK    2  A    between atoms: C2_2  and  N1_10 
REMARK    3  A    between atoms: C3_3  and  C4_4 
REMARK    4  A    between atoms: N2_11  and  N3_12 
ROOT
HETATM    1  N3  UNL     1      23.580   4.711  50.998  1.00  0.00    -0.237 N 
HETATM    2  C10 UNL     1      22.775   4.302  49.892  1.00  0.00     0.119 C 
HETATM    3  C11 UNL     1      23.178   4.907  48.803  1.00  0.00    -0.057 C 
HETATM    4  C12 UNL     1      22.539   4.690  47.477  1.00  0.00     0.045 C 
HETATM    5  C13 UNL     1      24.317   5.805  49.057  1.00  0.00     0.083 C 
HETATM    6  C14 UNL     1      24.002   7.262  48.812  1.00  0.00     0.188 C 
HETATM    7  N4  UNL     1      23.396   7.901  49.948  1.00  0.00    -0.174 NA
HETATM    8  N5  UNL     1      23.818   7.641  51.102  1.00  0.00    -0.076 NA
HETATM    9  N6  UNL     1      24.857   6.746  51.267  1.00  0.00    -0.270 N 
HETATM   10  C15 UNL     1      24.681   5.542  50.497  1.00  0.00     0.237 C 
HETATM   11  H17 UNL     1      25.711   6.883  51.880  1.00  0.00     0.186 HD
ENDROOT
BRANCH   1  12
HETATM   12  N2  UNL     1      23.611   4.545  52.388  1.00  0.00    -0.064 NA
HETATM   13  N1  UNL     1      23.962   3.411  52.839  1.00  0.00    -0.141 NA
BRANCH  13  14
HETATM   14  C2  UNL     1      24.309   2.355  51.987  1.00  0.00     0.041 C 
HETATM   15  C1  UNL     1      25.593   2.308  51.676  1.00  0.00     0.062 C 
BRANCH  14  16
HETATM   16  C3  UNL     1      23.210   1.453  51.559  1.00  0.00     0.095 C 
BRANCH  16  17
HETATM   17  C4  UNL     1      22.634   0.711  52.716  1.00  0.00    -0.053 A 
HETATM   18  C5  UNL     1      21.360   0.997  53.115  1.00  0.00     0.007 A 
HETATM   19  C6  UNL     1      20.865   0.284  54.193  1.00  0.00     0.001 A 
HETATM   20  C7  UNL     1      21.618  -0.683  54.849  1.00  0.00     0.000 A 
HETATM   21  C8  UNL     1      22.903  -0.935  54.405  1.00  0.00     0.001 A 
HETATM   22  C9  UNL     1      23.443  -0.238  53.320  1.00  0.00     0.007 A 
ENDBRANCH  16  17
ENDBRANCH  14  16
ENDBRANCH  13  14
ENDBRANCH   1  12
TORSDOF 4
ENDMDL
MODEL 9
REMARK VINA RESULT:      -6.9      2.752      4.380
REMARK  4 active torsions:
REMARK  status: ('A' for Active; 'I' for Inactive)
REMARK    1  A    between atoms: C2_2  and  C3_3 
REMARK    2  A    between atoms: C2_2  and  N1_10 
REMARK    3  A    between atoms: C3_3  and  C4_4 
REMARK    4  A    between atoms: N2_11  and  N3_12 
ROOT
HETATM    1  N3  UNL     1      26.190   1.997  52.034  1.00  0.00    -0.237 N 
HETATM    2  C10 UNL     1      25.258   0.917  51.971  1.00  0.00     0.119 C 
HETATM    3  C11 UNL     1      25.041   0.449  53.175  1.00  0.00    -0.057 C 
HETATM    4  C12 UNL     1      24.114  -0.682  53.444  1.00  0.00     0.045 C 
HETATM    5  C13 UNL     1      25.814   1.172  54.199  1.00  0.00     0.083 C 
HETATM    6  C14 UNL     1      26.841   0.312  54.897  1.00  0.00     0.188 C 
HETATM    7  N4  UNL     1      28.084   0.233  54.181  1.00  0.00    -0.174 NA
HETATM    8  N5  UNL     1      28.548   1.263  53.631  1.00  0.00    -0.076 NA
HETATM    9  N6  UNL     1      27.860   2.457  53.721  1.00  0.00    -0.270 N 
HETATM   10  C15 UNL     1      26.455   2.310  53.443  1.00  0.00     0.237 C 
HETATM   11  H17 UNL     1      28.273   3.402  53.963  1.00  0.00     0.186 HD
ENDROOT
BRANCH   1  12
HETATM   12  N2  UNL     1      26.902   2.817  51.150  1.00  0.00    -0.064 NA
HETATM   13  N1  UNL     1      26.237   3.615  50.419  1.00  0.00    -0.141 NA
BRANCH  13  14
HETATM   14  C2  UNL     1      24.840   3.682  50.485  1.00  0.00     0.041 C 
HETATM   15  C1  UNL     1      24.220   3.080  49.485  1.00  0.00     0.062 C 
BRANCH  14  16
HETATM   16  C3  UNL     1      24.260   4.405  51.645  1.00  0.00     0.095 C 
BRANCH  16  17
HETATM   17  C4  UNL     1      23.604   5.674  51.222  1.00  0.00    -0.053 A 
HETATM   18  C5  UNL     1      24.387   6.734  50.866  1.00  0.00     0.007 A 
HETATM   19  C6  UNL     1      23.736   7.894  50.480  1.00  0.00     0.001 A 
HETATM   20  C7  UNL     1      22.350   7.988  50.450  1.00  0.00     0.000 A 
HETATM   21  C8  UNL     1      21.602   6.885  50.818  1.00  0.00     0.001 A 
HETATM   22  C9  UNL     1      22.218   5.695  51.215  1.00  0.00     0.007 A 
ENDBRANCH  16  17
ENDBRANCH  14  16
ENDBRANCH  13  14
ENDBRANCH   1  12
TORSDOF 4
ENDMDL
