MODEL 1
REMARK VINA RESULT:      -7.0      0.000      0.000
REMARK  5 active torsions:
REMARK  status: ('A' for Active; 'I' for Inactive)
REMARK    1  A    between atoms: C1_2  and  C2_3 
REMARK       I    between atoms: C1_2  and  N2_11 
REMARK    2  A    between atoms: C3_4  and  N1_5 
REMARK    3  A    between atoms: C4_6  and  C5_7 
REMARK    4  A    between atoms: N2_11  and  S1_12 
REMARK    5  A    between atoms: S1_12  and  C7_15 
ROOT
HETATM    1  O1  UNL     1      20.961  -0.795  53.605  1.00  0.00    -0.268 OA
HETATM    2  C1  UNL     1      22.086  -0.463  54.097  1.00  0.00     0.256 C 
HETATM    3  N2  UNL     1      22.757   0.514  53.319  1.00  0.00    -0.247 N 
HETATM    4  H5  UNL     1      23.691   0.853  53.637  1.00  0.00     0.182 HD
ENDROOT
BRANCH   3   5
HETATM    5  S1  UNL     1      22.115   1.180  51.864  1.00  0.00     0.265 S 
HETATM    6  O2  UNL     1      21.487   0.141  50.996  1.00  0.00    -0.200 OA
HETATM    7  O3  UNL     1      21.041   2.157  52.243  1.00  0.00    -0.200 OA
BRANCH   5   8
HETATM    8  C7  UNL     1      23.376   2.055  51.005  1.00  0.00     0.080 A 
HETATM    9  C8  UNL     1      23.177   2.747  49.831  1.00  0.00     0.027 A 
HETATM   10  C9  UNL     1      24.257   3.392  49.259  1.00  0.00     0.025 A 
HETATM   11  C10 UNL     1      25.512   3.337  49.865  1.00  0.00     0.034 A 
HETATM   12 CL2  UNL     1      26.888   4.146  49.157  1.00  0.00    -0.084 Cl
HETATM   13  C11 UNL     1      25.707   2.636  51.053  1.00  0.00     0.025 A 
HETATM   14  C12 UNL     1      24.608   1.992  51.613  1.00  0.00     0.027 A 
ENDBRANCH   5   8
ENDBRANCH   3   5
BRANCH   2  15
HETATM   15  C2  UNL     1      22.597  -1.046  55.325  1.00  0.00     0.094 C 
HETATM   16  C3  UNL     1      23.853  -1.328  55.589  1.00  0.00     0.122 C 
BRANCH  16  17
HETATM   17  N1  UNL     1      25.062  -1.193  54.867  1.00  0.00    -0.272 NA
HETATM   18  C4  UNL     1      25.851  -0.181  54.959  1.00  0.00     0.136 C 
BRANCH  18  19
HETATM   19  C5  UNL     1      27.065  -0.195  54.145  1.00  0.00     0.039 C 
HETATM   20 BR1  UNL     1      27.074  -0.777  52.350  1.00  0.00    -0.049 Br
HETATM   21  C6  UNL     1      28.228   0.206  54.636  1.00  0.00     0.105 C 
HETATM   22 CL1  UNL     1      29.721   0.225  53.742  1.00  0.00    -0.096 Cl
ENDBRANCH  18  19
ENDBRANCH  16  17
ENDBRANCH   2  15
TORSDOF 5
ENDMDL
MODEL 2
REMARK VINA RESULT:      -6.9      2.025      2.554
REMARK  5 active torsions:
REMARK  status: ('A' for Active; 'I' for Inactive)
REMARK    1  A    between atoms: C1_2  and  C2_3 
REMARK       I    between atoms: C1_2  and  N2_11 
REMARK    2  A    between atoms: C3_4  and  N1_5 
REMARK    3  A    between atoms: C4_6  and  C5_7 
REMARK    4  A    between atoms: N2_11  and  S1_12 
REMARK    5  A    between atoms: S1_12  and  C7_15 
ROOT
HETATM    1  O1  UNL     1      21.327   2.219  52.564  1.00  0.00    -0.268 OA
HETATM    2  C1  UNL     1      22.381   1.528  52.393  1.00  0.00     0.256 C 
HETATM    3  N2  UNL     1      23.359   2.203  51.618  1.00  0.00    -0.247 N 
HETATM    4  H5  UNL     1      24.262   1.720  51.420  1.00  0.00     0.182 HD
ENDROOT
BRANCH   3   5
HETATM    5  S1  UNL     1      23.141   3.789  50.980  1.00  0.00     0.265 S 
HETATM    6  O2  UNL     1      21.969   3.871  50.058  1.00  0.00    -0.200 OA
HETATM    7  O3  UNL     1      22.870   4.714  52.131  1.00  0.00    -0.200 OA
BRANCH   5   8
HETATM    8  C7  UNL     1      24.618   4.318  50.185  1.00  0.00     0.080 A 
HETATM    9  C8  UNL     1      24.838   5.598  49.730  1.00  0.00     0.027 A 
HETATM   10  C9  UNL     1      26.047   5.879  49.122  1.00  0.00     0.025 A 
HETATM   11  C10 UNL     1      27.012   4.882  48.978  1.00  0.00     0.034 A 
HETATM   12 CL2  UNL     1      28.545   5.220  48.213  1.00  0.00    -0.084 Cl
HETATM   13  C11 UNL     1      26.784   3.589  49.441  1.00  0.00     0.025 A 
HETATM   14  C12 UNL     1      25.561   3.325  50.050  1.00  0.00     0.027 A 
ENDBRANCH   5   8
ENDBRANCH   3   5
BRANCH   2  15
HETATM   15  C2  UNL     1      22.531   0.194  52.946  1.00  0.00     0.094 C 
HETATM   16  C3  UNL     1      23.653  -0.361  53.346  1.00  0.00     0.122 C 
BRANCH  16  17
HETATM   17  N1  UNL     1      25.000   0.070  53.392  1.00  0.00    -0.272 NA
HETATM   18  C4  UNL     1      26.005  -0.663  53.066  1.00  0.00     0.136 C 
BRANCH  18  19
HETATM   19  C5  UNL     1      27.337  -0.067  53.169  1.00  0.00     0.039 C 
HETATM   20 BR1  UNL     1      27.622   1.796  53.067  1.00  0.00    -0.049 Br
HETATM   21  C6  UNL     1      28.415  -0.815  53.342  1.00  0.00     0.105 C 
HETATM   22 CL1  UNL     1      30.034  -0.194  53.476  1.00  0.00    -0.096 Cl
ENDBRANCH  18  19
ENDBRANCH  16  17
ENDBRANCH   2  15
TORSDOF 5
ENDMDL
MODEL 3
REMARK VINA RESULT:      -6.8      3.830      4.822
REMARK  5 active torsions:
REMARK  status: ('A' for Active; 'I' for Inactive)
REMARK    1  A    between atoms: C1_2  and  C2_3 
REMARK       I    between atoms: C1_2  and  N2_11 
REMARK    2  A    between atoms: C3_4  and  N1_5 
REMARK    3  A    between atoms: C4_6  and  C5_7 
REMARK    4  A    between atoms: N2_11  and  S1_12 
REMARK    5  A    between atoms: S1_12  and  C7_15 
ROOT
HETATM    1  O1  UNL     1      25.596  -1.000  55.460  1.00  0.00    -0.268 OA
HETATM    2  C1  UNL     1      24.476  -0.780  54.900  1.00  0.00     0.256 C 
HETATM    3  N2  UNL     1      24.580   0.108  53.799  1.00  0.00    -0.247 N 
HETATM    4  H5  UNL     1      23.715   0.354  53.270  1.00  0.00     0.182 HD
ENDROOT
BRANCH   3   5
HETATM    5  S1  UNL     1      26.065   0.812  53.278  1.00  0.00     0.265 S 
HETATM    6  O2  UNL     1      26.827   1.424  54.407  1.00  0.00    -0.200 OA
HETATM    7  O3  UNL     1      26.916  -0.284  52.706  1.00  0.00    -0.200 OA
BRANCH   5   8
HETATM    8  C7  UNL     1      25.752   1.986  52.007  1.00  0.00     0.080 A 
HETATM    9  C8  UNL     1      26.665   2.345  51.042  1.00  0.00     0.027 A 
HETATM   10  C9  UNL     1      26.288   3.283  50.099  1.00  0.00     0.025 A 
HETATM   11  C10 UNL     1      25.012   3.846  50.136  1.00  0.00     0.034 A 
HETATM   12 CL2  UNL     1      24.519   5.032  48.953  1.00  0.00    -0.084 Cl
HETATM   13  C11 UNL     1      24.093   3.479  51.115  1.00  0.00     0.025 A 
HETATM   14  C12 UNL     1      24.490   2.533  52.055  1.00  0.00     0.027 A 
ENDBRANCH   5   8
ENDBRANCH   3   5
BRANCH   2  15
HETATM   15  C2  UNL     1      23.243  -1.390  55.365  1.00  0.00     0.094 C 
HETATM   16  C3  UNL     1      22.112  -1.464  54.700  1.00  0.00     0.122 C 
BRANCH  16  17
HETATM   17  N1  UNL     1      21.696  -1.030  53.420  1.00  0.00    -0.272 NA
HETATM   18  C4  UNL     1      20.898  -0.041  53.215  1.00  0.00     0.136 C 
BRANCH  18  19
HETATM   19  C5  UNL     1      20.566   0.282  51.828  1.00  0.00     0.039 C 
HETATM   20 BR1  UNL     1      18.784   0.423  51.221  1.00  0.00    -0.049 Br
HETATM   21  C6  UNL     1      21.510   0.494  50.925  1.00  0.00     0.105 C 
HETATM   22 CL1  UNL     1      21.208   0.885  49.257  1.00  0.00    -0.096 Cl
ENDBRANCH  18  19
ENDBRANCH  16  17
ENDBRANCH   2  15
TORSDOF 5
ENDMDL
MODEL 4
REMARK VINA RESULT:      -6.5      2.976      4.974
REMARK  5 active torsions:
REMARK  status: ('A' for Active; 'I' for Inactive)
REMARK    1  A    between atoms: C1_2  and  C2_3 
REMARK       I    between atoms: C1_2  and  N2_11 
REMARK    2  A    between atoms: C3_4  and  N1_5 
REMARK    3  A    between atoms: C4_6  and  C5_7 
REMARK    4  A    between atoms: N2_11  and  S1_12 
REMARK    5  A    between atoms: S1_12  and  C7_15 
ROOT
HETATM    1  O1  UNL     1      23.553   4.218  51.848  1.00  0.00    -0.268 OA
HETATM    2  C1  UNL     1      24.001   3.749  50.754  1.00  0.00     0.256 C 
HETATM    3  N2  UNL     1      23.092   2.859  50.127  1.00  0.00    -0.247 N 
HETATM    4  H5  UNL     1      23.365   2.419  49.222  1.00  0.00     0.182 HD
ENDROOT
BRANCH   3   5
HETATM    5  S1  UNL     1      21.547   2.460  50.778  1.00  0.00     0.265 S 
HETATM    6  O2  UNL     1      20.765   3.673  51.164  1.00  0.00    -0.200 OA
HETATM    7  O3  UNL     1      20.769   1.748  49.710  1.00  0.00    -0.200 OA
BRANCH   5   8
HETATM    8  C7  UNL     1      21.741   1.364  52.140  1.00  0.00     0.080 A 
HETATM    9  C8  UNL     1      20.801   1.183  53.129  1.00  0.00     0.027 A 
HETATM   10  C9  UNL     1      21.082   0.289  54.145  1.00  0.00     0.025 A 
HETATM   11  C10 UNL     1      22.291  -0.407  54.157  1.00  0.00     0.034 A 
HETATM   12 CL2  UNL     1      22.662  -1.541  55.432  1.00  0.00    -0.084 Cl
HETATM   13  C11 UNL     1      23.238  -0.220  53.153  1.00  0.00     0.025 A 
HETATM   14  C12 UNL     1      22.937   0.685  52.139  1.00  0.00     0.027 A 
ENDBRANCH   5   8
ENDBRANCH   3   5
BRANCH   2  15
HETATM   15  C2  UNL     1      25.309   4.107  50.235  1.00  0.00     0.094 C 
HETATM   16  C3  UNL     1      26.414   3.407  50.360  1.00  0.00     0.122 C 
BRANCH  16  17
HETATM   17  N1  UNL     1      26.732   2.175  50.977  1.00  0.00    -0.272 NA
HETATM   18  C4  UNL     1      27.056   2.048  52.216  1.00  0.00     0.136 C 
BRANCH  18  19
HETATM   19  C5  UNL     1      27.355   0.701  52.701  1.00  0.00     0.039 C 
HETATM   20 BR1  UNL     1      28.537   0.382  54.137  1.00  0.00    -0.049 Br
HETATM   21  C6  UNL     1      26.801  -0.368  52.150  1.00  0.00     0.105 C 
HETATM   22 CL1  UNL     1      27.096  -2.004  52.661  1.00  0.00    -0.096 Cl
ENDBRANCH  18  19
ENDBRANCH  16  17
ENDBRANCH   2  15
TORSDOF 5
ENDMDL
MODEL 5
REMARK VINA RESULT:      -6.4      4.626      6.971
REMARK  5 active torsions:
REMARK  status: ('A' for Active; 'I' for Inactive)
REMARK    1  A    between atoms: C1_2  and  C2_3 
REMARK       I    between atoms: C1_2  and  N2_11 
REMARK    2  A    between atoms: C3_4  and  N1_5 
REMARK    3  A    between atoms: C4_6  and  C5_7 
REMARK    4  A    between atoms: N2_11  and  S1_12 
REMARK    5  A    between atoms: S1_12  and  C7_15 
ROOT
HETATM    1  O1  UNL     1      27.483   2.407  51.685  1.00  0.00    -0.268 OA
HETATM    2  C1  UNL     1      26.435   2.716  51.034  1.00  0.00     0.256 C 
HETATM    3  N2  UNL     1      25.292   1.996  51.464  1.00  0.00    -0.247 N 
HETATM    4  H5  UNL     1      24.379   2.176  50.992  1.00  0.00     0.182 HD
ENDROOT
BRANCH   3   5
HETATM    5  S1  UNL     1      25.321   0.829  52.732  1.00  0.00     0.265 S 
HETATM    6  O2  UNL     1      26.246  -0.305  52.436  1.00  0.00    -0.200 OA
HETATM    7  O3  UNL     1      25.828   1.510  53.970  1.00  0.00    -0.200 OA
BRANCH   5   8
HETATM    8  C7  UNL     1      23.689   0.255  53.050  1.00  0.00     0.080 A 
HETATM    9  C8  UNL     1      23.335  -0.519  54.131  1.00  0.00     0.027 A 
HETATM   10  C9  UNL     1      22.014  -0.901  54.261  1.00  0.00     0.025 A 
HETATM   11  C10 UNL     1      21.070  -0.506  53.312  1.00  0.00     0.034 A 
HETATM   12 CL2  UNL     1      19.396  -0.980  53.460  1.00  0.00    -0.084 Cl
HETATM   13  C11 UNL     1      21.433   0.277  52.220  1.00  0.00     0.025 A 
HETATM   14  C12 UNL     1      22.768   0.652  52.107  1.00  0.00     0.027 A 
ENDBRANCH   5   8
ENDBRANCH   3   5
BRANCH   2  15
HETATM   15  C2  UNL     1      26.447   3.705  49.970  1.00  0.00     0.094 C 
HETATM   16  C3  UNL     1      25.404   4.346  49.493  1.00  0.00     0.122 C 
BRANCH  16  17
HETATM   17  N1  UNL     1      24.021   4.330  49.790  1.00  0.00    -0.272 NA
HETATM   18  C4  UNL     1      23.451   5.125  50.626  1.00  0.00     0.136 C 
BRANCH  18  19
HETATM   19  C5  UNL     1      22.009   4.980  50.819  1.00  0.00     0.039 C 
HETATM   20 BR1  UNL     1      20.758   6.151  50.025  1.00  0.00    -0.049 Br
HETATM   21  C6  UNL     1      21.508   4.009  51.566  1.00  0.00     0.105 C 
HETATM   22 CL1  UNL     1      19.810   3.760  51.851  1.00  0.00    -0.096 Cl
ENDBRANCH  18  19
ENDBRANCH  16  17
ENDBRANCH   2  15
TORSDOF 5
ENDMDL
MODEL 6
REMARK VINA RESULT:      -6.4      4.388      7.666
REMARK  5 active torsions:
REMARK  status: ('A' for Active; 'I' for Inactive)
REMARK    1  A    between atoms: C1_2  and  C2_3 
REMARK       I    between atoms: C1_2  and  N2_11 
REMARK    2  A    between atoms: C3_4  and  N1_5 
REMARK    3  A    between atoms: C4_6  and  C5_7 
REMARK    4  A    between atoms: N2_11  and  S1_12 
REMARK    5  A    between atoms: S1_12  and  C7_15 
ROOT
HETATM    1  O1  UNL     1      26.632   2.486  49.501  1.00  0.00    -0.268 OA
HETATM    2  C1  UNL     1      26.541   3.718  49.801  1.00  0.00     0.256 C 
HETATM    3  N2  UNL     1      25.793   3.941  50.985  1.00  0.00    -0.247 N 
HETATM    4  H5  UNL     1      25.660   4.920  51.317  1.00  0.00     0.182 HD
ENDROOT
BRANCH   3   5
HETATM    5  S1  UNL     1      25.085   2.675  51.916  1.00  0.00     0.265 S 
HETATM    6  O2  UNL     1      24.347   3.194  53.106  1.00  0.00    -0.200 OA
HETATM    7  O3  UNL     1      24.090   1.966  51.045  1.00  0.00    -0.200 OA
BRANCH   5   8
HETATM    8  C7  UNL     1      26.325   1.519  52.388  1.00  0.00     0.080 A 
HETATM    9  C8  UNL     1      26.234   0.161  52.188  1.00  0.00     0.027 A 
HETATM   10  C9  UNL     1      27.283  -0.635  52.608  1.00  0.00     0.025 A 
HETATM   11  C10 UNL     1      28.400  -0.065  53.218  1.00  0.00     0.034 A 
HETATM   12 CL2  UNL     1      29.735  -1.055  53.755  1.00  0.00    -0.084 Cl
HETATM   13  C11 UNL     1      28.486   1.311  53.418  1.00  0.00     0.025 A 
HETATM   14  C12 UNL     1      27.420   2.095  52.989  1.00  0.00     0.027 A 
ENDBRANCH   5   8
ENDBRANCH   3   5
BRANCH   2  15
HETATM   15  C2  UNL     1      27.151   4.760  48.992  1.00  0.00     0.094 C 
HETATM   16  C3  UNL     1      26.575   5.872  48.593  1.00  0.00     0.122 C 
BRANCH  16  17
HETATM   17  N1  UNL     1      25.288   6.430  48.771  1.00  0.00    -0.272 NA
HETATM   18  C4  UNL     1      24.994   7.298  49.673  1.00  0.00     0.136 C 
BRANCH  18  19
HETATM   19  C5  UNL     1      23.614   7.778  49.724  1.00  0.00     0.039 C 
HETATM   20 BR1  UNL     1      22.270   6.896  50.714  1.00  0.00    -0.049 Br
HETATM   21  C6  UNL     1      23.239   8.868  49.071  1.00  0.00     0.105 C 
HETATM   22 CL1  UNL     1      21.623   9.512  49.075  1.00  0.00    -0.096 Cl
ENDBRANCH  18  19
ENDBRANCH  16  17
ENDBRANCH   2  15
TORSDOF 5
ENDMDL
MODEL 7
REMARK VINA RESULT:      -6.4      2.939      3.622
REMARK  5 active torsions:
REMARK  status: ('A' for Active; 'I' for Inactive)
REMARK    1  A    between atoms: C1_2  and  C2_3 
REMARK       I    between atoms: C1_2  and  N2_11 
REMARK    2  A    between atoms: C3_4  and  N1_5 
REMARK    3  A    between atoms: C4_6  and  C5_7 
REMARK    4  A    between atoms: N2_11  and  S1_12 
REMARK    5  A    between atoms: S1_12  and  C7_15 
ROOT
HETATM    1  O1  UNL     1      22.264   2.728  52.326  1.00  0.00    -0.268 OA
HETATM    2  C1  UNL     1      23.203   1.870  52.314  1.00  0.00     0.256 C 
HETATM    3  N2  UNL     1      24.316   2.286  51.540  1.00  0.00    -0.247 N 
HETATM    4  H5  UNL     1      25.141   1.653  51.466  1.00  0.00     0.182 HD
ENDROOT
BRANCH   3   5
HETATM    5  S1  UNL     1      24.387   3.794  50.707  1.00  0.00     0.265 S 
HETATM    6  O2  UNL     1      23.933   4.933  51.559  1.00  0.00    -0.200 OA
HETATM    7  O3  UNL     1      25.820   4.050  50.343  1.00  0.00    -0.200 OA
BRANCH   5   8
HETATM    8  C7  UNL     1      23.452   3.695  49.220  1.00  0.00     0.080 A 
HETATM    9  C8  UNL     1      22.942   2.528  48.701  1.00  0.00     0.027 A 
HETATM   10  C9  UNL     1      22.224   2.592  47.522  1.00  0.00     0.025 A 
HETATM   11  C10 UNL     1      22.027   3.816  46.883  1.00  0.00     0.034 A 
HETATM   12 CL2  UNL     1      21.122   3.917  45.393  1.00  0.00    -0.084 Cl
HETATM   13  C11 UNL     1      22.545   4.995  47.413  1.00  0.00     0.025 A 
HETATM   14  C12 UNL     1      23.266   4.910  48.601  1.00  0.00     0.027 A 
ENDBRANCH   5   8
ENDBRANCH   3   5
BRANCH   2  15
HETATM   15  C2  UNL     1      23.110   0.609  53.028  1.00  0.00     0.094 C 
HETATM   16  C3  UNL     1      24.116  -0.139  53.421  1.00  0.00     0.122 C 
BRANCH  16  17
HETATM   17  N1  UNL     1      25.522  -0.027  53.318  1.00  0.00    -0.272 NA
HETATM   18  C4  UNL     1      26.256   0.648  54.131  1.00  0.00     0.136 C 
BRANCH  18  19
HETATM   19  C5  UNL     1      27.698   0.662  53.885  1.00  0.00     0.039 C 
HETATM   20 BR1  UNL     1      28.669   2.264  53.650  1.00  0.00    -0.049 Br
HETATM   21  C6  UNL     1      28.396  -0.460  53.818  1.00  0.00     0.105 C 
HETATM   22 CL1  UNL     1      30.111  -0.539  53.532  1.00  0.00    -0.096 Cl
ENDBRANCH  18  19
ENDBRANCH  16  17
ENDBRANCH   2  15
TORSDOF 5
ENDMDL
MODEL 8
REMARK VINA RESULT:      -6.1      3.130      6.105
REMARK  5 active torsions:
REMARK  status: ('A' for Active; 'I' for Inactive)
REMARK    1  A    between atoms: C1_2  and  C2_3 
REMARK       I    between atoms: C1_2  and  N2_11 
REMARK    2  A    between atoms: C3_4  and  N1_5 
REMARK    3  A    between atoms: C4_6  and  C5_7 
REMARK    4  A    between atoms: N2_11  and  S1_12 
REMARK    5  A    between atoms: S1_12  and  C7_15 
ROOT
HETATM    1  O1  UNL     1      21.433   3.789  51.299  1.00  0.00    -0.268 OA
HETATM    2  C1  UNL     1      22.502   4.374  51.664  1.00  0.00     0.256 C 
HETATM    3  N2  UNL     1      23.511   3.466  52.075  1.00  0.00    -0.247 N 
HETATM    4  H5  UNL     1      24.428   3.845  52.394  1.00  0.00     0.182 HD
ENDROOT
BRANCH   3   5
HETATM    5  S1  UNL     1      23.309   1.753  52.075  1.00  0.00     0.265 S 
HETATM    6  O2  UNL     1      22.216   1.314  52.993  1.00  0.00    -0.200 OA
HETATM    7  O3  UNL     1      22.922   1.337  50.686  1.00  0.00    -0.200 OA
BRANCH   5   8
HETATM    8  C7  UNL     1      24.834   0.975  52.478  1.00  0.00     0.080 A 
HETATM    9  C8  UNL     1      24.940  -0.253  53.090  1.00  0.00     0.027 A 
HETATM   10  C9  UNL     1      26.203  -0.749  53.349  1.00  0.00     0.025 A 
HETATM   11  C10 UNL     1      27.335  -0.015  52.996  1.00  0.00     0.034 A 
HETATM   12 CL2  UNL     1      28.939  -0.627  53.316  1.00  0.00    -0.084 Cl
HETATM   13  C11 UNL     1      27.222   1.227  52.377  1.00  0.00     0.025 A 
HETATM   14  C12 UNL     1      25.942   1.710  52.124  1.00  0.00     0.027 A 
ENDBRANCH   5   8
ENDBRANCH   3   5
BRANCH   2  15
HETATM   15  C2  UNL     1      22.638   5.820  51.651  1.00  0.00     0.094 C 
HETATM   16  C3  UNL     1      23.652   6.501  51.168  1.00  0.00     0.122 C 
BRANCH  16  17
HETATM   17  N1  UNL     1      24.869   6.141  50.544  1.00  0.00    -0.272 NA
HETATM   18  C4  UNL     1      25.254   6.584  49.399  1.00  0.00     0.136 C 
BRANCH  18  19
HETATM   19  C5  UNL     1      26.542   6.115  48.892  1.00  0.00     0.039 C 
HETATM   20 BR1  UNL     1      27.114   4.326  49.081  1.00  0.00    -0.049 Br
HETATM   21  C6  UNL     1      27.376   6.932  48.268  1.00  0.00     0.105 C 
HETATM   22 CL1  UNL     1      28.925   6.462  47.631  1.00  0.00    -0.096 Cl
ENDBRANCH  18  19
ENDBRANCH  16  17
ENDBRANCH   2  15
TORSDOF 5
ENDMDL
MODEL 9
REMARK VINA RESULT:      -6.1      4.270      6.840
REMARK  5 active torsions:
REMARK  status: ('A' for Active; 'I' for Inactive)
REMARK    1  A    between atoms: C1_2  and  C2_3 
REMARK       I    between atoms: C1_2  and  N2_11 
REMARK    2  A    between atoms: C3_4  and  N1_5 
REMARK    3  A    between atoms: C4_6  and  C5_7 
REMARK    4  A    between atoms: N2_11  and  S1_12 
REMARK    5  A    between atoms: S1_12  and  C7_15 
ROOT
HETATM    1  O1  UNL     1      26.157   2.348  53.460  1.00  0.00    -0.268 OA
HETATM    2  C1  UNL     1      26.586   1.953  52.329  1.00  0.00     0.256 C 
HETATM    3  N2  UNL     1      26.955   0.584  52.332  1.00  0.00    -0.247 N 
HETATM    4  H5  UNL     1      27.321   0.162  51.451  1.00  0.00     0.182 HD
ENDROOT
BRANCH   3   5
HETATM    5  S1  UNL     1      26.834  -0.434  53.718  1.00  0.00     0.265 S 
HETATM    6  O2  UNL     1      27.592  -1.710  53.550  1.00  0.00    -0.200 OA
HETATM    7  O3  UNL     1      27.440   0.298  54.879  1.00  0.00    -0.200 OA
BRANCH   5   8
HETATM    8  C7  UNL     1      25.141  -0.740  54.083  1.00  0.00     0.080 A 
HETATM    9  C8  UNL     1      24.668  -1.099  55.325  1.00  0.00     0.027 A 
HETATM   10  C9  UNL     1      23.311  -1.310  55.475  1.00  0.00     0.025 A 
HETATM   11  C10 UNL     1      22.450  -1.159  54.388  1.00  0.00     0.034 A 
HETATM   12 CL2  UNL     1      20.732  -1.421  54.559  1.00  0.00    -0.084 Cl
HETATM   13  C11 UNL     1      22.934  -0.795  53.133  1.00  0.00     0.025 A 
HETATM   14  C12 UNL     1      24.303  -0.588  53.002  1.00  0.00     0.027 A 
ENDBRANCH   5   8
ENDBRANCH   3   5
BRANCH   2  15
HETATM   15  C2  UNL     1      26.676   2.838  51.182  1.00  0.00     0.094 C 
HETATM   16  C3  UNL     1      25.697   3.152  50.363  1.00  0.00     0.122 C 
BRANCH  16  17
HETATM   17  N1  UNL     1      24.331   2.794  50.283  1.00  0.00    -0.272 NA
HETATM   18  C4  UNL     1      23.403   3.315  51.006  1.00  0.00     0.136 C 
BRANCH  18  19
HETATM   19  C5  UNL     1      22.037   2.835  50.800  1.00  0.00     0.039 C 
HETATM   20 BR1  UNL     1      20.887   2.406  52.234  1.00  0.00    -0.049 Br
HETATM   21  C6  UNL     1      21.538   2.680  49.584  1.00  0.00     0.105 C 
HETATM   22 CL1  UNL     1      19.927   2.118  49.244  1.00  0.00    -0.096 Cl
ENDBRANCH  18  19
ENDBRANCH  16  17
ENDBRANCH   2  15
TORSDOF 5
ENDMDL
