MODEL 1
REMARK VINA RESULT:      -7.6      0.000      0.000
REMARK  5 active torsions:
REMARK  status: ('A' for Active; 'I' for Inactive)
REMARK    1  A    between atoms: C2_3  and  C3_4 
REMARK    2  A    between atoms: C3_4  and  C4_5 
REMARK    3  A    between atoms: C4_5  and  C5_6 
REMARK    4  A    between atoms: C7_9  and  N3_11 
REMARK    5  A    between atoms: N3_11  and  C8_12 
ROOT
HETATM    1  C5  UNL     1      26.421   3.266  49.598  1.00  0.00     0.128 C 
HETATM    2  C6  UNL     1      27.139   4.415  49.019  1.00  0.00     0.059 C 
HETATM    3  N2  UNL     1      27.711   5.334  48.577  1.00  0.00    -0.197 NA
ENDROOT
BRANCH   1   4
HETATM    4  C4  UNL     1      25.346   3.877  50.495  1.00  0.00     0.057 C 
BRANCH   4   5
HETATM    5  C3  UNL     1      24.141   3.018  50.506  1.00  0.00    -0.002 C 
HETATM    6  C7  UNL     1      23.698   2.398  51.577  1.00  0.00     0.111 C 
HETATM    7 CL1  UNL     1      22.265   1.404  51.479  1.00  0.00    -0.064 Cl
BRANCH   5   8
HETATM    8  C2  UNL     1      23.411   2.855  49.254  1.00  0.00     0.120 C 
HETATM    9  N1  UNL     1      22.581   3.767  48.865  1.00  0.00    -0.306 NA
HETATM   10  C1  UNL     1      21.842   3.633  47.628  1.00  0.00     0.177 C 
ENDBRANCH   5   8
BRANCH   6  11
HETATM   11  N3  UNL     1      24.301   2.465  52.861  1.00  0.00    -0.349 N 
HETATM   12  H9  UNL     1      24.260   2.908  53.800  1.00  0.00     0.166 HD
BRANCH  11  13
HETATM   13  C8  UNL     1      25.466   1.620  53.097  1.00  0.00     0.020 C 
HETATM   14  C9  UNL     1      26.720   1.744  53.435  1.00  0.00     0.090 C 
HETATM   15  C10 UNL     1      27.877   2.522  53.788  1.00  0.00     0.258 C 
HETATM   16  N4  UNL     1      28.990   1.997  54.204  1.00  0.00    -0.424 NA
HETATM   17  C11 UNL     1      29.220   0.615  54.382  1.00  0.00     0.107 C 
HETATM   18  C12 UNL     1      30.072  -0.121  53.392  1.00  0.00     0.021 C 
HETATM   19  C13 UNL     1      30.049  -1.587  53.660  1.00  0.00     0.028 C 
HETATM   20  C14 UNL     1      28.972  -2.455  53.229  1.00  0.00     0.168 C 
HETATM   21  O1  UNL     1      27.633  -2.232  53.354  1.00  0.00    -0.387 OA
HETATM   22  C15 UNL     1      27.175  -1.297  52.527  1.00  0.00     0.195 C 
HETATM   23  C16 UNL     1      25.758  -0.961  52.405  1.00  0.00     0.001 C 
HETATM   24  C17 UNL     1      25.196   0.241  52.654  1.00  0.00     0.024 C 
ENDBRANCH  11  13
ENDBRANCH   6  11
ENDBRANCH   4   5
ENDBRANCH   1   4
TORSDOF 5
ENDMDL
MODEL 2
REMARK VINA RESULT:      -7.0      2.830      7.248
REMARK  5 active torsions:
REMARK  status: ('A' for Active; 'I' for Inactive)
REMARK    1  A    between atoms: C2_3  and  C3_4 
REMARK    2  A    between atoms: C3_4  and  C4_5 
REMARK    3  A    between atoms: C4_5  and  C5_6 
REMARK    4  A    between atoms: C7_9  and  N3_11 
REMARK    5  A    between atoms: N3_11  and  C8_12 
ROOT
HETATM    1  C5  UNL     1      25.017  -0.905  54.296  1.00  0.00     0.128 C 
HETATM    2  C6  UNL     1      23.817  -1.275  55.065  1.00  0.00     0.059 C 
HETATM    3  N2  UNL     1      22.861  -1.551  55.680  1.00  0.00    -0.197 NA
ENDROOT
BRANCH   1   4
HETATM    4  C4  UNL     1      25.836  -0.020  55.234  1.00  0.00     0.057 C 
BRANCH   4   5
HETATM    5  C3  UNL     1      26.916   0.658  54.483  1.00  0.00    -0.002 C 
HETATM    6  C7  UNL     1      26.756   1.798  53.847  1.00  0.00     0.111 C 
HETATM    7 CL1  UNL     1      28.098   2.512  52.987  1.00  0.00    -0.064 Cl
BRANCH   5   8
HETATM    8  C2  UNL     1      28.226   0.020  54.451  1.00  0.00     0.120 C 
HETATM    9  N1  UNL     1      28.460  -0.939  53.615  1.00  0.00    -0.306 NA
HETATM   10  C1  UNL     1      29.749  -1.593  53.560  1.00  0.00     0.177 C 
ENDBRANCH   5   8
BRANCH   6  11
HETATM   11  N3  UNL     1      25.543   2.533  53.793  1.00  0.00    -0.349 N 
HETATM   12  H9  UNL     1      24.900   3.158  54.319  1.00  0.00     0.166 HD
BRANCH  11  13
HETATM   13  C8  UNL     1      24.783   2.480  52.548  1.00  0.00     0.020 C 
HETATM   14  C9  UNL     1      24.710   3.116  51.412  1.00  0.00     0.090 C 
HETATM   15  C10 UNL     1      25.114   4.152  50.500  1.00  0.00     0.258 C 
HETATM   16  N4  UNL     1      24.705   4.218  49.268  1.00  0.00    -0.424 NA
HETATM   17  C11 UNL     1      23.836   3.293  48.649  1.00  0.00     0.107 C 
HETATM   18  C12 UNL     1      22.411   3.682  48.394  1.00  0.00     0.021 C 
HETATM   19  C13 UNL     1      21.625   2.517  47.898  1.00  0.00     0.028 C 
HETATM   20  C14 UNL     1      21.084   1.496  48.772  1.00  0.00     0.168 C 
HETATM   21  O1  UNL     1      21.729   0.854  49.787  1.00  0.00    -0.387 OA
HETATM   22  C15 UNL     1      21.928   1.623  50.853  1.00  0.00     0.195 C 
HETATM   23  C16 UNL     1      22.505   1.126  52.101  1.00  0.00     0.001 C 
HETATM   24  C17 UNL     1      23.646   1.552  52.682  1.00  0.00     0.024 C 
ENDBRANCH  11  13
ENDBRANCH   6  11
ENDBRANCH   4   5
ENDBRANCH   1   4
TORSDOF 5
ENDMDL
MODEL 3
REMARK VINA RESULT:      -6.7      2.817      4.208
REMARK  5 active torsions:
REMARK  status: ('A' for Active; 'I' for Inactive)
REMARK    1  A    between atoms: C2_3  and  C3_4 
REMARK    2  A    between atoms: C3_4  and  C4_5 
REMARK    3  A    between atoms: C4_5  and  C5_6 
REMARK    4  A    between atoms: C7_9  and  N3_11 
REMARK    5  A    between atoms: N3_11  and  C8_12 
ROOT
HETATM    1  C5  UNL     1      19.148   2.961  51.814  1.00  0.00     0.128 C 
HETATM    2  C6  UNL     1      19.035   1.596  51.271  1.00  0.00     0.059 C 
HETATM    3  N2  UNL     1      18.955   0.507  50.855  1.00  0.00    -0.197 NA
ENDROOT
BRANCH   1   4
HETATM    4  C4  UNL     1      20.615   3.115  52.208  1.00  0.00     0.057 C 
BRANCH   4   5
HETATM    5  C3  UNL     1      21.443   3.370  51.008  1.00  0.00    -0.002 C 
HETATM    6  C7  UNL     1      22.366   2.542  50.571  1.00  0.00     0.111 C 
HETATM    7 CL1  UNL     1      23.289   2.942  49.143  1.00  0.00    -0.064 Cl
BRANCH   5   8
HETATM    8  C2  UNL     1      21.214   4.610  50.276  1.00  0.00     0.120 C 
HETATM    9  N1  UNL     1      21.250   5.744  50.896  1.00  0.00    -0.306 NA
HETATM   10  C1  UNL     1      21.026   6.992  50.198  1.00  0.00     0.177 C 
ENDBRANCH   5   8
BRANCH   6  11
HETATM   11  N3  UNL     1      22.696   1.302  51.177  1.00  0.00    -0.349 N 
HETATM   12  H9  UNL     1      22.392   0.320  51.330  1.00  0.00     0.166 HD
BRANCH  11  13
HETATM   13  C8  UNL     1      23.949   1.234  51.922  1.00  0.00     0.020 C 
HETATM   14  C9  UNL     1      25.175   1.667  51.828  1.00  0.00     0.090 C 
HETATM   15  C10 UNL     1      26.229   2.382  51.160  1.00  0.00     0.258 C 
HETATM   16  N4  UNL     1      27.391   2.607  51.697  1.00  0.00    -0.424 NA
HETATM   17  C11 UNL     1      27.778   2.205  52.994  1.00  0.00     0.107 C 
HETATM   18  C12 UNL     1      28.721   1.050  53.155  1.00  0.00     0.021 C 
HETATM   19  C13 UNL     1      28.865   0.679  54.590  1.00  0.00     0.028 C 
HETATM   20  C14 UNL     1      27.902  -0.139  55.299  1.00  0.00     0.168 C 
HETATM   21  O1  UNL     1      26.544  -0.013  55.284  1.00  0.00    -0.387 OA
HETATM   22  C15 UNL     1      25.992  -0.400  54.138  1.00  0.00     0.195 C 
HETATM   23  C16 UNL     1      24.547  -0.455  53.926  1.00  0.00     0.001 C 
HETATM   24  C17 UNL     1      23.846   0.239  53.004  1.00  0.00     0.024 C 
ENDBRANCH  11  13
ENDBRANCH   6  11
ENDBRANCH   4   5
ENDBRANCH   1   4
TORSDOF 5
ENDMDL
MODEL 4
REMARK VINA RESULT:      -6.6      3.976      5.460
REMARK  5 active torsions:
REMARK  status: ('A' for Active; 'I' for Inactive)
REMARK    1  A    between atoms: C2_3  and  C3_4 
REMARK    2  A    between atoms: C3_4  and  C4_5 
REMARK    3  A    between atoms: C4_5  and  C5_6 
REMARK    4  A    between atoms: C7_9  and  N3_11 
REMARK    5  A    between atoms: N3_11  and  C8_12 
ROOT
HETATM    1  C5  UNL     1      25.816   4.958  49.321  1.00  0.00     0.128 C 
HETATM    2  C6  UNL     1      27.209   4.831  48.859  1.00  0.00     0.059 C 
HETATM    3  N2  UNL     1      28.320   4.739  48.509  1.00  0.00    -0.197 NA
ENDROOT
BRANCH   1   4
HETATM    4  C4  UNL     1      25.691   6.393  49.828  1.00  0.00     0.057 C 
BRANCH   4   5
HETATM    5  C3  UNL     1      24.269   6.802  49.858  1.00  0.00    -0.002 C 
HETATM    6  C7  UNL     1      23.458   6.544  50.860  1.00  0.00     0.111 C 
HETATM    7 CL1  UNL     1      21.794   7.070  50.792  1.00  0.00    -0.064 Cl
BRANCH   5   8
HETATM    8  C2  UNL     1      23.747   7.531  48.708  1.00  0.00     0.120 C 
HETATM    9  N1  UNL     1      23.883   7.046  47.517  1.00  0.00    -0.306 NA
HETATM   10  C1  UNL     1      23.378   7.746  46.356  1.00  0.00     0.177 C 
ENDBRANCH   5   8
BRANCH   6  11
HETATM   11  N3  UNL     1      23.824   5.848  52.042  1.00  0.00    -0.349 N 
HETATM   12  H9  UNL     1      24.367   5.898  52.927  1.00  0.00     0.166 HD
BRANCH  11  13
HETATM   13  C8  UNL     1      23.296   4.499  52.215  1.00  0.00     0.020 C 
HETATM   14  C9  UNL     1      22.143   3.901  52.327  1.00  0.00     0.090 C 
HETATM   15  C10 UNL     1      20.706   3.898  52.393  1.00  0.00     0.258 C 
HETATM   16  N4  UNL     1      19.993   2.812  52.381  1.00  0.00    -0.424 NA
HETATM   17  C11 UNL     1      20.510   1.502  52.289  1.00  0.00     0.107 C 
HETATM   18  C12 UNL     1      20.523   0.630  53.509  1.00  0.00     0.021 C 
HETATM   19  C13 UNL     1      21.260  -0.638  53.246  1.00  0.00     0.028 C 
HETATM   20  C14 UNL     1      22.705  -0.738  53.281  1.00  0.00     0.168 C 
HETATM   21  O1  UNL     1      23.604   0.111  52.706  1.00  0.00    -0.387 OA
HETATM   22  C15 UNL     1      23.696   1.282  53.330  1.00  0.00     0.195 C 
HETATM   23  C16 UNL     1      24.666   2.310  52.960  1.00  0.00     0.001 C 
HETATM   24  C17 UNL     1      24.386   3.561  52.537  1.00  0.00     0.024 C 
ENDBRANCH  11  13
ENDBRANCH   6  11
ENDBRANCH   4   5
ENDBRANCH   1   4
TORSDOF 5
ENDMDL
MODEL 5
REMARK VINA RESULT:      -6.4      3.850      5.045
REMARK  5 active torsions:
REMARK  status: ('A' for Active; 'I' for Inactive)
REMARK    1  A    between atoms: C2_3  and  C3_4 
REMARK    2  A    between atoms: C3_4  and  C4_5 
REMARK    3  A    between atoms: C4_5  and  C5_6 
REMARK    4  A    between atoms: C7_9  and  N3_11 
REMARK    5  A    between atoms: N3_11  and  C8_12 
ROOT
HETATM    1  C5  UNL     1      26.344   6.178  48.600  1.00  0.00     0.128 C 
HETATM    2  C6  UNL     1      27.584   5.382  48.583  1.00  0.00     0.059 C 
HETATM    3  N2  UNL     1      28.556   4.734  48.567  1.00  0.00    -0.197 NA
ENDROOT
BRANCH   1   4
HETATM    4  C4  UNL     1      25.441   5.492  49.622  1.00  0.00     0.057 C 
BRANCH   4   5
HETATM    5  C3  UNL     1      24.139   6.191  49.704  1.00  0.00    -0.002 C 
HETATM    6  C7  UNL     1      23.447   6.314  50.816  1.00  0.00     0.111 C 
HETATM    7 CL1  UNL     1      21.918   7.157  50.801  1.00  0.00    -0.064 Cl
BRANCH   5   8
HETATM    8  C2  UNL     1      23.601   6.770  48.480  1.00  0.00     0.120 C 
HETATM    9  N1  UNL     1      22.882   6.048  47.683  1.00  0.00    -0.306 NA
HETATM   10  C1  UNL     1      22.335   6.594  46.459  1.00  0.00     0.177 C 
ENDBRANCH   5   8
BRANCH   6  11
HETATM   11  N3  UNL     1      23.846   5.806  52.080  1.00  0.00    -0.349 N 
HETATM   12  H9  UNL     1      24.372   6.008  52.953  1.00  0.00     0.166 HD
BRANCH  11  13
HETATM   13  C8  UNL     1      23.409   4.457  52.427  1.00  0.00     0.020 C 
HETATM   14  C9  UNL     1      23.926   3.280  52.642  1.00  0.00     0.090 C 
HETATM   15  C10 UNL     1      25.035   2.369  52.727  1.00  0.00     0.258 C 
HETATM   16  N4  UNL     1      24.928   1.154  53.178  1.00  0.00    -0.424 NA
HETATM   17  C11 UNL     1      23.736   0.567  53.654  1.00  0.00     0.107 C 
HETATM   18  C12 UNL     1      23.026  -0.445  52.806  1.00  0.00     0.021 C 
HETATM   19  C13 UNL     1      21.713  -0.811  53.406  1.00  0.00     0.028 C 
HETATM   20  C14 UNL     1      20.521  -0.000  53.260  1.00  0.00     0.168 C 
HETATM   21  O1  UNL     1      20.418   1.349  53.420  1.00  0.00    -0.387 OA
HETATM   22  C15 UNL     1      20.977   2.041  52.431  1.00  0.00     0.195 C 
HETATM   23  C16 UNL     1      20.901   3.497  52.331  1.00  0.00     0.001 C 
HETATM   24  C17 UNL     1      21.942   4.356  52.333  1.00  0.00     0.024 C 
ENDBRANCH  11  13
ENDBRANCH   6  11
ENDBRANCH   4   5
ENDBRANCH   1   4
TORSDOF 5
ENDMDL
MODEL 6
REMARK VINA RESULT:      -6.4      7.432      9.420
REMARK  5 active torsions:
REMARK  status: ('A' for Active; 'I' for Inactive)
REMARK    1  A    between atoms: C2_3  and  C3_4 
REMARK    2  A    between atoms: C3_4  and  C4_5 
REMARK    3  A    between atoms: C4_5  and  C5_6 
REMARK    4  A    between atoms: C7_9  and  N3_11 
REMARK    5  A    between atoms: N3_11  and  C8_12 
ROOT
HETATM    1  C5  UNL     1      27.829   7.517  47.789  1.00  0.00     0.128 C 
HETATM    2  C6  UNL     1      28.337   6.186  48.165  1.00  0.00     0.059 C 
HETATM    3  N2  UNL     1      28.726   5.130  48.478  1.00  0.00    -0.197 NA
ENDROOT
BRANCH   1   4
HETATM    4  C4  UNL     1      27.806   8.319  49.089  1.00  0.00     0.057 C 
BRANCH   4   5
HETATM    5  C3  UNL     1      28.513   9.606  48.908  1.00  0.00    -0.002 C 
HETATM    6  C7  UNL     1      29.769   9.801  49.246  1.00  0.00     0.111 C 
HETATM    7 CL1  UNL     1      30.507  11.364  48.992  1.00  0.00    -0.064 Cl
BRANCH   5   8
HETATM    8  C2  UNL     1      27.768  10.714  48.322  1.00  0.00     0.120 C 
HETATM    9  N1  UNL     1      26.560  10.959  48.711  1.00  0.00    -0.306 NA
HETATM   10  C1  UNL     1      25.794  12.051  48.148  1.00  0.00     0.177 C 
ENDBRANCH   5   8
BRANCH   6  11
HETATM   11  N3  UNL     1      30.616   8.819  49.822  1.00  0.00    -0.349 N 
HETATM   12  H9  UNL     1      30.938   8.385  50.710  1.00  0.00     0.166 HD
BRANCH  11  13
HETATM   13  C8  UNL     1      31.422   8.013  48.911  1.00  0.00     0.020 C 
HETATM   14  C9  UNL     1      31.778   8.006  47.656  1.00  0.00     0.090 C 
HETATM   15  C10 UNL     1      31.770   8.546  46.323  1.00  0.00     0.258 C 
HETATM   16  N4  UNL     1      32.538   8.107  45.371  1.00  0.00    -0.424 NA
HETATM   17  C11 UNL     1      33.485   7.068  45.504  1.00  0.00     0.107 C 
HETATM   18  C12 UNL     1      33.186   5.722  44.915  1.00  0.00     0.021 C 
HETATM   19  C13 UNL     1      34.224   4.729  45.311  1.00  0.00     0.028 C 
HETATM   20  C14 UNL     1      34.229   4.055  46.594  1.00  0.00     0.168 C 
HETATM   21  O1  UNL     1      34.047   4.619  47.821  1.00  0.00    -0.387 OA
HETATM   22  C15 UNL     1      32.790   4.990  48.049  1.00  0.00     0.195 C 
HETATM   23  C16 UNL     1      32.334   5.520  49.333  1.00  0.00     0.001 C 
HETATM   24  C17 UNL     1      31.798   6.740  49.550  1.00  0.00     0.024 C 
ENDBRANCH  11  13
ENDBRANCH   6  11
ENDBRANCH   4   5
ENDBRANCH   1   4
TORSDOF 5
ENDMDL
MODEL 7
REMARK VINA RESULT:      -6.3      2.427      3.400
REMARK  5 active torsions:
REMARK  status: ('A' for Active; 'I' for Inactive)
REMARK    1  A    between atoms: C2_3  and  C3_4 
REMARK    2  A    between atoms: C3_4  and  C4_5 
REMARK    3  A    between atoms: C4_5  and  C5_6 
REMARK    4  A    between atoms: C7_9  and  N3_11 
REMARK    5  A    between atoms: N3_11  and  C8_12 
ROOT
HETATM    1  C5  UNL     1      22.066   1.839  50.287  1.00  0.00     0.128 C 
HETATM    2  C6  UNL     1      21.817   2.974  49.381  1.00  0.00     0.059 C 
HETATM    3  N2  UNL     1      21.623   3.886  48.676  1.00  0.00    -0.197 NA
ENDROOT
BRANCH   1   4
HETATM    4  C4  UNL     1      21.253   2.145  51.543  1.00  0.00     0.057 C 
BRANCH   4   5
HETATM    5  C3  UNL     1      21.462   1.087  52.558  1.00  0.00    -0.002 C 
HETATM    6  C7  UNL     1      22.585   0.930  53.224  1.00  0.00     0.111 C 
HETATM    7 CL1  UNL     1      22.727  -0.355  54.399  1.00  0.00    -0.064 Cl
BRANCH   5   8
HETATM    8  C2  UNL     1      20.358   0.174  52.824  1.00  0.00     0.120 C 
HETATM    9  N1  UNL     1      19.296   0.208  52.087  1.00  0.00    -0.306 NA
HETATM   10  C1  UNL     1      18.183  -0.685  52.328  1.00  0.00     0.177 C 
ENDBRANCH   5   8
BRANCH   6  11
HETATM   11  N3  UNL     1      23.739   1.742  53.072  1.00  0.00    -0.349 N 
HETATM   12  H9  UNL     1      24.088   2.696  52.855  1.00  0.00     0.166 HD
BRANCH  11  13
HETATM   13  C8  UNL     1      25.037   1.105  53.276  1.00  0.00     0.020 C 
HETATM   14  C9  UNL     1      26.248   1.431  53.631  1.00  0.00     0.090 C 
HETATM   15  C10 UNL     1      27.248   2.383  54.036  1.00  0.00     0.258 C 
HETATM   16  N4  UNL     1      28.437   2.042  54.435  1.00  0.00    -0.424 NA
HETATM   17  C11 UNL     1      28.909   0.716  54.543  1.00  0.00     0.107 C 
HETATM   18  C12 UNL     1      29.878   0.197  53.524  1.00  0.00     0.021 C 
HETATM   19  C13 UNL     1      30.116  -1.262  53.715  1.00  0.00     0.028 C 
HETATM   20  C14 UNL     1      29.211  -2.284  53.229  1.00  0.00     0.168 C 
HETATM   21  O1  UNL     1      27.854  -2.308  53.352  1.00  0.00    -0.387 OA
HETATM   22  C15 UNL     1      27.237  -1.427  52.570  1.00  0.00     0.195 C 
HETATM   23  C16 UNL     1      25.783  -1.342  52.453  1.00  0.00     0.001 C 
HETATM   24  C17 UNL     1      25.016  -0.275  52.758  1.00  0.00     0.024 C 
ENDBRANCH  11  13
ENDBRANCH   6  11
ENDBRANCH   4   5
ENDBRANCH   1   4
TORSDOF 5
ENDMDL
MODEL 8
REMARK VINA RESULT:      -6.3      1.828      2.650
REMARK  5 active torsions:
REMARK  status: ('A' for Active; 'I' for Inactive)
REMARK    1  A    between atoms: C2_3  and  C3_4 
REMARK    2  A    between atoms: C3_4  and  C4_5 
REMARK    3  A    between atoms: C4_5  and  C5_6 
REMARK    4  A    between atoms: C7_9  and  N3_11 
REMARK    5  A    between atoms: N3_11  and  C8_12 
ROOT
HETATM    1  C5  UNL     1      23.473   3.387  49.008  1.00  0.00     0.128 C 
HETATM    2  C6  UNL     1      22.456   3.132  47.974  1.00  0.00     0.059 C 
HETATM    3  N2  UNL     1      21.636   2.939  47.163  1.00  0.00    -0.197 NA
ENDROOT
BRANCH   1   4
HETATM    4  C4  UNL     1      22.838   2.922  50.317  1.00  0.00     0.057 C 
BRANCH   4   5
HETATM    5  C3  UNL     1      23.269   3.794  51.433  1.00  0.00    -0.002 C 
HETATM    6  C7  UNL     1      23.619   3.342  52.617  1.00  0.00     0.111 C 
HETATM    7 CL1  UNL     1      24.109   4.461  53.866  1.00  0.00    -0.064 Cl
BRANCH   5   8
HETATM    8  C2  UNL     1      23.303   5.232  51.196  1.00  0.00     0.120 C 
HETATM    9  N1  UNL     1      24.399   5.799  50.809  1.00  0.00    -0.306 NA
HETATM   10  C1  UNL     1      24.465   7.224  50.567  1.00  0.00     0.177 C 
ENDBRANCH   5   8
BRANCH   6  11
HETATM   11  N3  UNL     1      23.637   1.973  52.990  1.00  0.00    -0.349 N 
HETATM   12  H9  UNL     1      23.055   1.137  53.195  1.00  0.00     0.166 HD
BRANCH  11  13
HETATM   13  C8  UNL     1      24.942   1.356  53.209  1.00  0.00     0.020 C 
HETATM   14  C9  UNL     1      26.157   1.710  53.522  1.00  0.00     0.090 C 
HETATM   15  C10 UNL     1      27.158   2.689  53.849  1.00  0.00     0.258 C 
HETATM   16  N4  UNL     1      28.356   2.380  54.247  1.00  0.00    -0.424 NA
HETATM   17  C11 UNL     1      28.838   1.065  54.427  1.00  0.00     0.107 C 
HETATM   18  C12 UNL     1      29.792   0.488  53.425  1.00  0.00     0.021 C 
HETATM   19  C13 UNL     1      30.042  -0.954  53.700  1.00  0.00     0.028 C 
HETATM   20  C14 UNL     1      29.135  -2.009  53.293  1.00  0.00     0.168 C 
HETATM   21  O1  UNL     1      27.780  -2.032  53.443  1.00  0.00    -0.387 OA
HETATM   22  C15 UNL     1      27.145  -1.204  52.619  1.00  0.00     0.195 C 
HETATM   23  C16 UNL     1      25.688  -1.133  52.523  1.00  0.00     0.001 C 
HETATM   24  C17 UNL     1      24.920  -0.052  52.777  1.00  0.00     0.024 C 
ENDBRANCH  11  13
ENDBRANCH   6  11
ENDBRANCH   4   5
ENDBRANCH   1   4
TORSDOF 5
ENDMDL
MODEL 9
REMARK VINA RESULT:      -6.3      2.341      3.590
REMARK  5 active torsions:
REMARK  status: ('A' for Active; 'I' for Inactive)
REMARK    1  A    between atoms: C2_3  and  C3_4 
REMARK    2  A    between atoms: C3_4  and  C4_5 
REMARK    3  A    between atoms: C4_5  and  C5_6 
REMARK    4  A    between atoms: C7_9  and  N3_11 
REMARK    5  A    between atoms: N3_11  and  C8_12 
ROOT
HETATM    1  C5  UNL     1      21.091   3.917  47.394  1.00  0.00     0.128 C 
HETATM    2  C6  UNL     1      21.561   3.749  46.008  1.00  0.00     0.059 C 
HETATM    3  N2  UNL     1      21.945   3.602  44.914  1.00  0.00    -0.197 NA
ENDROOT
BRANCH   1   4
HETATM    4  C4  UNL     1      22.357   3.919  48.248  1.00  0.00     0.057 C 
BRANCH   4   5
HETATM    5  C3  UNL     1      22.036   4.322  49.636  1.00  0.00    -0.002 C 
HETATM    6  C7  UNL     1      22.193   3.535  50.678  1.00  0.00     0.111 C 
HETATM    7 CL1  UNL     1      21.779   4.110  52.274  1.00  0.00    -0.064 Cl
BRANCH   5   8
HETATM    8  C2  UNL     1      21.515   5.667  49.850  1.00  0.00     0.120 C 
HETATM    9  N1  UNL     1      22.248   6.696  49.578  1.00  0.00    -0.306 NA
HETATM   10  C1  UNL     1      21.760   8.043  49.780  1.00  0.00     0.177 C 
ENDBRANCH   5   8
BRANCH   6  11
HETATM   11  N3  UNL     1      22.691   2.207  50.623  1.00  0.00    -0.349 N 
HETATM   12  H9  UNL     1      22.573   1.269  50.191  1.00  0.00     0.166 HD
BRANCH  11  13
HETATM   13  C8  UNL     1      23.835   1.886  51.471  1.00  0.00     0.020 C 
HETATM   14  C9  UNL     1      25.118   2.112  51.518  1.00  0.00     0.090 C 
HETATM   15  C10 UNL     1      26.335   2.678  51.003  1.00  0.00     0.258 C 
HETATM   16  N4  UNL     1      27.458   2.673  51.657  1.00  0.00    -0.424 NA
HETATM   17  C11 UNL     1      27.643   2.136  52.950  1.00  0.00     0.107 C 
HETATM   18  C12 UNL     1      28.367   0.833  53.107  1.00  0.00     0.021 C 
HETATM   19  C13 UNL     1      28.304   0.359  54.518  1.00  0.00     0.028 C 
HETATM   20  C14 UNL     1      27.155  -0.327  55.074  1.00  0.00     0.168 C 
HETATM   21  O1  UNL     1      25.845   0.026  54.948  1.00  0.00    -0.387 OA
HETATM   22  C15 UNL     1      25.355  -0.195  53.732  1.00  0.00     0.195 C 
HETATM   23  C16 UNL     1      23.949   0.006  53.387  1.00  0.00     0.001 C 
HETATM   24  C17 UNL     1      23.465   0.860  52.462  1.00  0.00     0.024 C 
ENDBRANCH  11  13
ENDBRANCH   6  11
ENDBRANCH   4   5
ENDBRANCH   1   4
TORSDOF 5
ENDMDL
