MODEL 1
REMARK VINA RESULT:      -8.3      0.000      0.000
REMARK  5 active torsions:
REMARK  status: ('A' for Active; 'I' for Inactive)
REMARK    1  A    between atoms: C9_11  and  O2_12 
REMARK    2  A    between atoms: O2_12  and  O3_13 
REMARK    3  A    between atoms: N2_14  and  C10_15 
REMARK    4  A    between atoms: C10_15  and  C11_16 
REMARK    5  A    between atoms: C11_16  and  C12_17 
ROOT
HETATM    1  O1  UNL     1      21.896   1.267  53.095  1.00  0.00    -0.247 OA
HETATM    2  C1  UNL     1      23.086   0.856  53.135  1.00  0.00     0.323 C 
HETATM    3  N1  UNL     1      23.346  -0.389  53.758  1.00  0.00    -0.337 N 
HETATM    4  C2  UNL     1      24.698  -0.825  53.457  1.00  0.00     0.182 C 
HETATM    5  C3  UNL     1      25.379   0.431  53.016  1.00  0.00     0.039 C 
HETATM    6  C4  UNL     1      26.686   0.691  52.916  1.00  0.00    -0.020 C 
HETATM    7  C5  UNL     1      27.575   1.804  52.528  1.00  0.00     0.066 C 
HETATM    8  C6  UNL     1      28.643   1.960  53.596  1.00  0.00    -0.026 C 
HETATM    9  C7  UNL     1      29.002   1.142  54.551  1.00  0.00    -0.027 C 
HETATM   10  C8  UNL     1      28.245  -0.163  54.608  1.00  0.00     0.066 C 
HETATM   11  C9  UNL     1      27.586  -0.433  53.266  1.00  0.00     0.195 C 
HETATM   12  N2  UNL     1      24.358   1.366  52.673  1.00  0.00    -0.301 N 
HETATM   13  H1  UNL     1      22.751  -0.986  54.356  1.00  0.00     0.164 HD
ENDROOT
BRANCH  12  14
HETATM   14  C10 UNL     1      24.279   2.628  51.997  1.00  0.00     0.138 C 
BRANCH  14  15
HETATM   15  C11 UNL     1      24.276   2.550  50.502  1.00  0.00     0.059 C 
BRANCH  15  16
HETATM   16  C12 UNL     1      25.115   3.605  49.872  1.00  0.00    -0.057 A 
HETATM   17  C13 UNL     1      24.625   4.841  49.564  1.00  0.00     0.007 A 
HETATM   18  C14 UNL     1      25.348   5.864  48.979  1.00  0.00     0.001 A 
HETATM   19  C15 UNL     1      26.677   5.607  48.685  1.00  0.00     0.000 A 
HETATM   20  C16 UNL     1      27.202   4.365  48.986  1.00  0.00     0.001 A 
HETATM   21  C17 UNL     1      26.459   3.360  49.570  1.00  0.00     0.007 A 
ENDBRANCH  15  16
ENDBRANCH  14  15
ENDBRANCH  12  14
BRANCH  11  22
HETATM   22  O2  UNL     1      26.960  -1.652  53.225  1.00  0.00    -0.233 OA
BRANCH  22  23
HETATM   23  O3  UNL     1      27.838  -2.623  53.072  1.00  0.00    -0.250 OA
HETATM   24  H11 UNL     1      27.616  -3.243  52.338  1.00  0.00     0.253 HD
ENDBRANCH  22  23
ENDBRANCH  11  22
TORSDOF 5
ENDMDL
MODEL 2
REMARK VINA RESULT:      -8.1      3.238      6.513
REMARK  5 active torsions:
REMARK  status: ('A' for Active; 'I' for Inactive)
REMARK    1  A    between atoms: C9_11  and  O2_12 
REMARK    2  A    between atoms: O2_12  and  O3_13 
REMARK    3  A    between atoms: N2_14  and  C10_15 
REMARK    4  A    between atoms: C10_15  and  C11_16 
REMARK    5  A    between atoms: C11_16  and  C12_17 
ROOT
HETATM    1  O1  UNL     1      22.678  -1.849  55.511  1.00  0.00    -0.247 OA
HETATM    2  C1  UNL     1      22.245  -0.966  54.726  1.00  0.00     0.323 C 
HETATM    3  N1  UNL     1      20.909  -0.523  54.883  1.00  0.00    -0.337 N 
HETATM    4  C2  UNL     1      20.684   0.677  54.097  1.00  0.00     0.182 C 
HETATM    5  C3  UNL     1      21.804   0.659  53.106  1.00  0.00     0.039 C 
HETATM    6  C4  UNL     1      21.925   1.332  51.958  1.00  0.00    -0.020 C 
HETATM    7  C5  UNL     1      22.888   1.479  50.849  1.00  0.00     0.066 C 
HETATM    8  C6  UNL     1      22.132   1.356  49.538  1.00  0.00    -0.026 C 
HETATM    9  C7  UNL     1      20.847   1.421  49.300  1.00  0.00    -0.027 C 
HETATM   10  C8  UNL     1      19.973   1.656  50.508  1.00  0.00     0.066 C 
HETATM   11  C9  UNL     1      20.804   2.244  51.636  1.00  0.00     0.195 C 
HETATM   12  N2  UNL     1      22.801  -0.226  53.615  1.00  0.00    -0.301 N 
HETATM   13  H1  UNL     1      20.128  -0.909  55.440  1.00  0.00     0.164 HD
ENDROOT
BRANCH  12  14
HETATM   14  C10 UNL     1      24.169  -0.541  53.319  1.00  0.00     0.138 C 
BRANCH  14  15
HETATM   15  C11 UNL     1      25.162   0.510  53.706  1.00  0.00     0.059 C 
BRANCH  15  16
HETATM   16  C12 UNL     1      26.561   0.005  53.703  1.00  0.00    -0.057 A 
HETATM   17  C13 UNL     1      27.550   0.592  54.438  1.00  0.00     0.007 A 
HETATM   18  C14 UNL     1      28.868   0.174  54.481  1.00  0.00     0.001 A 
HETATM   19  C15 UNL     1      29.203  -0.930  53.714  1.00  0.00     0.000 A 
HETATM   20  C16 UNL     1      28.223  -1.545  52.960  1.00  0.00     0.001 A 
HETATM   21  C17 UNL     1      26.914  -1.109  52.934  1.00  0.00     0.007 A 
ENDBRANCH  15  16
ENDBRANCH  14  15
ENDBRANCH  12  14
BRANCH  11  22
HETATM   22  O2  UNL     1      20.046   2.570  52.731  1.00  0.00    -0.233 OA
BRANCH  22  23
HETATM   23  O3  UNL     1      19.057   3.373  52.393  1.00  0.00    -0.250 OA
HETATM   24  H11 UNL     1      18.270   2.900  52.037  1.00  0.00     0.253 HD
ENDBRANCH  22  23
ENDBRANCH  11  22
TORSDOF 5
ENDMDL
MODEL 3
REMARK VINA RESULT:      -8.1      2.557      5.344
REMARK  5 active torsions:
REMARK  status: ('A' for Active; 'I' for Inactive)
REMARK    1  A    between atoms: C9_11  and  O2_12 
REMARK    2  A    between atoms: O2_12  and  O3_13 
REMARK    3  A    between atoms: N2_14  and  C10_15 
REMARK    4  A    between atoms: C10_15  and  C11_16 
REMARK    5  A    between atoms: C11_16  and  C12_17 
ROOT
HETATM    1  O1  UNL     1      23.446   3.773  48.932  1.00  0.00    -0.247 OA
HETATM    2  C1  UNL     1      24.297   3.348  49.757  1.00  0.00     0.323 C 
HETATM    3  N1  UNL     1      25.662   3.360  49.380  1.00  0.00    -0.337 N 
HETATM    4  C2  UNL     1      26.503   3.114  50.539  1.00  0.00     0.182 C 
HETATM    5  C3  UNL     1      25.564   2.494  51.524  1.00  0.00     0.039 C 
HETATM    6  C4  UNL     1      25.842   1.791  52.626  1.00  0.00    -0.020 C 
HETATM    7  C5  UNL     1      25.126   1.099  53.716  1.00  0.00     0.066 C 
HETATM    8  C6  UNL     1      25.736  -0.281  53.889  1.00  0.00    -0.026 C 
HETATM    9  C7  UNL     1      26.869  -0.761  53.444  1.00  0.00    -0.027 C 
HETATM   10  C8  UNL     1      27.707   0.197  52.634  1.00  0.00     0.066 C 
HETATM   11  C9  UNL     1      27.282   1.626  52.927  1.00  0.00     0.195 C 
HETATM   12  N2  UNL     1      24.239   2.805  51.096  1.00  0.00    -0.301 N 
HETATM   13  H1  UNL     1      26.111   3.509  48.461  1.00  0.00     0.164 HD
ENDROOT
BRANCH  12  14
HETATM   14  C10 UNL     1      22.917   2.731  51.648  1.00  0.00     0.138 C 
BRANCH  14  15
HETATM   15  C11 UNL     1      22.141   1.506  51.277  1.00  0.00     0.059 C 
BRANCH  15  16
HETATM   16  C12 UNL     1      21.831   0.648  52.452  1.00  0.00    -0.057 A 
HETATM   17  C13 UNL     1      22.354  -0.604  52.599  1.00  0.00     0.007 A 
HETATM   18  C14 UNL     1      22.108  -1.453  53.663  1.00  0.00     0.001 A 
HETATM   19  C15 UNL     1      21.262  -0.988  54.656  1.00  0.00     0.000 A 
HETATM   20  C16 UNL     1      20.717   0.276  54.535  1.00  0.00     0.001 A 
HETATM   21  C17 UNL     1      20.979   1.104  53.463  1.00  0.00     0.007 A 
ENDBRANCH  15  16
ENDBRANCH  14  15
ENDBRANCH  12  14
BRANCH  11  22
HETATM   22  O2  UNL     1      28.072   2.549  52.292  1.00  0.00    -0.233 OA
BRANCH  22  23
HETATM   23  O3  UNL     1      29.087   2.902  53.055  1.00  0.00    -0.250 OA
HETATM   24  H11 UNL     1      29.081   2.470  53.941  1.00  0.00     0.253 HD
ENDBRANCH  22  23
ENDBRANCH  11  22
TORSDOF 5
ENDMDL
MODEL 4
REMARK VINA RESULT:      -7.9      3.257      5.747
REMARK  5 active torsions:
REMARK  status: ('A' for Active; 'I' for Inactive)
REMARK    1  A    between atoms: C9_11  and  O2_12 
REMARK    2  A    between atoms: O2_12  and  O3_13 
REMARK    3  A    between atoms: N2_14  and  C10_15 
REMARK    4  A    between atoms: C10_15  and  C11_16 
REMARK    5  A    between atoms: C11_16  and  C12_17 
ROOT
HETATM    1  O1  UNL     1      23.789   5.155  52.433  1.00  0.00    -0.247 OA
HETATM    2  C1  UNL     1      23.239   4.023  52.422  1.00  0.00     0.323 C 
HETATM    3  N1  UNL     1      21.866   3.946  52.081  1.00  0.00    -0.337 N 
HETATM    4  C2  UNL     1      21.486   2.565  51.842  1.00  0.00     0.182 C 
HETATM    5  C3  UNL     1      22.575   1.785  52.509  1.00  0.00     0.039 C 
HETATM    6  C4  UNL     1      22.588   0.500  52.874  1.00  0.00    -0.020 C 
HETATM    7  C5  UNL     1      23.498  -0.465  53.524  1.00  0.00     0.066 C 
HETATM    8  C6  UNL     1      22.724  -1.202  54.603  1.00  0.00    -0.026 C 
HETATM    9  C7  UNL     1      21.434  -1.284  54.805  1.00  0.00    -0.027 C 
HETATM   10  C8  UNL     1      20.573  -0.536  53.816  1.00  0.00     0.066 C 
HETATM   11  C9  UNL     1      21.363  -0.266  52.547  1.00  0.00     0.195 C 
HETATM   12  N2  UNL     1      23.678   2.671  52.690  1.00  0.00    -0.301 N 
HETATM   13  H1  UNL     1      21.149   4.684  51.985  1.00  0.00     0.164 HD
ENDROOT
BRANCH  12  14
HETATM   14  C10 UNL     1      25.063   2.558  53.042  1.00  0.00     0.138 C 
BRANCH  14  15
HETATM   15  C11 UNL     1      25.935   1.928  52.001  1.00  0.00     0.059 C 
BRANCH  15  16
HETATM   16  C12 UNL     1      26.990   1.059  52.588  1.00  0.00    -0.057 A 
HETATM   17  C13 UNL     1      28.031   1.563  53.313  1.00  0.00     0.007 A 
HETATM   18  C14 UNL     1      29.043   0.814  53.885  1.00  0.00     0.001 A 
HETATM   19  C15 UNL     1      28.990  -0.559  53.703  1.00  0.00     0.000 A 
HETATM   20  C16 UNL     1      27.948  -1.098  52.973  1.00  0.00     0.001 A 
HETATM   21  C17 UNL     1      26.949  -0.328  52.413  1.00  0.00     0.007 A 
ENDBRANCH  15  16
ENDBRANCH  14  15
ENDBRANCH  12  14
BRANCH  11  22
HETATM   22  O2  UNL     1      20.604   0.328  51.572  1.00  0.00    -0.233 OA
BRANCH  22  23
HETATM   23  O3  UNL     1      19.340  -0.029  51.681  1.00  0.00    -0.250 OA
HETATM   24  H11 UNL     1      18.757   0.372  50.995  1.00  0.00     0.253 HD
ENDBRANCH  22  23
ENDBRANCH  11  22
TORSDOF 5
ENDMDL
MODEL 5
REMARK VINA RESULT:      -7.8      1.723      4.225
REMARK  5 active torsions:
REMARK  status: ('A' for Active; 'I' for Inactive)
REMARK    1  A    between atoms: C9_11  and  O2_12 
REMARK    2  A    between atoms: O2_12  and  O3_13 
REMARK    3  A    between atoms: N2_14  and  C10_15 
REMARK    4  A    between atoms: C10_15  and  C11_16 
REMARK    5  A    between atoms: C11_16  and  C12_17 
ROOT
HETATM    1  O1  UNL     1      28.416   0.172  53.033  1.00  0.00    -0.247 OA
HETATM    2  C1  UNL     1      27.170   0.132  53.203  1.00  0.00     0.323 C 
HETATM    3  N1  UNL     1      26.616  -1.005  53.841  1.00  0.00    -0.337 N 
HETATM    4  C2  UNL     1      25.233  -0.750  54.203  1.00  0.00     0.182 C 
HETATM    5  C3  UNL     1      24.855   0.410  53.339  1.00  0.00     0.039 C 
HETATM    6  C4  UNL     1      23.638   0.865  53.024  1.00  0.00    -0.020 C 
HETATM    7  C5  UNL     1      23.025   1.943  52.222  1.00  0.00     0.066 C 
HETATM    8  C6  UNL     1      21.927   1.337  51.365  1.00  0.00    -0.026 C 
HETATM    9  C7  UNL     1      21.335   0.174  51.456  1.00  0.00    -0.027 C 
HETATM   10  C8  UNL     1      21.809  -0.710  52.584  1.00  0.00     0.066 C 
HETATM   11  C9  UNL     1      22.507   0.133  53.638  1.00  0.00     0.195 C 
HETATM   12  N2  UNL     1      26.067   1.013  52.890  1.00  0.00    -0.301 N 
HETATM   13  H1  UNL     1      27.029  -1.925  54.067  1.00  0.00     0.164 HD
ENDROOT
BRANCH  12  14
HETATM   14  C10 UNL     1      26.451   2.235  52.245  1.00  0.00     0.138 C 
BRANCH  14  15
HETATM   15  C11 UNL     1      26.450   2.192  50.748  1.00  0.00     0.059 C 
BRANCH  15  16
HETATM   16  C12 UNL     1      26.244   3.533  50.137  1.00  0.00    -0.057 A 
HETATM   17  C13 UNL     1      27.136   4.079  49.261  1.00  0.00     0.007 A 
HETATM   18  C14 UNL     1      27.006   5.318  48.658  1.00  0.00     0.001 A 
HETATM   19  C15 UNL     1      25.878   6.056  48.975  1.00  0.00     0.000 A 
HETATM   20  C16 UNL     1      24.958   5.529  49.859  1.00  0.00     0.001 A 
HETATM   21  C17 UNL     1      25.109   4.290  50.447  1.00  0.00     0.007 A 
ENDBRANCH  15  16
ENDBRANCH  14  15
ENDBRANCH  12  14
BRANCH  11  22
HETATM   22  O2  UNL     1      22.877  -0.601  54.736  1.00  0.00    -0.233 OA
BRANCH  22  23
HETATM   23  O3  UNL     1      21.878  -1.351  55.155  1.00  0.00    -0.250 OA
HETATM   24  H11 UNL     1      22.041  -1.769  56.033  1.00  0.00     0.253 HD
ENDBRANCH  22  23
ENDBRANCH  11  22
TORSDOF 5
ENDMDL
MODEL 6
REMARK VINA RESULT:      -7.6      2.439      5.371
REMARK  5 active torsions:
REMARK  status: ('A' for Active; 'I' for Inactive)
REMARK    1  A    between atoms: C9_11  and  O2_12 
REMARK    2  A    between atoms: O2_12  and  O3_13 
REMARK    3  A    between atoms: N2_14  and  C10_15 
REMARK    4  A    between atoms: C10_15  and  C11_16 
REMARK    5  A    between atoms: C11_16  and  C12_17 
ROOT
HETATM    1  O1  UNL     1      24.802   3.527  50.239  1.00  0.00    -0.247 OA
HETATM    2  C1  UNL     1      25.528   2.830  50.995  1.00  0.00     0.323 C 
HETATM    3  N1  UNL     1      26.867   3.242  51.208  1.00  0.00    -0.337 N 
HETATM    4  C2  UNL     1      27.450   2.498  52.310  1.00  0.00     0.182 C 
HETATM    5  C3  UNL     1      26.556   1.306  52.436  1.00  0.00     0.039 C 
HETATM    6  C4  UNL     1      26.780   0.147  53.063  1.00  0.00    -0.020 C 
HETATM    7  C5  UNL     1      26.090  -1.133  53.318  1.00  0.00     0.066 C 
HETATM    8  C6  UNL     1      27.050  -2.266  53.001  1.00  0.00    -0.026 C 
HETATM    9  C7  UNL     1      28.347  -2.247  52.832  1.00  0.00    -0.027 C 
HETATM   10  C8  UNL     1      29.000  -0.893  52.973  1.00  0.00     0.066 C 
HETATM   11  C9  UNL     1      28.087   0.039  53.750  1.00  0.00     0.195 C 
HETATM   12  N2  UNL     1      25.338   1.620  51.763  1.00  0.00    -0.301 N 
HETATM   13  H1  UNL     1      27.444   3.948  50.721  1.00  0.00     0.164 HD
ENDROOT
BRANCH  12  14
HETATM   14  C10 UNL     1      24.019   1.064  51.675  1.00  0.00     0.138 C 
BRANCH  14  15
HETATM   15  C11 UNL     1      23.046   1.569  52.694  1.00  0.00     0.059 C 
BRANCH  15  16
HETATM   16  C12 UNL     1      22.160   0.496  53.221  1.00  0.00    -0.057 A 
HETATM   17  C13 UNL     1      22.623  -0.500  54.030  1.00  0.00     0.007 A 
HETATM   18  C14 UNL     1      21.857  -1.526  54.553  1.00  0.00     0.001 A 
HETATM   19  C15 UNL     1      20.511  -1.536  54.224  1.00  0.00     0.000 A 
HETATM   20  C16 UNL     1      20.013  -0.539  53.407  1.00  0.00     0.001 A 
HETATM   21  C17 UNL     1      20.799   0.474  52.898  1.00  0.00     0.007 A 
ENDBRANCH  15  16
ENDBRANCH  14  15
ENDBRANCH  12  14
BRANCH  11  22
HETATM   22  O2  UNL     1      28.666   1.258  53.994  1.00  0.00    -0.233 OA
BRANCH  22  23
HETATM   23  O3  UNL     1      29.045   1.353  55.253  1.00  0.00    -0.250 OA
HETATM   24  H11 UNL     1      28.721   2.169  55.701  1.00  0.00     0.253 HD
ENDBRANCH  22  23
ENDBRANCH  11  22
TORSDOF 5
ENDMDL
MODEL 7
REMARK VINA RESULT:      -7.2      3.420      5.907
REMARK  5 active torsions:
REMARK  status: ('A' for Active; 'I' for Inactive)
REMARK    1  A    between atoms: C9_11  and  O2_12 
REMARK    2  A    between atoms: O2_12  and  O3_13 
REMARK    3  A    between atoms: N2_14  and  C10_15 
REMARK    4  A    between atoms: C10_15  and  C11_16 
REMARK    5  A    between atoms: C11_16  and  C12_17 
ROOT
HETATM    1  O1  UNL     1      19.828   3.700  49.610  1.00  0.00    -0.247 OA
HETATM    2  C1  UNL     1      21.037   3.617  49.951  1.00  0.00     0.323 C 
HETATM    3  N1  UNL     1      22.028   3.763  48.949  1.00  0.00    -0.337 N 
HETATM    4  C2  UNL     1      23.336   3.926  49.559  1.00  0.00     0.182 C 
HETATM    5  C3  UNL     1      23.139   3.406  50.948  1.00  0.00     0.039 C 
HETATM    6  C4  UNL     1      24.055   3.028  51.843  1.00  0.00    -0.020 C 
HETATM    7  C5  UNL     1      24.115   2.498  53.220  1.00  0.00     0.066 C 
HETATM    8  C6  UNL     1      25.063   1.310  53.235  1.00  0.00    -0.026 C 
HETATM    9  C7  UNL     1      25.947   0.930  52.350  1.00  0.00    -0.027 C 
HETATM   10  C8  UNL     1      26.052   1.799  51.121  1.00  0.00     0.066 C 
HETATM   11  C9  UNL     1      25.464   3.170  51.409  1.00  0.00     0.195 C 
HETATM   12  N2  UNL     1      21.735   3.394  51.197  1.00  0.00    -0.301 N 
HETATM   13  H1  UNL     1      21.954   3.768  47.918  1.00  0.00     0.164 HD
ENDROOT
BRANCH  12  14
HETATM   14  C10 UNL     1      20.876   3.237  52.335  1.00  0.00     0.138 C 
BRANCH  14  15
HETATM   15  C11 UNL     1      20.106   1.954  52.379  1.00  0.00     0.059 C 
BRANCH  15  16
HETATM   16  C12 UNL     1      20.885   0.838  52.978  1.00  0.00    -0.057 A 
HETATM   17  C13 UNL     1      20.863   0.568  54.316  1.00  0.00     0.007 A 
HETATM   18  C14 UNL     1      21.562  -0.451  54.938  1.00  0.00     0.001 A 
HETATM   19  C15 UNL     1      22.346  -1.259  54.130  1.00  0.00     0.000 A 
HETATM   20  C16 UNL     1      22.388  -1.010  52.772  1.00  0.00     0.001 A 
HETATM   21  C17 UNL     1      21.681   0.013  52.176  1.00  0.00     0.007 A 
ENDBRANCH  15  16
ENDBRANCH  14  15
ENDBRANCH  12  14
BRANCH  11  22
HETATM   22  O2  UNL     1      25.617   4.038  50.359  1.00  0.00    -0.233 OA
BRANCH  22  23
HETATM   23  O3  UNL     1      26.889   4.165  50.038  1.00  0.00    -0.250 OA
HETATM   24  H11 UNL     1      27.505   3.877  50.751  1.00  0.00     0.253 HD
ENDBRANCH  22  23
ENDBRANCH  11  22
TORSDOF 5
ENDMDL
MODEL 8
REMARK VINA RESULT:      -7.1      3.789      6.435
REMARK  5 active torsions:
REMARK  status: ('A' for Active; 'I' for Inactive)
REMARK    1  A    between atoms: C9_11  and  O2_12 
REMARK    2  A    between atoms: O2_12  and  O3_13 
REMARK    3  A    between atoms: N2_14  and  C10_15 
REMARK    4  A    between atoms: C10_15  and  C11_16 
REMARK    5  A    between atoms: C11_16  and  C12_17 
ROOT
HETATM    1  O1  UNL     1      20.021   2.865  49.379  1.00  0.00    -0.247 OA
HETATM    2  C1  UNL     1      21.085   3.499  49.601  1.00  0.00     0.323 C 
HETATM    3  N1  UNL     1      21.079   4.905  49.425  1.00  0.00    -0.337 N 
HETATM    4  C2  UNL     1      22.281   5.486  49.996  1.00  0.00     0.182 C 
HETATM    5  C3  UNL     1      23.214   4.321  50.101  1.00  0.00     0.039 C 
HETATM    6  C4  UNL     1      24.540   4.316  50.261  1.00  0.00    -0.020 C 
HETATM    7  C5  UNL     1      25.644   3.343  50.384  1.00  0.00     0.066 C 
HETATM    8  C6  UNL     1      26.761   3.764  49.446  1.00  0.00    -0.026 C 
HETATM    9  C7  UNL     1      26.962   4.904  48.836  1.00  0.00    -0.027 C 
HETATM   10  C8  UNL     1      25.929   5.972  49.100  1.00  0.00     0.066 C 
HETATM   11  C9  UNL     1      25.172   5.651  50.377  1.00  0.00     0.195 C 
HETATM   12  N2  UNL     1      22.420   3.138  50.023  1.00  0.00    -0.301 N 
HETATM   13  H1  UNL     1      20.386   5.529  48.978  1.00  0.00     0.164 HD
ENDROOT
BRANCH  12  14
HETATM   14  C10 UNL     1      22.606   1.737  50.263  1.00  0.00     0.138 C 
BRANCH  14  15
HETATM   15  C11 UNL     1      21.957   1.213  51.507  1.00  0.00     0.059 C 
BRANCH  15  16
HETATM   16  C12 UNL     1      22.933   0.598  52.447  1.00  0.00    -0.057 A 
HETATM   17  C13 UNL     1      24.261   0.912  52.427  1.00  0.00     0.007 A 
HETATM   18  C14 UNL     1      25.220   0.379  53.270  1.00  0.00     0.001 A 
HETATM   19  C15 UNL     1      24.790  -0.547  54.206  1.00  0.00     0.000 A 
HETATM   20  C16 UNL     1      23.451  -0.884  54.249  1.00  0.00     0.001 A 
HETATM   21  C17 UNL     1      22.514  -0.338  53.397  1.00  0.00     0.007 A 
ENDBRANCH  15  16
ENDBRANCH  14  15
ENDBRANCH  12  14
BRANCH  11  22
HETATM   22  O2  UNL     1      24.282   6.636  50.722  1.00  0.00    -0.233 OA
BRANCH  22  23
HETATM   23  O3  UNL     1      24.502   7.055  51.952  1.00  0.00    -0.250 OA
HETATM   24  H11 UNL     1      24.562   6.325  52.612  1.00  0.00     0.253 HD
ENDBRANCH  22  23
ENDBRANCH  11  22
TORSDOF 5
ENDMDL
MODEL 9
REMARK VINA RESULT:      -7.1      2.573      6.619
REMARK  5 active torsions:
REMARK  status: ('A' for Active; 'I' for Inactive)
REMARK    1  A    between atoms: C9_11  and  O2_12 
REMARK    2  A    between atoms: O2_12  and  O3_13 
REMARK    3  A    between atoms: N2_14  and  C10_15 
REMARK    4  A    between atoms: C10_15  and  C11_16 
REMARK    5  A    between atoms: C11_16  and  C12_17 
ROOT
HETATM    1  O1  UNL     1      27.946   2.658  52.277  1.00  0.00    -0.247 OA
HETATM    2  C1  UNL     1      26.795   2.690  51.768  1.00  0.00     0.323 C 
HETATM    3  N1  UNL     1      26.593   3.490  50.616  1.00  0.00    -0.337 N 
HETATM    4  C2  UNL     1      25.308   3.180  50.013  1.00  0.00     0.182 C 
HETATM    5  C3  UNL     1      24.560   2.502  51.116  1.00  0.00     0.039 C 
HETATM    6  C4  UNL     1      23.247   2.282  51.233  1.00  0.00    -0.020 C 
HETATM    7  C5  UNL     1      22.301   1.665  52.184  1.00  0.00     0.066 C 
HETATM    8  C6  UNL     1      21.146   2.627  52.403  1.00  0.00    -0.026 C 
HETATM    9  C7  UNL     1      20.786   3.678  51.713  1.00  0.00    -0.027 C 
HETATM   10  C8  UNL     1      21.642   3.991  50.510  1.00  0.00     0.066 C 
HETATM   11  C9  UNL     1      22.421   2.753  50.098  1.00  0.00     0.195 C 
HETATM   12  N2  UNL     1      25.524   2.075  52.078  1.00  0.00    -0.301 N 
HETATM   13  H1  UNL     1      27.189   4.211  50.178  1.00  0.00     0.164 HD
ENDROOT
BRANCH  12  14
HETATM   14  C10 UNL     1      25.548   1.211  53.221  1.00  0.00     0.138 C 
BRANCH  14  15
HETATM   15  C11 UNL     1      25.563  -0.254  52.912  1.00  0.00     0.059 C 
BRANCH  15  16
HETATM   16  C12 UNL     1      26.909  -0.862  53.088  1.00  0.00    -0.057 A 
HETATM   17  C13 UNL     1      27.191  -2.138  52.693  1.00  0.00     0.007 A 
HETATM   18  C14 UNL     1      28.417  -2.764  52.827  1.00  0.00     0.001 A 
HETATM   19  C15 UNL     1      29.436  -2.030  53.411  1.00  0.00     0.000 A 
HETATM   20  C16 UNL     1      29.181  -0.735  53.821  1.00  0.00     0.001 A 
HETATM   21  C17 UNL     1      27.948  -0.134  53.676  1.00  0.00     0.007 A 
ENDBRANCH  15  16
ENDBRANCH  14  15
ENDBRANCH  12  14
BRANCH  11  22
HETATM   22  O2  UNL     1      23.146   2.948  48.951  1.00  0.00    -0.233 OA
BRANCH  22  23
HETATM   23  O3  UNL     1      22.647   2.242  47.956  1.00  0.00    -0.250 OA
HETATM   24  H11 UNL     1      22.872   1.283  48.003  1.00  0.00     0.253 HD
ENDBRANCH  22  23
ENDBRANCH  11  22
TORSDOF 5
ENDMDL
