MODEL 1
REMARK VINA RESULT:      -9.1      0.000      0.000
REMARK  2 active torsions:
REMARK  status: ('A' for Active; 'I' for Inactive)
REMARK    1  A    between atoms: C2_2  and  O1_3 
REMARK    2  A    between atoms: O1_3  and  C3_4 
ROOT
HETATM    1  C3  UNL     1      27.115   0.594  53.288  1.00  0.00     0.114 C 
HETATM    2  C4  UNL     1      26.346  -0.416  53.865  1.00  0.00     0.040 C 
HETATM    3  C5  UNL     1      24.906  -0.550  53.702  1.00  0.00     0.000 C 
HETATM    4  C6  UNL     1      23.611  -0.470  53.426  1.00  0.00    -0.011 C 
HETATM    5  C7  UNL     1      22.517   0.387  52.713  1.00  0.00     0.021 A 
HETATM    6  C8  UNL     1      21.635   0.527  53.872  1.00  0.00    -0.010 A 
HETATM    7  C9  UNL     1      20.363   1.204  54.109  1.00  0.00     0.001 A 
HETATM    8  C10 UNL     1      20.612   1.503  52.722  1.00  0.00    -0.065 A 
HETATM    9  C11 UNL     1      21.731   1.057  52.086  1.00  0.00     0.015 A 
HETATM   10  C12 UNL     1      22.728   0.694  51.409  1.00  0.00     0.015 A 
HETATM   11  C13 UNL     1      22.123   1.354  50.235  1.00  0.00    -0.068 C 
HETATM   12  C14 UNL     1      20.960   1.024  49.463  1.00  0.00     0.003 C 
HETATM   13  C15 UNL     1      19.555   0.791  50.000  1.00  0.00    -0.003 C 
HETATM   14  C16 UNL     1      18.831   1.175  51.088  1.00  0.00    -0.022 C 
HETATM   15  C17 UNL     1      19.327   2.173  52.148  1.00  0.00     0.062 C 
HETATM   16  C18 UNL     1      22.512   2.611  49.456  1.00  0.00     0.040 C 
HETATM   17  C19 UNL     1      23.767   3.263  49.080  1.00  0.00     0.056 C 
HETATM   18  C20 UNL     1      24.696   3.744  50.237  1.00  0.00     0.040 C 
HETATM   19  C21 UNL     1      24.493   4.985  50.869  1.00  0.00     0.096 C 
HETATM   20  N1  UNL     1      24.330   5.990  51.401  1.00  0.00    -0.192 NA
HETATM   21  C22 UNL     1      25.770   3.284  50.867  1.00  0.00     0.137 C 
HETATM   22  N2  UNL     1      26.939   2.836  51.591  1.00  0.00    -0.240 NA
HETATM   23  C23 UNL     1      26.782   1.741  52.333  1.00  0.00     0.157 C 
HETATM   24  N3  UNL     1      25.569   1.103  51.769  1.00  0.00    -0.373 N 
HETATM   25  C24 UNL     1      24.196   0.898  51.149  1.00  0.00     0.121 A 
HETATM   26  C25 UNL     1      23.210   1.444  52.065  1.00  0.00     0.049 A 
HETATM   27  H21 UNL     1      25.907   0.113  51.710  1.00  0.00     0.161 HD
ENDROOT
BRANCH   1  28
HETATM   28  O1  UNL     1      28.325   1.132  53.136  1.00  0.00    -0.348 OA
BRANCH  28  29
HETATM   29  C2  UNL     1      29.476   0.757  53.857  1.00  0.00     0.171 C 
HETATM   30  C1  UNL     1      30.005  -0.585  53.539  1.00  0.00     0.034 C 
ENDBRANCH  28  29
ENDBRANCH   1  28
TORSDOF 2
ENDMDL
MODEL 2
REMARK VINA RESULT:      -8.9      2.628      5.691
REMARK  2 active torsions:
REMARK  status: ('A' for Active; 'I' for Inactive)
REMARK    1  A    between atoms: C2_2  and  O1_3 
REMARK    2  A    between atoms: O1_3  and  C3_4 
ROOT
HETATM    1  C3  UNL     1      23.110  -0.328  52.883  1.00  0.00     0.114 C 
HETATM    2  C4  UNL     1      24.455  -0.097  53.171  1.00  0.00     0.040 C 
HETATM    3  C5  UNL     1      25.208   1.059  52.711  1.00  0.00     0.000 C 
HETATM    4  C6  UNL     1      25.693   2.173  52.177  1.00  0.00    -0.011 C 
HETATM    5  C7  UNL     1      25.360   3.383  51.248  1.00  0.00     0.021 A 
HETATM    6  C8  UNL     1      26.485   3.203  50.330  1.00  0.00    -0.010 A 
HETATM    7  C9  UNL     1      26.943   3.898  49.131  1.00  0.00     0.001 A 
HETATM    8  C10 UNL     1      25.772   4.656  49.492  1.00  0.00    -0.065 A 
HETATM    9  C11 UNL     1      25.018   4.329  50.578  1.00  0.00     0.015 A 
HETATM   10  C12 UNL     1      24.258   4.111  51.557  1.00  0.00     0.015 A 
HETATM   11  C13 UNL     1      23.481   5.306  51.170  1.00  0.00    -0.068 C 
HETATM   12  C14 UNL     1      23.814   6.700  51.210  1.00  0.00     0.003 C 
HETATM   13  C15 UNL     1      25.043   7.355  50.596  1.00  0.00    -0.003 C 
HETATM   14  C16 UNL     1      25.900   7.091  49.570  1.00  0.00    -0.022 C 
HETATM   15  C17 UNL     1      25.735   5.922  48.583  1.00  0.00     0.062 C 
HETATM   16  C18 UNL     1      22.078   5.467  50.584  1.00  0.00     0.040 C 
HETATM   17  C19 UNL     1      20.796   4.776  50.731  1.00  0.00     0.056 C 
HETATM   18  C20 UNL     1      20.746   3.271  50.326  1.00  0.00     0.040 C 
HETATM   19  C21 UNL     1      20.556   2.881  48.987  1.00  0.00     0.096 C 
HETATM   20  N1  UNL     1      20.414   2.551  47.896  1.00  0.00    -0.192 NA
HETATM   21  C22 UNL     1      20.816   2.101  50.948  1.00  0.00     0.137 C 
HETATM   22  N2  UNL     1      20.886   0.796  51.568  1.00  0.00    -0.240 NA
HETATM   23  C23 UNL     1      22.050   0.481  52.136  1.00  0.00     0.157 C 
HETATM   24  N3  UNL     1      22.712   1.792  52.333  1.00  0.00    -0.373 N 
HETATM   25  C24 UNL     1      23.185   3.222  52.124  1.00  0.00     0.121 A 
HETATM   26  C25 UNL     1      23.986   3.252  50.914  1.00  0.00     0.049 A 
HETATM   27  H21 UNL     1      23.047   1.668  53.318  1.00  0.00     0.161 HD
ENDROOT
BRANCH   1  28
HETATM   28  O1  UNL     1      22.056  -1.134  53.024  1.00  0.00    -0.348 OA
BRANCH  28  29
HETATM   29  C2  UNL     1      21.528  -1.571  54.254  1.00  0.00     0.171 C 
HETATM   30  C1  UNL     1      22.482  -1.567  55.383  1.00  0.00     0.034 C 
ENDBRANCH  28  29
ENDBRANCH   1  28
TORSDOF 2
ENDMDL
MODEL 3
REMARK VINA RESULT:      -8.7      1.678      4.140
REMARK  2 active torsions:
REMARK  status: ('A' for Active; 'I' for Inactive)
REMARK    1  A    between atoms: C2_2  and  O1_3 
REMARK    2  A    between atoms: O1_3  and  C3_4 
ROOT
HETATM    1  C3  UNL     1      26.986   1.102  53.018  1.00  0.00     0.114 C 
HETATM    2  C4  UNL     1      27.141   2.055  52.012  1.00  0.00     0.040 C 
HETATM    3  C5  UNL     1      26.052   2.588  51.208  1.00  0.00     0.000 C 
HETATM    4  C6  UNL     1      24.922   2.920  50.598  1.00  0.00    -0.011 C 
HETATM    5  C7  UNL     1      23.393   2.615  50.506  1.00  0.00     0.021 A 
HETATM    6  C8  UNL     1      23.359   2.364  49.065  1.00  0.00    -0.010 A 
HETATM    7  C9  UNL     1      22.311   1.990  48.120  1.00  0.00     0.001 A 
HETATM    8  C10 UNL     1      21.587   2.061  49.364  1.00  0.00    -0.065 A 
HETATM    9  C11 UNL     1      22.208   2.380  50.533  1.00  0.00     0.015 A 
HETATM   10  C12 UNL     1      22.686   2.665  51.662  1.00  0.00     0.015 A 
HETATM   11  C13 UNL     1      21.323   2.555  52.223  1.00  0.00    -0.068 C 
HETATM   12  C14 UNL     1      20.163   3.379  52.047  1.00  0.00     0.003 C 
HETATM   13  C15 UNL     1      19.536   3.788  50.722  1.00  0.00    -0.003 C 
HETATM   14  C16 UNL     1      19.484   3.293  49.454  1.00  0.00    -0.022 C 
HETATM   15  C17 UNL     1      20.069   1.935  49.030  1.00  0.00     0.062 C 
HETATM   16  C18 UNL     1      20.683   1.529  53.158  1.00  0.00     0.040 C 
HETATM   17  C19 UNL     1      21.133   0.725  54.295  1.00  0.00     0.056 C 
HETATM   18  C20 UNL     1      22.286  -0.293  54.037  1.00  0.00     0.040 C 
HETATM   19  C21 UNL     1      22.026  -1.573  53.512  1.00  0.00     0.096 C 
HETATM   20  N1  UNL     1      21.829  -2.616  53.073  1.00  0.00    -0.192 NA
HETATM   21  C22 UNL     1      23.602  -0.324  54.207  1.00  0.00     0.137 C 
HETATM   22  N2  UNL     1      25.036  -0.419  54.367  1.00  0.00    -0.240 NA
HETATM   23  C23 UNL     1      25.763   0.410  53.620  1.00  0.00     0.157 C 
HETATM   24  N3  UNL     1      24.801   1.469  53.231  1.00  0.00    -0.373 N 
HETATM   25  C24 UNL     1      23.527   2.186  52.813  1.00  0.00     0.121 A 
HETATM   26  C25 UNL     1      23.125   1.659  51.522  1.00  0.00     0.049 A 
HETATM   27  H21 UNL     1      25.390   2.314  53.421  1.00  0.00     0.161 HD
ENDROOT
BRANCH   1  28
HETATM   28  O1  UNL     1      27.575   0.347  53.946  1.00  0.00    -0.348 OA
BRANCH  28  29
HETATM   29  C2  UNL     1      28.956   0.340  54.230  1.00  0.00     0.171 C 
HETATM   30  C1  UNL     1      29.726  -0.732  53.567  1.00  0.00     0.034 C 
ENDBRANCH  28  29
ENDBRANCH   1  28
TORSDOF 2
ENDMDL
MODEL 4
REMARK VINA RESULT:      -8.5      3.007      5.137
REMARK  2 active torsions:
REMARK  status: ('A' for Active; 'I' for Inactive)
REMARK    1  A    between atoms: C2_2  and  O1_3 
REMARK    2  A    between atoms: O1_3  and  C3_4 
ROOT
HETATM    1  C3  UNL     1      26.789   6.203  48.443  1.00  0.00     0.114 C 
HETATM    2  C4  UNL     1      27.479   5.050  48.814  1.00  0.00     0.040 C 
HETATM    3  C5  UNL     1      26.868   3.894  49.451  1.00  0.00     0.000 C 
HETATM    4  C6  UNL     1      26.109   2.970  50.027  1.00  0.00    -0.011 C 
HETATM    5  C7  UNL     1      24.670   2.652  50.543  1.00  0.00     0.021 A 
HETATM    6  C8  UNL     1      25.059   2.277  51.903  1.00  0.00    -0.010 A 
HETATM    7  C9  UNL     1      24.327   1.847  53.090  1.00  0.00     0.001 A 
HETATM    8  C10 UNL     1      23.268   2.028  52.130  1.00  0.00    -0.065 A 
HETATM    9  C11 UNL     1      23.522   2.444  50.858  1.00  0.00     0.015 A 
HETATM   10  C12 UNL     1      23.650   2.822  49.665  1.00  0.00     0.015 A 
HETATM   11  C13 UNL     1      22.192   2.658  49.497  1.00  0.00    -0.068 C 
HETATM   12  C14 UNL     1      21.372   1.482  49.470  1.00  0.00     0.003 C 
HETATM   13  C15 UNL     1      21.329   0.386  50.525  1.00  0.00    -0.003 C 
HETATM   14  C16 UNL     1      21.589   0.279  51.858  1.00  0.00    -0.022 C 
HETATM   15  C17 UNL     1      21.959   1.465  52.764  1.00  0.00     0.062 C 
HETATM   16  C18 UNL     1      21.064   3.675  49.314  1.00  0.00     0.040 C 
HETATM   17  C19 UNL     1      20.918   4.968  48.645  1.00  0.00     0.056 C 
HETATM   18  C20 UNL     1      21.830   6.133  49.138  1.00  0.00     0.040 C 
HETATM   19  C21 UNL     1      21.477   6.915  50.254  1.00  0.00     0.096 C 
HETATM   20  N1  UNL     1      21.206   7.552  51.171  1.00  0.00    -0.192 NA
HETATM   21  C22 UNL     1      22.972   6.691  48.758  1.00  0.00     0.137 C 
HETATM   22  N2  UNL     1      24.212   7.341  48.395  1.00  0.00    -0.240 NA
HETATM   23  C23 UNL     1      25.313   6.597  48.495  1.00  0.00     0.157 C 
HETATM   24  N3  UNL     1      24.799   5.207  48.499  1.00  0.00    -0.373 N 
HETATM   25  C24 UNL     1      23.932   3.984  48.752  1.00  0.00     0.121 A 
HETATM   26  C25 UNL     1      23.872   3.772  50.187  1.00  0.00     0.049 A 
HETATM   27  H21 UNL     1      25.467   4.775  47.817  1.00  0.00     0.161 HD
ENDROOT
BRANCH   1  28
HETATM   28  O1  UNL     1      26.851   7.421  47.902  1.00  0.00    -0.348 OA
BRANCH  28  29
HETATM   29  C2  UNL     1      27.884   8.354  48.121  1.00  0.00     0.171 C 
HETATM   30  C1  UNL     1      27.857   9.021  49.439  1.00  0.00     0.034 C 
ENDBRANCH  28  29
ENDBRANCH   1  28
TORSDOF 2
ENDMDL
MODEL 5
REMARK VINA RESULT:      -8.4      3.101      6.683
REMARK  2 active torsions:
REMARK  status: ('A' for Active; 'I' for Inactive)
REMARK    1  A    between atoms: C2_2  and  O1_3 
REMARK    2  A    between atoms: O1_3  and  C3_4 
ROOT
HETATM    1  C3  UNL     1      21.941   0.942  51.342  1.00  0.00     0.114 C 
HETATM    2  C4  UNL     1      23.204   0.859  51.926  1.00  0.00     0.040 C 
HETATM    3  C5  UNL     1      24.262   1.840  51.742  1.00  0.00     0.000 C 
HETATM    4  C6  UNL     1      25.071   2.843  51.428  1.00  0.00    -0.011 C 
HETATM    5  C7  UNL     1      25.211   4.138  50.566  1.00  0.00     0.021 A 
HETATM    6  C8  UNL     1      26.452   3.757  49.891  1.00  0.00    -0.010 A 
HETATM    7  C9  UNL     1      27.300   4.388  48.885  1.00  0.00     0.001 A 
HETATM    8  C10 UNL     1      26.258   5.367  49.061  1.00  0.00    -0.065 A 
HETATM    9  C11 UNL     1      25.229   5.165  49.929  1.00  0.00     0.015 A 
HETATM   10  C12 UNL     1      24.240   5.075  50.703  1.00  0.00     0.015 A 
HETATM   11  C13 UNL     1      23.831   6.428  50.274  1.00  0.00    -0.068 C 
HETATM   12  C14 UNL     1      24.424   7.712  50.512  1.00  0.00     0.003 C 
HETATM   13  C15 UNL     1      25.867   8.107  50.232  1.00  0.00    -0.003 C 
HETATM   14  C16 UNL     1      26.860   7.708  49.390  1.00  0.00    -0.022 C 
HETATM   15  C17 UNL     1      26.685   6.651  48.286  1.00  0.00     0.062 C 
HETATM   16  C18 UNL     1      22.659   6.920  49.425  1.00  0.00     0.040 C 
HETATM   17  C19 UNL     1      21.263   6.522  49.235  1.00  0.00     0.056 C 
HETATM   18  C20 UNL     1      20.999   5.085  48.690  1.00  0.00     0.040 C 
HETATM   19  C21 UNL     1      21.039   4.808  47.311  1.00  0.00     0.096 C 
HETATM   20  N1  UNL     1      21.081   4.566  46.189  1.00  0.00    -0.192 NA
HETATM   21  C22 UNL     1      20.687   3.901  49.203  1.00  0.00     0.137 C 
HETATM   22  N2  UNL     1      20.347   2.586  49.700  1.00  0.00    -0.240 NA
HETATM   23  C23 UNL     1      21.264   1.997  50.467  1.00  0.00     0.157 C 
HETATM   24  N3  UNL     1      22.119   3.120  50.919  1.00  0.00    -0.373 N 
HETATM   25  C24 UNL     1      22.908   4.419  50.948  1.00  0.00     0.121 A 
HETATM   26  C25 UNL     1      23.950   4.327  49.940  1.00  0.00     0.049 A 
HETATM   27  H21 UNL     1      22.192   2.881  51.937  1.00  0.00     0.161 HD
ENDROOT
BRANCH   1  28
HETATM   28  O1  UNL     1      20.741   0.382  51.183  1.00  0.00    -0.348 OA
BRANCH  28  29
HETATM   29  C2  UNL     1      19.838   0.089  52.224  1.00  0.00     0.171 C 
HETATM   30  C1  UNL     1      18.459  -0.215  51.791  1.00  0.00     0.034 C 
ENDBRANCH  28  29
ENDBRANCH   1  28
TORSDOF 2
ENDMDL
MODEL 6
REMARK VINA RESULT:      -8.3      4.768      8.746
REMARK  2 active torsions:
REMARK  status: ('A' for Active; 'I' for Inactive)
REMARK    1  A    between atoms: C2_2  and  O1_3 
REMARK    2  A    between atoms: O1_3  and  C3_4 
ROOT
HETATM    1  C3  UNL     1      22.677   3.776  48.334  1.00  0.00     0.114 C 
HETATM    2  C4  UNL     1      23.609   3.251  49.229  1.00  0.00     0.040 C 
HETATM    3  C5  UNL     1      24.915   3.834  49.495  1.00  0.00     0.000 C 
HETATM    4  C6  UNL     1      26.045   4.526  49.569  1.00  0.00    -0.011 C 
HETATM    5  C7  UNL     1      26.829   5.741  48.980  1.00  0.00     0.021 A 
HETATM    6  C8  UNL     1      28.043   5.002  48.630  1.00  0.00    -0.010 A 
HETATM    7  C9  UNL     1      29.311   5.363  48.005  1.00  0.00     0.001 A 
HETATM    8  C10 UNL     1      28.613   6.623  48.024  1.00  0.00    -0.065 A 
HETATM    9  C11 UNL     1      27.353   6.733  48.531  1.00  0.00     0.015 A 
HETATM   10  C12 UNL     1      26.194   6.939  48.975  1.00  0.00     0.015 A 
HETATM   11  C13 UNL     1      26.367   8.370  48.652  1.00  0.00    -0.068 C 
HETATM   12  C14 UNL     1      27.214   9.371  49.232  1.00  0.00     0.003 C 
HETATM   13  C15 UNL     1      28.720   9.279  49.427  1.00  0.00    -0.003 C 
HETATM   14  C16 UNL     1      29.758   8.614  48.847  1.00  0.00    -0.022 C 
HETATM   15  C17 UNL     1      29.626   7.728  47.596  1.00  0.00     0.062 C 
HETATM   16  C18 UNL     1      25.724   9.263  47.591  1.00  0.00     0.040 C 
HETATM   17  C19 UNL     1      24.406   9.359  46.962  1.00  0.00     0.056 C 
HETATM   18  C20 UNL     1      23.904   8.119  46.162  1.00  0.00     0.040 C 
HETATM   19  C21 UNL     1      24.287   7.910  44.823  1.00  0.00     0.096 C 
HETATM   20  N1  UNL     1      24.602   7.722  43.735  1.00  0.00    -0.192 NA
HETATM   21  C22 UNL     1      23.106   7.082  46.387  1.00  0.00     0.137 C 
HETATM   22  N2  UNL     1      22.249   5.932  46.572  1.00  0.00    -0.240 NA
HETATM   23  C23 UNL     1      22.659   5.037  47.469  1.00  0.00     0.157 C 
HETATM   24  N3  UNL     1      23.626   5.790  48.302  1.00  0.00    -0.373 N 
HETATM   25  C24 UNL     1      24.720   6.751  48.740  1.00  0.00     0.121 A 
HETATM   26  C25 UNL     1      25.945   6.367  48.061  1.00  0.00     0.049 A 
HETATM   27  H21 UNL     1      23.302   5.492  49.253  1.00  0.00     0.161 HD
ENDROOT
BRANCH   1  28
HETATM   28  O1  UNL     1      21.477   3.654  47.766  1.00  0.00    -0.348 OA
BRANCH  28  29
HETATM   29  C2  UNL     1      20.348   3.070  48.374  1.00  0.00     0.171 C 
HETATM   30  C1  UNL     1      20.543   1.690  48.864  1.00  0.00     0.034 C 
ENDBRANCH  28  29
ENDBRANCH   1  28
TORSDOF 2
ENDMDL
MODEL 7
REMARK VINA RESULT:      -8.2      1.802      2.720
REMARK  2 active torsions:
REMARK  status: ('A' for Active; 'I' for Inactive)
REMARK    1  A    between atoms: C2_2  and  O1_3 
REMARK    2  A    between atoms: O1_3  and  C3_4 
ROOT
HETATM    1  C3  UNL     1      24.262   0.333  53.170  1.00  0.00     0.114 C 
HETATM    2  C4  UNL     1      23.090  -0.422  53.209  1.00  0.00     0.040 C 
HETATM    3  C5  UNL     1      21.864  -0.075  52.508  1.00  0.00     0.000 C 
HETATM    4  C6  UNL     1      20.865   0.437  51.800  1.00  0.00    -0.011 C 
HETATM    5  C7  UNL     1      20.423   1.653  50.926  1.00  0.00     0.021 A 
HETATM    6  C8  UNL     1      19.214   1.973  51.685  1.00  0.00    -0.010 A 
HETATM    7  C9  UNL     1      18.181   2.999  51.572  1.00  0.00     0.001 A 
HETATM    8  C10 UNL     1      19.046   3.315  50.464  1.00  0.00    -0.065 A 
HETATM    9  C11 UNL     1      20.168   2.588  50.204  1.00  0.00     0.015 A 
HETATM   10  C12 UNL     1      21.222   1.982  49.881  1.00  0.00     0.015 A 
HETATM   11  C13 UNL     1      21.346   2.895  48.726  1.00  0.00    -0.068 C 
HETATM   12  C14 UNL     1      20.560   3.018  47.533  1.00  0.00     0.003 C 
HETATM   13  C15 UNL     1      19.051   3.202  47.460  1.00  0.00    -0.003 C 
HETATM   14  C16 UNL     1      18.072   3.708  48.261  1.00  0.00    -0.022 C 
HETATM   15  C17 UNL     1      18.331   4.405  49.608  1.00  0.00     0.062 C 
HETATM   16  C18 UNL     1      22.333   4.020  48.415  1.00  0.00     0.040 C 
HETATM   17  C19 UNL     1      23.754   4.266  48.663  1.00  0.00     0.056 C 
HETATM   18  C20 UNL     1      24.217   4.328  50.151  1.00  0.00     0.040 C 
HETATM   19  C21 UNL     1      24.104   5.513  50.902  1.00  0.00     0.096 C 
HETATM   20  N1  UNL     1      24.005   6.471  51.529  1.00  0.00    -0.192 NA
HETATM   21  C22 UNL     1      24.778   3.500  51.023  1.00  0.00     0.137 C 
HETATM   22  N2  UNL     1      25.387   2.644  52.018  1.00  0.00    -0.240 NA
HETATM   23  C23 UNL     1      24.661   1.600  52.413  1.00  0.00     0.157 C 
HETATM   24  N3  UNL     1      23.665   1.431  51.328  1.00  0.00    -0.373 N 
HETATM   25  C24 UNL     1      22.665   1.727  50.222  1.00  0.00     0.121 A 
HETATM   26  C25 UNL     1      21.570   2.482  50.804  1.00  0.00     0.049 A 
HETATM   27  H21 UNL     1      23.727   0.394  51.198  1.00  0.00     0.161 HD
ENDROOT
BRANCH   1  28
HETATM   28  O1  UNL     1      25.523   0.467  53.584  1.00  0.00    -0.348 OA
BRANCH  28  29
HETATM   29  C2  UNL     1      26.432  -0.593  53.770  1.00  0.00     0.171 C 
HETATM   30  C1  UNL     1      26.778  -1.345  52.547  1.00  0.00     0.034 C 
ENDBRANCH  28  29
ENDBRANCH   1  28
TORSDOF 2
ENDMDL
MODEL 8
REMARK VINA RESULT:      -8.1      8.771     12.097
REMARK  2 active torsions:
REMARK  status: ('A' for Active; 'I' for Inactive)
REMARK    1  A    between atoms: C2_2  and  O1_3 
REMARK    2  A    between atoms: O1_3  and  C3_4 
ROOT
HETATM    1  C3  UNL     1      27.955   8.555  47.212  1.00  0.00     0.114 C 
HETATM    2  C4  UNL     1      27.688   7.345  47.851  1.00  0.00     0.040 C 
HETATM    3  C5  UNL     1      28.671   6.295  48.067  1.00  0.00     0.000 C 
HETATM    4  C6  UNL     1      29.716   5.481  48.143  1.00  0.00    -0.011 C 
HETATM    5  C7  UNL     1      31.210   5.293  47.730  1.00  0.00     0.021 A 
HETATM    6  C8  UNL     1      31.042   3.992  47.082  1.00  0.00    -0.010 A 
HETATM    7  C9  UNL     1      31.943   3.074  46.393  1.00  0.00     0.001 A 
HETATM    8  C10 UNL     1      32.830   4.145  46.766  1.00  0.00    -0.065 A 
HETATM    9  C11 UNL     1      32.382   5.241  47.439  1.00  0.00     0.015 A 
HETATM   10  C12 UNL     1      32.069   6.290  48.059  1.00  0.00     0.015 A 
HETATM   11  C13 UNL     1      33.491   6.687  48.027  1.00  0.00    -0.068 C 
HETATM   12  C14 UNL     1      34.637   6.141  48.694  1.00  0.00     0.003 C 
HETATM   13  C15 UNL     1      35.088   4.688  48.674  1.00  0.00    -0.003 C 
HETATM   14  C16 UNL     1      34.956   3.618  47.840  1.00  0.00    -0.022 C 
HETATM   15  C17 UNL     1      34.286   3.678  46.457  1.00  0.00     0.062 C 
HETATM   16  C18 UNL     1      34.227   7.792  47.268  1.00  0.00     0.040 C 
HETATM   17  C19 UNL     1      33.916   9.158  46.846  1.00  0.00     0.056 C 
HETATM   18  C20 UNL     1      32.714   9.347  45.870  1.00  0.00     0.040 C 
HETATM   19  C21 UNL     1      32.869   9.184  44.480  1.00  0.00     0.096 C 
HETATM   20  N1  UNL     1      32.979   9.042  43.346  1.00  0.00    -0.192 NA
HETATM   21  C22 UNL     1      31.433   9.679  45.970  1.00  0.00     0.137 C 
HETATM   22  N2  UNL     1      30.032  10.034  46.013  1.00  0.00    -0.240 NA
HETATM   23  C23 UNL     1      29.231   9.175  46.642  1.00  0.00     0.157 C 
HETATM   24  N3  UNL     1      30.157   8.384  47.487  1.00  0.00    -0.373 N 
HETATM   25  C24 UNL     1      31.380   7.625  47.977  1.00  0.00     0.121 A 
HETATM   26  C25 UNL     1      31.590   6.500  47.084  1.00  0.00     0.049 A 
HETATM   27  H21 UNL     1      29.619   8.394  48.387  1.00  0.00     0.161 HD
ENDROOT
BRANCH   1  28
HETATM   28  O1  UNL     1      27.478   9.727  46.787  1.00  0.00    -0.348 OA
BRANCH  28  29
HETATM   29  C2  UNL     1      26.149  10.166  46.941  1.00  0.00     0.171 C 
HETATM   30  C1  UNL     1      25.784  10.593  48.308  1.00  0.00     0.034 C 
ENDBRANCH  28  29
ENDBRANCH   1  28
TORSDOF 2
ENDMDL
MODEL 9
REMARK VINA RESULT:      -8.1      7.247      9.495
REMARK  2 active torsions:
REMARK  status: ('A' for Active; 'I' for Inactive)
REMARK    1  A    between atoms: C2_2  and  O1_3 
REMARK    2  A    between atoms: O1_3  and  C3_4 
ROOT
HETATM    1  C3  UNL     1      32.136   7.358  48.724  1.00  0.00     0.114 C 
HETATM    2  C4  UNL     1      31.537   6.098  48.719  1.00  0.00     0.040 C 
HETATM    3  C5  UNL     1      30.136   5.854  48.414  1.00  0.00     0.000 C 
HETATM    4  C6  UNL     1      28.843   5.870  48.117  1.00  0.00    -0.011 C 
HETATM    5  C7  UNL     1      27.625   6.795  47.804  1.00  0.00     0.021 A 
HETATM    6  C8  UNL     1      26.737   6.256  48.834  1.00  0.00    -0.010 A 
HETATM    7  C9  UNL     1      25.376   6.559  49.266  1.00  0.00     0.001 A 
HETATM    8  C10 UNL     1      25.569   7.499  48.193  1.00  0.00    -0.065 A 
HETATM    9  C11 UNL     1      26.741   7.562  47.501  1.00  0.00     0.015 A 
HETATM   10  C12 UNL     1      27.779   7.698  46.804  1.00  0.00     0.015 A 
HETATM   11  C13 UNL     1      27.073   8.736  46.025  1.00  0.00    -0.068 C 
HETATM   12  C14 UNL     1      25.972   8.641  45.110  1.00  0.00     0.003 C 
HETATM   13  C15 UNL     1      24.624   7.990  45.382  1.00  0.00    -0.003 C 
HETATM   14  C16 UNL     1      23.853   7.720  46.472  1.00  0.00    -0.022 C 
HETATM   15  C17 UNL     1      24.191   8.170  47.903  1.00  0.00     0.062 C 
HETATM   16  C18 UNL     1      27.257  10.251  45.939  1.00  0.00     0.040 C 
HETATM   17  C19 UNL     1      28.392  11.173  45.991  1.00  0.00     0.056 C 
HETATM   18  C20 UNL     1      29.239  11.188  47.300  1.00  0.00     0.040 C 
HETATM   19  C21 UNL     1      28.847  11.951  48.416  1.00  0.00     0.096 C 
HETATM   20  N1  UNL     1      28.531  12.560  49.337  1.00  0.00    -0.192 NA
HETATM   21  C22 UNL     1      30.375  10.644  47.721  1.00  0.00     0.137 C 
HETATM   22  N2  UNL     1      31.603  10.081  48.237  1.00  0.00    -0.240 NA
HETATM   23  C23 UNL     1      31.623   8.757  48.382  1.00  0.00     0.157 C 
HETATM   24  N3  UNL     1      30.523   8.290  47.506  1.00  0.00    -0.373 N 
HETATM   25  C24 UNL     1      29.196   8.204  46.768  1.00  0.00     0.121 A 
HETATM   26  C25 UNL     1      28.141   8.118  47.762  1.00  0.00     0.049 A 
HETATM   27  H21 UNL     1      31.011   7.499  47.022  1.00  0.00     0.161 HD
ENDROOT
BRANCH   1  28
HETATM   28  O1  UNL     1      33.246   8.070  48.920  1.00  0.00    -0.348 OA
BRANCH  28  29
HETATM   29  C2  UNL     1      34.450   7.908  48.206  1.00  0.00     0.171 C 
HETATM   30  C1  UNL     1      35.253   6.729  48.590  1.00  0.00     0.034 C 
ENDBRANCH  28  29
ENDBRANCH   1  28
TORSDOF 2
ENDMDL
