MODEL 1
REMARK VINA RESULT:      -9.0      0.000      0.000
REMARK  5 active torsions:
REMARK  status: ('A' for Active; 'I' for Inactive)
REMARK    1  A    between atoms: N1_1  and  C1_2 
REMARK    2  A    between atoms: C2_4  and  N3_5 
REMARK    3  A    between atoms: N3_5  and  C3_6 
REMARK    4  A    between atoms: C11_16  and  C12_17 
REMARK    5  A    between atoms: C12_17  and  C13_18 
ROOT
HETATM    1  C1  UNL     1      22.272   1.861  49.685  1.00  0.00     0.698 C 
HETATM    2  N2  UNL     1      23.029   2.938  49.507  1.00  0.00    -0.047 NA
HETATM    3  C2  UNL     1      23.726   3.410  50.707  1.00  0.00     0.155 C 
HETATM    4  C9  UNL     1      23.468   2.685  51.785  1.00  0.00     0.007 C 
HETATM    5  C10 UNL     1      24.214   1.872  52.740  1.00  0.00     0.017 C 
HETATM    6  C11 UNL     1      23.523   0.664  52.797  1.00  0.00    -0.057 C 
HETATM    7  C19 UNL     1      22.312   0.229  51.891  1.00  0.00     0.176 C 
HETATM    8  N4  UNL     1      22.139   1.361  51.003  1.00  0.00    -0.208 N 
HETATM    9  C20 UNL     1      21.912   2.505  51.975  1.00  0.00     0.184 C 
ENDROOT
BRANCH   3  10
HETATM   10  N3  UNL     1      24.706   4.331  51.170  1.00  0.00    -0.338 N 
HETATM   11  H3  UNL     1      24.773   4.584  52.176  1.00  0.00     0.167 HD
BRANCH  10  12
HETATM   12  C3  UNL     1      25.627   4.913  50.239  1.00  0.00     0.072 A 
HETATM   13  C4  UNL     1      25.586   6.257  49.951  1.00  0.00     0.034 A 
HETATM   14  C5  UNL     1      26.439   6.892  49.067  1.00  0.00     0.026 A 
HETATM   15  C6  UNL     1      27.390   6.120  48.435  1.00  0.00     0.037 A 
HETATM   16 CL1  UNL     1      28.512   6.845  47.297  1.00  0.00    -0.084 Cl
HETATM   17  C7  UNL     1      27.447   4.768  48.711  1.00  0.00     0.068 A 
HETATM   18  C8  UNL     1      26.586   4.163  49.594  1.00  0.00     0.144 A 
HETATM   19  F1  UNL     1      26.703   2.833  49.818  1.00  0.00    -0.204 F 
ENDBRANCH  10  12
ENDBRANCH   3  10
BRANCH   1  20
HETATM   20  N1  UNL     1      21.571   0.923  48.888  1.00  0.00    -0.233 N 
HETATM   21  H1  UNL     1      21.775   0.818  47.870  1.00  0.00     0.174 HD
HETATM   22  H2  UNL     1      20.829   0.297  49.268  1.00  0.00     0.174 HD
ENDBRANCH   1  20
BRANCH   6  23
HETATM   23  C12 UNL     1      24.065  -0.205  53.805  1.00  0.00     0.074 C 
BRANCH  23  24
HETATM   24  C13 UNL     1      25.557  -0.330  53.751  1.00  0.00    -0.054 A 
HETATM   25  C14 UNL     1      26.129  -1.028  52.706  1.00  0.00     0.007 A 
HETATM   26  C15 UNL     1      27.512  -1.101  52.722  1.00  0.00     0.001 A 
HETATM   27  C16 UNL     1      28.248  -0.508  53.728  1.00  0.00     0.000 A 
HETATM   28  C17 UNL     1      27.633   0.186  54.762  1.00  0.00     0.001 A 
HETATM   29  C18 UNL     1      26.260   0.276  54.774  1.00  0.00     0.007 A 
ENDBRANCH  23  24
ENDBRANCH   6  23
TORSDOF 5
ENDMDL
MODEL 2
REMARK VINA RESULT:      -8.7      4.077      6.219
REMARK  5 active torsions:
REMARK  status: ('A' for Active; 'I' for Inactive)
REMARK    1  A    between atoms: N1_1  and  C1_2 
REMARK    2  A    between atoms: C2_4  and  N3_5 
REMARK    3  A    between atoms: N3_5  and  C3_6 
REMARK    4  A    between atoms: C11_16  and  C12_17 
REMARK    5  A    between atoms: C12_17  and  C13_18 
ROOT
HETATM    1  C1  UNL     1      23.541   3.808  52.611  1.00  0.00     0.698 C 
HETATM    2  N2  UNL     1      22.533   3.263  51.939  1.00  0.00    -0.047 NA
HETATM    3  C2  UNL     1      22.722   1.857  51.573  1.00  0.00     0.155 C 
HETATM    4  C9  UNL     1      23.886   1.363  51.964  1.00  0.00     0.007 C 
HETATM    5  C10 UNL     1      24.365   0.290  52.831  1.00  0.00     0.017 C 
HETATM    6  C11 UNL     1      25.299   0.897  53.667  1.00  0.00    -0.057 C 
HETATM    7  C19 UNL     1      25.621   2.434  53.759  1.00  0.00     0.176 C 
HETATM    8  N4  UNL     1      24.703   3.023  52.805  1.00  0.00    -0.208 N 
HETATM    9  C20 UNL     1      25.070   2.307  51.517  1.00  0.00     0.184 C 
ENDROOT
BRANCH   3  10
HETATM   10  N3  UNL     1      22.063   0.723  51.022  1.00  0.00    -0.338 N 
HETATM   11  H3  UNL     1      22.541   0.106  50.334  1.00  0.00     0.167 HD
BRANCH  10  12
HETATM   12  C3  UNL     1      20.724   0.414  51.429  1.00  0.00     0.072 A 
HETATM   13  C4  UNL     1      19.654   0.698  50.613  1.00  0.00     0.034 A 
HETATM   14  C5  UNL     1      18.336   0.430  50.934  1.00  0.00     0.026 A 
HETATM   15  C6  UNL     1      18.086  -0.160  52.154  1.00  0.00     0.037 A 
HETATM   16 CL1  UNL     1      16.441  -0.534  52.640  1.00  0.00    -0.084 Cl
HETATM   17  C7  UNL     1      19.147  -0.453  52.987  1.00  0.00     0.068 A 
HETATM   18  C8  UNL     1      20.448  -0.176  52.644  1.00  0.00     0.144 A 
HETATM   19  F1  UNL     1      21.438  -0.494  53.510  1.00  0.00    -0.204 F 
ENDBRANCH  10  12
ENDBRANCH   3  10
BRANCH   1  20
HETATM   20  N1  UNL     1      23.803   4.997  53.336  1.00  0.00    -0.233 N 
HETATM   21  H1  UNL     1      23.065   5.452  53.915  1.00  0.00     0.174 HD
HETATM   22  H2  UNL     1      24.732   5.471  53.332  1.00  0.00     0.174 HD
ENDBRANCH   1  20
BRANCH   6  23
HETATM   23  C12 UNL     1      25.964  -0.068  54.499  1.00  0.00     0.074 C 
BRANCH  23  24
HETATM   24  C13 UNL     1      27.381  -0.336  54.094  1.00  0.00    -0.054 A 
HETATM   25  C14 UNL     1      28.367   0.543  54.496  1.00  0.00     0.007 A 
HETATM   26  C15 UNL     1      29.652   0.230  54.086  1.00  0.00     0.001 A 
HETATM   27  C16 UNL     1      29.905  -0.893  53.324  1.00  0.00     0.000 A 
HETATM   28  C17 UNL     1      28.884  -1.753  52.941  1.00  0.00     0.001 A 
HETATM   29  C18 UNL     1      27.596  -1.469  53.333  1.00  0.00     0.007 A 
ENDBRANCH  23  24
ENDBRANCH   6  23
TORSDOF 5
ENDMDL
MODEL 3
REMARK VINA RESULT:      -8.6      3.933      5.961
REMARK  5 active torsions:
REMARK  status: ('A' for Active; 'I' for Inactive)
REMARK    1  A    between atoms: N1_1  and  C1_2 
REMARK    2  A    between atoms: C2_4  and  N3_5 
REMARK    3  A    between atoms: N3_5  and  C3_6 
REMARK    4  A    between atoms: C11_16  and  C12_17 
REMARK    5  A    between atoms: C12_17  and  C13_18 
ROOT
HETATM    1  C1  UNL     1      23.545   4.058  52.557  1.00  0.00     0.698 C 
HETATM    2  N2  UNL     1      22.588   3.658  51.726  1.00  0.00    -0.047 NA
HETATM    3  C2  UNL     1      22.738   2.291  51.222  1.00  0.00     0.155 C 
HETATM    4  C9  UNL     1      23.824   1.681  51.670  1.00  0.00     0.007 C 
HETATM    5  C10 UNL     1      24.146   0.490  52.451  1.00  0.00     0.017 C 
HETATM    6  C11 UNL     1      25.016   0.939  53.442  1.00  0.00    -0.057 C 
HETATM    7  C19 UNL     1      25.409   2.432  53.744  1.00  0.00     0.176 C 
HETATM    8  N4  UNL     1      24.634   3.181  52.776  1.00  0.00    -0.208 N 
HETATM    9  C20 UNL     1      25.099   2.587  51.458  1.00  0.00     0.184 C 
ENDROOT
BRANCH   3  10
HETATM   10  N3  UNL     1      22.082   1.270  50.479  1.00  0.00    -0.338 N 
HETATM   11  H3  UNL     1      22.548   0.810  49.672  1.00  0.00     0.167 HD
BRANCH  10  12
HETATM   12  C3  UNL     1      20.762   0.858  50.854  1.00  0.00     0.072 A 
HETATM   13  C4  UNL     1      20.530   0.238  52.060  1.00  0.00     0.034 A 
HETATM   14  C5  UNL     1      19.287  -0.186  52.492  1.00  0.00     0.026 A 
HETATM   15  C6  UNL     1      18.214   0.029  51.655  1.00  0.00     0.037 A 
HETATM   16 CL1  UNL     1      16.602  -0.478  52.126  1.00  0.00    -0.084 Cl
HETATM   17  C7  UNL     1      18.427   0.651  50.441  1.00  0.00     0.068 A 
HETATM   18  C8  UNL     1      19.673   1.063  50.035  1.00  0.00     0.144 A 
HETATM   19  F1  UNL     1      19.805   1.668  48.832  1.00  0.00    -0.204 F 
ENDBRANCH  10  12
ENDBRANCH   3  10
BRANCH   1  20
HETATM   20  N1  UNL     1      23.791   5.141  53.437  1.00  0.00    -0.233 N 
HETATM   21  H1  UNL     1      24.212   4.988  54.378  1.00  0.00     0.174 HD
HETATM   22  H2  UNL     1      23.570   6.131  53.194  1.00  0.00     0.174 HD
ENDBRANCH   1  20
BRANCH   6  23
HETATM   23  C12 UNL     1      25.532  -0.153  54.221  1.00  0.00     0.074 C 
BRANCH  23  24
HETATM   24  C13 UNL     1      26.971  -0.463  53.941  1.00  0.00    -0.054 A 
HETATM   25  C14 UNL     1      27.274  -1.494  53.074  1.00  0.00     0.007 A 
HETATM   26  C15 UNL     1      28.624  -1.721  52.863  1.00  0.00     0.001 A 
HETATM   27  C16 UNL     1      29.585  -0.954  53.492  1.00  0.00     0.000 A 
HETATM   28  C17 UNL     1      29.237   0.074  54.358  1.00  0.00     0.001 A 
HETATM   29  C18 UNL     1      27.904   0.324  54.588  1.00  0.00     0.007 A 
ENDBRANCH  23  24
ENDBRANCH   6  23
TORSDOF 5
ENDMDL
MODEL 4
REMARK VINA RESULT:      -8.5      4.040      6.052
REMARK  5 active torsions:
REMARK  status: ('A' for Active; 'I' for Inactive)
REMARK    1  A    between atoms: N1_1  and  C1_2 
REMARK    2  A    between atoms: C2_4  and  N3_5 
REMARK    3  A    between atoms: N3_5  and  C3_6 
REMARK    4  A    between atoms: C11_16  and  C12_17 
REMARK    5  A    between atoms: C12_17  and  C13_18 
ROOT
HETATM    1  C1  UNL     1      23.645   3.734  51.549  1.00  0.00     0.698 C 
HETATM    2  N2  UNL     1      22.381   3.939  51.903  1.00  0.00    -0.047 NA
HETATM    3  C2  UNL     1      21.640   2.732  52.278  1.00  0.00     0.155 C 
HETATM    4  C9  UNL     1      22.357   1.623  52.185  1.00  0.00     0.007 C 
HETATM    5  C10 UNL     1      22.813   0.557  53.071  1.00  0.00     0.017 C 
HETATM    6  C11 UNL     1      24.182   0.457  52.835  1.00  0.00    -0.057 C 
HETATM    7  C19 UNL     1      25.054   1.412  51.940  1.00  0.00     0.176 C 
HETATM    8  N4  UNL     1      24.098   2.395  51.473  1.00  0.00    -0.208 N 
HETATM    9  C20 UNL     1      23.060   1.533  50.775  1.00  0.00     0.184 C 
ENDROOT
BRANCH   3  10
HETATM   10  N3  UNL     1      20.413   2.273  52.834  1.00  0.00    -0.338 N 
HETATM   11  H3  UNL     1      20.178   2.446  53.832  1.00  0.00     0.167 HD
BRANCH  10  12
HETATM   12  C3  UNL     1      19.480   1.570  52.005  1.00  0.00     0.072 A 
HETATM   13  C4  UNL     1      18.961   2.152  50.872  1.00  0.00     0.034 A 
HETATM   14  C5  UNL     1      18.058   1.540  50.023  1.00  0.00     0.026 A 
HETATM   15  C6  UNL     1      17.656   0.260  50.339  1.00  0.00     0.037 A 
HETATM   16 CL1  UNL     1      16.512  -0.591  49.315  1.00  0.00    -0.084 Cl
HETATM   17  C7  UNL     1      18.165  -0.342  51.472  1.00  0.00     0.068 A 
HETATM   18  C8  UNL     1      19.061   0.290  52.300  1.00  0.00     0.144 A 
HETATM   19  F1  UNL     1      19.521  -0.364  53.392  1.00  0.00    -0.204 F 
ENDBRANCH  10  12
ENDBRANCH   3  10
BRANCH   1  20
HETATM   20  N1  UNL     1      24.805   4.505  51.293  1.00  0.00    -0.233 N 
HETATM   21  H1  UNL     1      25.643   4.087  50.833  1.00  0.00     0.174 HD
HETATM   22  H2  UNL     1      24.882   5.515  51.542  1.00  0.00     0.174 HD
ENDBRANCH   1  20
BRANCH   6  23
HETATM   23  C12 UNL     1      24.758  -0.652  53.546  1.00  0.00     0.074 C 
BRANCH  23  24
HETATM   24  C13 UNL     1      26.238  -0.536  53.743  1.00  0.00    -0.054 A 
HETATM   25  C14 UNL     1      26.715   0.301  54.732  1.00  0.00     0.007 A 
HETATM   26  C15 UNL     1      28.093   0.357  54.856  1.00  0.00     0.001 A 
HETATM   27  C16 UNL     1      28.915  -0.385  54.032  1.00  0.00     0.000 A 
HETATM   28  C17 UNL     1      28.394  -1.216  53.048  1.00  0.00     0.001 A 
HETATM   29  C18 UNL     1      27.029  -1.292  52.900  1.00  0.00     0.007 A 
ENDBRANCH  23  24
ENDBRANCH   6  23
TORSDOF 5
ENDMDL
MODEL 5
REMARK VINA RESULT:      -8.3      2.225      4.612
REMARK  5 active torsions:
REMARK  status: ('A' for Active; 'I' for Inactive)
REMARK    1  A    between atoms: N1_1  and  C1_2 
REMARK    2  A    between atoms: C2_4  and  N3_5 
REMARK    3  A    between atoms: N3_5  and  C3_6 
REMARK    4  A    between atoms: C11_16  and  C12_17 
REMARK    5  A    between atoms: C12_17  and  C13_18 
ROOT
HETATM    1  C1  UNL     1      27.899   1.735  53.367  1.00  0.00     0.698 C 
HETATM    2  N2  UNL     1      27.916   2.481  52.268  1.00  0.00    -0.047 NA
HETATM    3  C2  UNL     1      26.858   2.180  51.300  1.00  0.00     0.155 C 
HETATM    4  C9  UNL     1      26.063   1.192  51.678  1.00  0.00     0.007 C 
HETATM    5  C10 UNL     1      24.644   1.000  51.963  1.00  0.00     0.017 C 
HETATM    6  C11 UNL     1      24.612   0.375  53.208  1.00  0.00    -0.057 C 
HETATM    7  C19 UNL     1      25.836   0.107  54.158  1.00  0.00     0.176 C 
HETATM    8  N4  UNL     1      26.950   0.686  53.436  1.00  0.00    -0.208 N 
HETATM    9  C20 UNL     1      26.909  -0.066  52.117  1.00  0.00     0.184 C 
ENDROOT
BRANCH   3  10
HETATM   10  N3  UNL     1      26.256   2.629  50.091  1.00  0.00    -0.338 N 
HETATM   11  H3  UNL     1      25.757   1.967  49.463  1.00  0.00     0.167 HD
BRANCH  10  12
HETATM   12  C3  UNL     1      26.326   4.015  49.737  1.00  0.00     0.072 A 
HETATM   13  C4  UNL     1      27.309   4.481  48.896  1.00  0.00     0.034 A 
HETATM   14  C5  UNL     1      27.442   5.802  48.508  1.00  0.00     0.026 A 
HETATM   15  C6  UNL     1      26.525   6.705  49.000  1.00  0.00     0.037 A 
HETATM   16 CL1  UNL     1      26.620   8.401  48.557  1.00  0.00    -0.084 Cl
HETATM   17  C7  UNL     1      25.530   6.256  49.845  1.00  0.00     0.068 A 
HETATM   18  C8  UNL     1      25.421   4.938  50.215  1.00  0.00     0.144 A 
HETATM   19  F1  UNL     1      24.417   4.569  51.046  1.00  0.00    -0.204 F 
ENDBRANCH  10  12
ENDBRANCH   3  10
BRANCH   1  20
HETATM   20  N1  UNL     1      28.524   1.718  54.638  1.00  0.00    -0.233 N 
HETATM   21  H1  UNL     1      28.920   2.586  55.059  1.00  0.00     0.174 HD
HETATM   22  H2  UNL     1      28.619   0.853  55.213  1.00  0.00     0.174 HD
ENDBRANCH   1  20
BRANCH   6  23
HETATM   23  C12 UNL     1      23.273  -0.004  53.571  1.00  0.00     0.074 C 
BRANCH  23  24
HETATM   24  C13 UNL     1      22.215   0.672  52.753  1.00  0.00    -0.054 A 
HETATM   25  C14 UNL     1      21.432  -0.094  51.912  1.00  0.00     0.007 A 
HETATM   26  C15 UNL     1      20.475   0.599  51.190  1.00  0.00     0.001 A 
HETATM   27  C16 UNL     1      20.334   1.966  51.318  1.00  0.00     0.000 A 
HETATM   28  C17 UNL     1      21.143   2.700  52.177  1.00  0.00     0.001 A 
HETATM   29  C18 UNL     1      22.103   2.040  52.908  1.00  0.00     0.007 A 
ENDBRANCH  23  24
ENDBRANCH   6  23
TORSDOF 5
ENDMDL
MODEL 6
REMARK VINA RESULT:      -8.1      3.447      5.032
REMARK  5 active torsions:
REMARK  status: ('A' for Active; 'I' for Inactive)
REMARK    1  A    between atoms: N1_1  and  C1_2 
REMARK    2  A    between atoms: C2_4  and  N3_5 
REMARK    3  A    between atoms: N3_5  and  C3_6 
REMARK    4  A    between atoms: C11_16  and  C12_17 
REMARK    5  A    between atoms: C12_17  and  C13_18 
ROOT
HETATM    1  C1  UNL     1      25.686   4.353  50.243  1.00  0.00     0.698 C 
HETATM    2  N2  UNL     1      24.565   4.999  50.544  1.00  0.00    -0.047 NA
HETATM    3  C2  UNL     1      23.722   4.341  51.545  1.00  0.00     0.155 C 
HETATM    4  C9  UNL     1      24.215   3.191  51.976  1.00  0.00     0.007 C 
HETATM    5  C10 UNL     1      24.652   2.612  53.243  1.00  0.00     0.017 C 
HETATM    6  C11 UNL     1      25.914   2.087  52.980  1.00  0.00    -0.057 C 
HETATM    7  C19 UNL     1      26.743   2.249  51.652  1.00  0.00     0.176 C 
HETATM    8  N4  UNL     1      25.889   3.080  50.828  1.00  0.00    -0.208 N 
HETATM    9  C20 UNL     1      24.610   2.265  50.760  1.00  0.00     0.184 C 
ENDROOT
BRANCH   3  10
HETATM   10  N3  UNL     1      22.566   4.516  52.357  1.00  0.00    -0.338 N 
HETATM   11  H3  UNL     1      22.650   4.780  53.359  1.00  0.00     0.167 HD
BRANCH  10  12
HETATM   12  C3  UNL     1      21.265   4.336  51.785  1.00  0.00     0.072 A 
HETATM   13  C4  UNL     1      20.795   5.190  50.815  1.00  0.00     0.034 A 
HETATM   14  C5  UNL     1      19.554   5.083  50.216  1.00  0.00     0.026 A 
HETATM   15  C6  UNL     1      18.739   4.049  50.622  1.00  0.00     0.037 A 
HETATM   16 CL1  UNL     1      17.147   3.839  49.913  1.00  0.00    -0.084 Cl
HETATM   17  C7  UNL     1      19.193   3.180  51.595  1.00  0.00     0.068 A 
HETATM   18  C8  UNL     1      20.431   3.311  52.175  1.00  0.00     0.144 A 
HETATM   19  F1  UNL     1      20.811   2.420  53.120  1.00  0.00    -0.204 F 
ENDBRANCH  10  12
ENDBRANCH   3  10
BRANCH   1  20
HETATM   20  N1  UNL     1      26.886   4.601  49.532  1.00  0.00    -0.233 N 
HETATM   21  H1  UNL     1      27.569   5.320  49.856  1.00  0.00     0.174 HD
HETATM   22  H2  UNL     1      27.148   4.087  48.663  1.00  0.00     0.174 HD
ENDBRANCH   1  20
BRANCH   6  23
HETATM   23  C12 UNL     1      26.426   1.358  54.108  1.00  0.00     0.074 C 
BRANCH  23  24
HETATM   24  C13 UNL     1      27.222   0.147  53.731  1.00  0.00    -0.054 A 
HETATM   25  C14 UNL     1      26.592  -0.881  53.059  1.00  0.00     0.007 A 
HETATM   26  C15 UNL     1      27.391  -1.967  52.742  1.00  0.00     0.001 A 
HETATM   27  C16 UNL     1      28.727  -1.997  53.088  1.00  0.00     0.000 A 
HETATM   28  C17 UNL     1      29.323  -0.940  53.765  1.00  0.00     0.001 A 
HETATM   29  C18 UNL     1      28.555   0.153  54.093  1.00  0.00     0.007 A 
ENDBRANCH  23  24
ENDBRANCH   6  23
TORSDOF 5
ENDMDL
MODEL 7
REMARK VINA RESULT:      -8.1      3.072      7.514
REMARK  5 active torsions:
REMARK  status: ('A' for Active; 'I' for Inactive)
REMARK    1  A    between atoms: N1_1  and  C1_2 
REMARK    2  A    between atoms: C2_4  and  N3_5 
REMARK    3  A    between atoms: N3_5  and  C3_6 
REMARK    4  A    between atoms: C11_16  and  C12_17 
REMARK    5  A    between atoms: C12_17  and  C13_18 
ROOT
HETATM    1  C1  UNL     1      24.282   6.488  50.982  1.00  0.00     0.698 C 
HETATM    2  N2  UNL     1      23.976   5.278  51.437  1.00  0.00    -0.047 NA
HETATM    3  C2  UNL     1      24.547   4.167  50.671  1.00  0.00     0.155 C 
HETATM    4  C9  UNL     1      25.267   4.558  49.632  1.00  0.00     0.007 C 
HETATM    5  C10 UNL     1      26.645   4.432  49.166  1.00  0.00     0.017 C 
HETATM    6  C11 UNL     1      27.036   5.732  48.854  1.00  0.00    -0.057 C 
HETATM    7  C19 UNL     1      26.219   7.050  49.121  1.00  0.00     0.176 C 
HETATM    8  N4  UNL     1      25.019   6.570  49.776  1.00  0.00    -0.208 N 
HETATM    9  C20 UNL     1      24.461   5.594  48.755  1.00  0.00     0.184 C 
ENDROOT
BRANCH   3  10
HETATM   10  N3  UNL     1      24.726   2.755  50.669  1.00  0.00    -0.338 N 
HETATM   11  H3  UNL     1      24.329   2.165  49.910  1.00  0.00     0.167 HD
BRANCH  10  12
HETATM   12  C3  UNL     1      25.473   2.134  51.722  1.00  0.00     0.072 A 
HETATM   13  C4  UNL     1      26.692   1.546  51.472  1.00  0.00     0.034 A 
HETATM   14  C5  UNL     1      27.471   0.929  52.433  1.00  0.00     0.026 A 
HETATM   15  C6  UNL     1      26.990   0.905  53.724  1.00  0.00     0.037 A 
HETATM   16 CL1  UNL     1      27.916   0.142  55.005  1.00  0.00    -0.084 Cl
HETATM   17  C7  UNL     1      25.769   1.490  53.995  1.00  0.00     0.068 A 
HETATM   18  C8  UNL     1      25.014   2.097  53.021  1.00  0.00     0.144 A 
HETATM   19  F1  UNL     1      23.827   2.652  53.360  1.00  0.00    -0.204 F 
ENDBRANCH  10  12
ENDBRANCH   3  10
BRANCH   1  20
HETATM   20  N1  UNL     1      24.171   7.834  51.410  1.00  0.00    -0.233 N 
HETATM   21  H1  UNL     1      24.117   8.618  50.725  1.00  0.00     0.174 HD
HETATM   22  H2  UNL     1      24.134   8.108  52.416  1.00  0.00     0.174 HD
ENDBRANCH   1  20
BRANCH   6  23
HETATM   23  C12 UNL     1      28.340   5.758  48.251  1.00  0.00     0.074 C 
BRANCH  23  24
HETATM   24  C13 UNL     1      28.799   7.132  47.869  1.00  0.00    -0.054 A 
HETATM   25  C14 UNL     1      28.469   7.621  46.621  1.00  0.00     0.007 A 
HETATM   26  C15 UNL     1      28.926   8.898  46.339  1.00  0.00     0.001 A 
HETATM   27  C16 UNL     1      29.662   9.614  47.261  1.00  0.00     0.000 A 
HETATM   28  C17 UNL     1      29.973   9.084  48.507  1.00  0.00     0.001 A 
HETATM   29  C18 UNL     1      29.533   7.818  48.817  1.00  0.00     0.007 A 
ENDBRANCH  23  24
ENDBRANCH   6  23
TORSDOF 5
ENDMDL
MODEL 8
REMARK VINA RESULT:      -8.1      3.075      5.237
REMARK  5 active torsions:
REMARK  status: ('A' for Active; 'I' for Inactive)
REMARK    1  A    between atoms: N1_1  and  C1_2 
REMARK    2  A    between atoms: C2_4  and  N3_5 
REMARK    3  A    between atoms: N3_5  and  C3_6 
REMARK    4  A    between atoms: C11_16  and  C12_17 
REMARK    5  A    between atoms: C12_17  and  C13_18 
ROOT
HETATM    1  C1  UNL     1      24.445   3.909  49.952  1.00  0.00     0.698 C 
HETATM    2  N2  UNL     1      25.538   3.644  50.659  1.00  0.00    -0.047 NA
HETATM    3  C2  UNL     1      25.301   3.329  52.070  1.00  0.00     0.155 C 
HETATM    4  C9  UNL     1      24.024   3.379  52.414  1.00  0.00     0.007 C 
HETATM    5  C10 UNL     1      23.016   2.468  52.950  1.00  0.00     0.017 C 
HETATM    6  C11 UNL     1      21.921   2.608  52.101  1.00  0.00    -0.057 C 
HETATM    7  C19 UNL     1      21.867   3.435  50.763  1.00  0.00     0.176 C 
HETATM    8  N4  UNL     1      23.211   3.962  50.644  1.00  0.00    -0.208 N 
HETATM    9  C20 UNL     1      23.372   4.736  51.941  1.00  0.00     0.184 C 
ENDROOT
BRANCH   3  10
HETATM   10  N3  UNL     1      25.933   2.864  53.258  1.00  0.00    -0.338 N 
HETATM   11  H3  UNL     1      25.841   3.384  54.153  1.00  0.00     0.167 HD
BRANCH  10  12
HETATM   12  C3  UNL     1      26.698   1.654  53.225  1.00  0.00     0.072 A 
HETATM   13  C4  UNL     1      26.107   0.451  52.913  1.00  0.00     0.034 A 
HETATM   14  C5  UNL     1      26.778  -0.757  52.860  1.00  0.00     0.026 A 
HETATM   15  C6  UNL     1      28.127  -0.748  53.140  1.00  0.00     0.037 A 
HETATM   16 CL1  UNL     1      29.054  -2.238  53.096  1.00  0.00    -0.084 Cl
HETATM   17  C7  UNL     1      28.738   0.449  53.455  1.00  0.00     0.068 A 
HETATM   18  C8  UNL     1      28.048   1.636  53.501  1.00  0.00     0.144 A 
HETATM   19  F1  UNL     1      28.714   2.771  53.815  1.00  0.00    -0.204 F 
ENDBRANCH  10  12
ENDBRANCH   3  10
BRANCH   1  20
HETATM   20  N1  UNL     1      24.085   4.079  48.593  1.00  0.00    -0.233 N 
HETATM   21  H1  UNL     1      23.398   3.446  48.131  1.00  0.00     0.174 HD
HETATM   22  H2  UNL     1      24.479   4.835  47.992  1.00  0.00     0.174 HD
ENDBRANCH   1  20
BRANCH   6  23
HETATM   23  C12 UNL     1      20.787   1.865  52.580  1.00  0.00     0.074 C 
BRANCH  23  24
HETATM   24  C13 UNL     1      21.148   0.547  53.193  1.00  0.00    -0.054 A 
HETATM   25  C14 UNL     1      20.756   0.287  54.491  1.00  0.00     0.007 A 
HETATM   26  C15 UNL     1      21.124  -0.951  54.991  1.00  0.00     0.001 A 
HETATM   27  C16 UNL     1      21.837  -1.849  54.222  1.00  0.00     0.000 A 
HETATM   28  C17 UNL     1      22.212  -1.547  52.919  1.00  0.00     0.001 A 
HETATM   29  C18 UNL     1      21.861  -0.325  52.394  1.00  0.00     0.007 A 
ENDBRANCH  23  24
ENDBRANCH   6  23
TORSDOF 5
ENDMDL
MODEL 9
REMARK VINA RESULT:      -8.0      2.014      2.746
REMARK  5 active torsions:
REMARK  status: ('A' for Active; 'I' for Inactive)
REMARK    1  A    between atoms: N1_1  and  C1_2 
REMARK    2  A    between atoms: C2_4  and  N3_5 
REMARK    3  A    between atoms: N3_5  and  C3_6 
REMARK    4  A    between atoms: C11_16  and  C12_17 
REMARK    5  A    between atoms: C12_17  and  C13_18 
ROOT
HETATM    1  C1  UNL     1      21.760   2.379  52.208  1.00  0.00     0.698 C 
HETATM    2  N2  UNL     1      21.690   3.158  51.134  1.00  0.00    -0.047 NA
HETATM    3  C2  UNL     1      22.983   3.528  50.553  1.00  0.00     0.155 C 
HETATM    4  C9  UNL     1      24.018   3.032  51.212  1.00  0.00     0.007 C 
HETATM    5  C10 UNL     1      25.142   2.141  50.940  1.00  0.00     0.017 C 
HETATM    6  C11 UNL     1      25.113   1.205  51.971  1.00  0.00    -0.057 C 
HETATM    7  C19 UNL     1      24.002   1.054  53.074  1.00  0.00     0.176 C 
HETATM    8  N4  UNL     1      23.045   2.084  52.724  1.00  0.00    -0.208 N 
HETATM    9  C20 UNL     1      23.896   3.341  52.755  1.00  0.00     0.184 C 
ENDROOT
BRANCH   3  10
HETATM   10  N3  UNL     1      23.592   4.162  49.434  1.00  0.00    -0.338 N 
HETATM   11  H3  UNL     1      23.451   3.800  48.470  1.00  0.00     0.167 HD
BRANCH  10  12
HETATM   12  C3  UNL     1      24.403   5.326  49.634  1.00  0.00     0.072 A 
HETATM   13  C4  UNL     1      25.660   5.415  49.083  1.00  0.00     0.034 A 
HETATM   14  C5  UNL     1      26.501   6.502  49.230  1.00  0.00     0.026 A 
HETATM   15  C6  UNL     1      26.042   7.565  49.979  1.00  0.00     0.037 A 
HETATM   16 CL1  UNL     1      27.046   8.985  50.216  1.00  0.00    -0.084 Cl
HETATM   17  C7  UNL     1      24.783   7.495  50.540  1.00  0.00     0.068 A 
HETATM   18  C8  UNL     1      23.967   6.401  50.379  1.00  0.00     0.144 A 
HETATM   19  F1  UNL     1      22.743   6.404  50.955  1.00  0.00    -0.204 F 
ENDBRANCH  10  12
ENDBRANCH   3  10
BRANCH   1  20
HETATM   20  N1  UNL     1      20.881   1.610  53.011  1.00  0.00    -0.233 N 
HETATM   21  H1  UNL     1      20.683   1.872  54.000  1.00  0.00     0.174 HD
HETATM   22  H2  UNL     1      20.392   0.758  52.661  1.00  0.00     0.174 HD
ENDBRANCH   1  20
BRANCH   6  23
HETATM   23  C12 UNL     1      26.251   0.328  51.916  1.00  0.00     0.074 C 
BRANCH  23  24
HETATM   24  C13 UNL     1      27.375   0.743  52.816  1.00  0.00    -0.054 A 
HETATM   25  C14 UNL     1      27.696   2.083  52.905  1.00  0.00     0.007 A 
HETATM   26  C15 UNL     1      28.744   2.391  53.757  1.00  0.00     0.001 A 
HETATM   27  C16 UNL     1      29.408   1.406  54.458  1.00  0.00     0.000 A 
HETATM   28  C17 UNL     1      29.053   0.068  54.339  1.00  0.00     0.001 A 
HETATM   29  C18 UNL     1      28.016  -0.270  53.501  1.00  0.00     0.007 A 
ENDBRANCH  23  24
ENDBRANCH   6  23
TORSDOF 5
ENDMDL
