MODEL 1
REMARK VINA RESULT:      -7.5      0.000      0.000
REMARK  7 active torsions:
REMARK  status: ('A' for Active; 'I' for Inactive)
REMARK    1  A    between atoms: C1_2  and  C2_3 
REMARK       I    between atoms: C1_2  and  N2_13 
REMARK    2  A    between atoms: C2_3  and  S1_4 
REMARK    3  A    between atoms: S1_4  and  C3_5 
REMARK    4  A    between atoms: C3_5  and  C4_6 
REMARK    5  A    between atoms: C4_6  and  N1_7 
REMARK    6  A    between atoms: N2_13  and  C9_14 
REMARK    7  A    between atoms: C12_17  and  C13_18 
ROOT
HETATM    1  C13 UNL     1      26.097   0.920  52.843  1.00  0.00     0.211 C 
HETATM    2  O3  UNL     1      26.165   2.241  53.213  1.00  0.00    -0.371 OA
HETATM    3  C14 UNL     1      27.139   2.566  54.100  1.00  0.00     0.199 C 
HETATM    4  C15 UNL     1      28.504   2.116  53.791  1.00  0.00     0.042 C 
HETATM    5  C16 UNL     1      28.686   0.942  53.206  1.00  0.00     0.124 C 
HETATM    6  F1  UNL     1      29.844   0.392  52.861  1.00  0.00    -0.206 F 
HETATM    7  C17 UNL     1      27.433   0.243  52.947  1.00  0.00     0.026 C 
HETATM    8  C18 UNL     1      27.371  -1.040  52.784  1.00  0.00     0.097 C 
HETATM    9 CL1  UNL     1      27.151  -2.752  52.546  1.00  0.00    -0.096 Cl
ENDROOT
BRANCH   1  10
HETATM   10  C12 UNL     1      25.183   0.145  53.694  1.00  0.00     0.082 A 
HETATM   11  C11 UNL     1      23.844  -0.139  53.529  1.00  0.00     0.025 A 
HETATM   12  C10 UNL     1      23.286   0.400  52.390  1.00  0.00     0.066 A 
HETATM   13  C20 UNL     1      23.108  -0.892  54.415  1.00  0.00     0.088 A 
HETATM   14  C9  UNL     1      21.955   0.186  52.115  1.00  0.00     0.130 A 
HETATM   15  N5  UNL     1      21.226  -0.561  52.996  1.00  0.00    -0.241 NA
HETATM   16  C21 UNL     1      21.798  -1.074  54.101  1.00  0.00     0.151 A 
HETATM   17  N4  UNL     1      23.736  -1.372  55.496  1.00  0.00    -0.240 NA
HETATM   18  C19 UNL     1      25.038  -1.117  55.692  1.00  0.00     0.234 A 
HETATM   19  N3  UNL     1      25.762  -0.372  54.812  1.00  0.00    -0.242 NA
BRANCH  14  20
HETATM   20  N2  UNL     1      21.286   0.697  50.970  1.00  0.00    -0.311 N 
HETATM   21  C1  UNL     1      20.682   1.984  51.122  1.00  0.00     0.232 C 
HETATM   22  O1  UNL     1      20.815   2.533  52.269  1.00  0.00    -0.272 OA
HETATM   23  H15 UNL     1      21.134   0.336  50.012  1.00  0.00     0.170 HD
BRANCH  21  24
HETATM   24  C2  UNL     1      19.915   2.854  50.224  1.00  0.00     0.177 C 
BRANCH  24  25
HETATM   25  S1  UNL     1      20.598   3.021  48.569  1.00  0.00    -0.158 SA
BRANCH  25  26
HETATM   26  C3  UNL     1      22.406   3.062  48.646  1.00  0.00     0.104 C 
BRANCH  26  27
HETATM   27  C4  UNL     1      22.849   4.484  48.395  1.00  0.00     0.282 C 
BRANCH  27  28
HETATM   28  N1  UNL     1      23.444   5.088  49.562  1.00  0.00     0.093 N 
HETATM   29  C5  UNL     1      23.664   4.180  50.643  1.00  0.00     0.298 C 
HETATM   30  C6  UNL     1      23.538   4.995  51.925  1.00  0.00     0.198 C 
HETATM   31  O2  UNL     1      22.192   5.323  52.022  1.00  0.00    -0.388 OA
HETATM   32  C7  UNL     1      21.723   6.098  50.993  1.00  0.00     0.198 C 
HETATM   33  C8  UNL     1      22.730   6.281  49.880  1.00  0.00     0.298 C 
ENDBRANCH  27  28
ENDBRANCH  26  27
ENDBRANCH  25  26
ENDBRANCH  24  25
ENDBRANCH  21  24
ENDBRANCH  14  20
ENDBRANCH   1  10
TORSDOF 7
ENDMDL
MODEL 2
REMARK VINA RESULT:      -7.4      4.881      7.454
REMARK  7 active torsions:
REMARK  status: ('A' for Active; 'I' for Inactive)
REMARK    1  A    between atoms: C1_2  and  C2_3 
REMARK       I    between atoms: C1_2  and  N2_13 
REMARK    2  A    between atoms: C2_3  and  S1_4 
REMARK    3  A    between atoms: S1_4  and  C3_5 
REMARK    4  A    between atoms: C3_5  and  C4_6 
REMARK    5  A    between atoms: C4_6  and  N1_7 
REMARK    6  A    between atoms: N2_13  and  C9_14 
REMARK    7  A    between atoms: C12_17  and  C13_18 
ROOT
HETATM    1  C13 UNL     1      24.353   3.282  52.000  1.00  0.00     0.211 C 
HETATM    2  O3  UNL     1      23.572   2.630  52.923  1.00  0.00    -0.371 OA
HETATM    3  C14 UNL     1      23.538   1.276  52.830  1.00  0.00     0.199 C 
HETATM    4  C15 UNL     1      24.830   0.577  52.762  1.00  0.00     0.042 C 
HETATM    5  C16 UNL     1      25.836   1.131  52.103  1.00  0.00     0.124 C 
HETATM    6  F1  UNL     1      27.058   0.636  51.947  1.00  0.00    -0.206 F 
HETATM    7  C17 UNL     1      25.483   2.419  51.518  1.00  0.00     0.026 C 
HETATM    8  C18 UNL     1      26.127   2.931  50.519  1.00  0.00     0.097 C 
HETATM    9 CL1  UNL     1      26.908   3.728  49.181  1.00  0.00    -0.096 Cl
ENDROOT
BRANCH   1  10
HETATM   10  C12 UNL     1      23.598   3.668  50.799  1.00  0.00     0.082 A 
HETATM   11  C11 UNL     1      23.544   4.875  50.136  1.00  0.00     0.025 A 
HETATM   12  C10 UNL     1      24.316   5.868  50.700  1.00  0.00     0.066 A 
HETATM   13  C20 UNL     1      22.789   5.093  49.006  1.00  0.00     0.088 A 
HETATM   14  C9  UNL     1      24.344   7.118  50.128  1.00  0.00     0.130 A 
HETATM   15  N5  UNL     1      23.595   7.333  49.008  1.00  0.00    -0.241 NA
HETATM   16  C21 UNL     1      22.850   6.345  48.478  1.00  0.00     0.151 A 
HETATM   17  N4  UNL     1      22.069   4.069  48.531  1.00  0.00    -0.240 NA
HETATM   18  C19 UNL     1      22.094   2.879  49.149  1.00  0.00     0.234 A 
HETATM   19  N3  UNL     1      22.844   2.668  50.266  1.00  0.00    -0.242 NA
BRANCH  14  20
HETATM   20  N2  UNL     1      25.106   8.207  50.632  1.00  0.00    -0.311 N 
HETATM   21  C1  UNL     1      26.422   8.352  50.090  1.00  0.00     0.232 C 
HETATM   22  O1  UNL     1      26.764   7.488  49.211  1.00  0.00    -0.272 OA
HETATM   23  H15 UNL     1      24.917   8.952  51.326  1.00  0.00     0.170 HD
BRANCH  21  24
HETATM   24  C2  UNL     1      27.512   9.305  50.322  1.00  0.00     0.177 C 
BRANCH  24  25
HETATM   25  S1  UNL     1      27.881  10.383  48.930  1.00  0.00    -0.158 SA
BRANCH  25  26
HETATM   26  C3  UNL     1      29.322   9.761  48.029  1.00  0.00     0.104 C 
BRANCH  26  27
HETATM   27  C4  UNL     1      30.080   8.834  48.950  1.00  0.00     0.282 C 
BRANCH  27  28
HETATM   28  N1  UNL     1      30.758   7.781  48.234  1.00  0.00     0.093 N 
HETATM   29  C5  UNL     1      29.914   6.692  47.860  1.00  0.00     0.298 C 
HETATM   30  C6  UNL     1      30.793   5.446  47.851  1.00  0.00     0.198 C 
HETATM   31  O2  UNL     1      31.098   5.202  49.184  1.00  0.00    -0.388 OA
HETATM   32  C7  UNL     1      31.807   6.204  49.795  1.00  0.00     0.198 C 
HETATM   33  C8  UNL     1      31.951   7.439  48.935  1.00  0.00     0.298 C 
ENDBRANCH  27  28
ENDBRANCH  26  27
ENDBRANCH  25  26
ENDBRANCH  24  25
ENDBRANCH  21  24
ENDBRANCH  14  20
ENDBRANCH   1  10
TORSDOF 7
ENDMDL
MODEL 3
REMARK VINA RESULT:      -7.3      4.328      5.378
REMARK  7 active torsions:
REMARK  status: ('A' for Active; 'I' for Inactive)
REMARK    1  A    between atoms: C1_2  and  C2_3 
REMARK       I    between atoms: C1_2  and  N2_13 
REMARK    2  A    between atoms: C2_3  and  S1_4 
REMARK    3  A    between atoms: S1_4  and  C3_5 
REMARK    4  A    between atoms: C3_5  and  C4_6 
REMARK    5  A    between atoms: C4_6  and  N1_7 
REMARK    6  A    between atoms: N2_13  and  C9_14 
REMARK    7  A    between atoms: C12_17  and  C13_18 
ROOT
HETATM    1  C13 UNL     1      26.107   1.945  53.999  1.00  0.00     0.211 C 
HETATM    2  O3  UNL     1      26.242   1.315  55.213  1.00  0.00    -0.371 OA
HETATM    3  C14 UNL     1      26.853   0.103  55.194  1.00  0.00     0.199 C 
HETATM    4  C15 UNL     1      28.143   0.014  54.495  1.00  0.00     0.042 C 
HETATM    5  C16 UNL     1      28.340   0.726  53.397  1.00  0.00     0.124 C 
HETATM    6  F1  UNL     1      29.439   0.760  52.652  1.00  0.00    -0.206 F 
HETATM    7  C17 UNL     1      27.180   1.531  53.034  1.00  0.00     0.026 C 
HETATM    8  C18 UNL     1      26.978   1.962  51.830  1.00  0.00     0.097 C 
HETATM    9 CL1  UNL     1      26.591   2.600  50.256  1.00  0.00    -0.096 Cl
ENDROOT
BRANCH   1  10
HETATM   10  C12 UNL     1      24.829   1.630  53.344  1.00  0.00     0.082 A 
HETATM   11  C11 UNL     1      23.917   2.464  52.734  1.00  0.00     0.025 A 
HETATM   12  C10 UNL     1      24.263   3.797  52.756  1.00  0.00     0.066 A 
HETATM   13  C20 UNL     1      22.751   2.023  52.149  1.00  0.00     0.088 A 
HETATM   14  C9  UNL     1      23.430   4.728  52.179  1.00  0.00     0.130 A 
HETATM   15  N5  UNL     1      22.275   4.290  51.600  1.00  0.00    -0.241 NA
HETATM   16  C21 UNL     1      21.962   2.981  51.594  1.00  0.00     0.151 A 
HETATM   17  N4  UNL     1      22.497   0.709  52.179  1.00  0.00    -0.240 NA
HETATM   18  C19 UNL     1      23.361  -0.135  52.763  1.00  0.00     0.234 A 
HETATM   19  N3  UNL     1      24.513   0.306  53.340  1.00  0.00    -0.242 NA
BRANCH  14  20
HETATM   20  N2  UNL     1      23.696   6.124  52.149  1.00  0.00    -0.311 N 
HETATM   21  C1  UNL     1      24.420   6.597  51.009  1.00  0.00     0.232 C 
HETATM   22  O1  UNL     1      24.742   5.712  50.144  1.00  0.00    -0.272 OA
HETATM   23  H15 UNL     1      23.473   6.908  52.787  1.00  0.00     0.170 HD
BRANCH  21  24
HETATM   24  C2  UNL     1      24.894   7.920  50.589  1.00  0.00     0.177 C 
BRANCH  24  25
HETATM   25  S1  UNL     1      24.752   8.248  48.827  1.00  0.00    -0.158 SA
BRANCH  25  26
HETATM   26  C3  UNL     1      26.265   9.032  48.219  1.00  0.00     0.104 C 
BRANCH  26  27
HETATM   27  C4  UNL     1      27.387   8.028  48.335  1.00  0.00     0.282 C 
BRANCH  27  28
HETATM   28  N1  UNL     1      28.537   8.565  49.020  1.00  0.00     0.093 N 
HETATM   29  C5  UNL     1      28.576   9.992  49.069  1.00  0.00     0.298 C 
HETATM   30  C6  UNL     1      30.049  10.385  49.082  1.00  0.00     0.198 C 
HETATM   31  O2  UNL     1      30.524  10.071  47.815  1.00  0.00    -0.388 OA
HETATM   32  C7  UNL     1      30.455   8.739  47.499  1.00  0.00     0.198 C 
HETATM   33  C8  UNL     1      29.711   7.921  48.530  1.00  0.00     0.298 C 
ENDBRANCH  27  28
ENDBRANCH  26  27
ENDBRANCH  25  26
ENDBRANCH  24  25
ENDBRANCH  21  24
ENDBRANCH  14  20
ENDBRANCH   1  10
TORSDOF 7
ENDMDL
MODEL 4
REMARK VINA RESULT:      -7.3      3.454      6.826
REMARK  7 active torsions:
REMARK  status: ('A' for Active; 'I' for Inactive)
REMARK    1  A    between atoms: C1_2  and  C2_3 
REMARK       I    between atoms: C1_2  and  N2_13 
REMARK    2  A    between atoms: C2_3  and  S1_4 
REMARK    3  A    between atoms: S1_4  and  C3_5 
REMARK    4  A    between atoms: C3_5  and  C4_6 
REMARK    5  A    between atoms: C4_6  and  N1_7 
REMARK    6  A    between atoms: N2_13  and  C9_14 
REMARK    7  A    between atoms: C12_17  and  C13_18 
ROOT
HETATM    1  C13 UNL     1      24.573   4.545  50.242  1.00  0.00     0.211 C 
HETATM    2  O3  UNL     1      25.813   4.216  49.749  1.00  0.00    -0.371 OA
HETATM    3  C14 UNL     1      26.395   5.131  48.932  1.00  0.00     0.199 C 
HETATM    4  C15 UNL     1      26.458   6.517  49.416  1.00  0.00     0.042 C 
HETATM    5  C16 UNL     1      25.455   7.004  50.131  1.00  0.00     0.124 C 
HETATM    6  F1  UNL     1      25.356   8.226  50.640  1.00  0.00    -0.206 F 
HETATM    7  C17 UNL     1      24.388   6.032  50.336  1.00  0.00     0.026 C 
HETATM    8  C18 UNL     1      23.174   6.378  50.621  1.00  0.00     0.097 C 
HETATM    9 CL1  UNL     1      21.508   6.712  51.007  1.00  0.00    -0.096 Cl
ENDROOT
BRANCH   1  10
HETATM   10  C12 UNL     1      23.482   4.054  49.389  1.00  0.00     0.082 A 
HETATM   11  C11 UNL     1      22.651   2.966  49.550  1.00  0.00     0.025 A 
HETATM   12  C10 UNL     1      22.897   2.228  50.688  1.00  0.00     0.066 A 
HETATM   13  C20 UNL     1      21.656   2.627  48.662  1.00  0.00     0.088 A 
HETATM   14  C9  UNL     1      22.132   1.117  50.959  1.00  0.00     0.130 A 
HETATM   15  N5  UNL     1      21.146   0.782  50.077  1.00  0.00    -0.241 NA
HETATM   16  C21 UNL     1      20.928   1.520  48.973  1.00  0.00     0.151 A 
HETATM   17  N4  UNL     1      21.493   3.402  47.583  1.00  0.00    -0.240 NA
HETATM   18  C19 UNL     1      22.282   4.469  47.390  1.00  0.00     0.234 A 
HETATM   19  N3  UNL     1      23.264   4.802  48.272  1.00  0.00    -0.242 NA
BRANCH  14  20
HETATM   20  N2  UNL     1      22.305   0.291  52.102  1.00  0.00    -0.311 N 
HETATM   21  C1  UNL     1      21.436   0.563  53.205  1.00  0.00     0.232 C 
HETATM   22  O1  UNL     1      20.599   1.515  53.038  1.00  0.00    -0.272 OA
HETATM   23  H15 UNL     1      22.939  -0.496  52.326  1.00  0.00     0.170 HD
BRANCH  21  24
HETATM   24  C2  UNL     1      21.279  -0.028  54.539  1.00  0.00     0.177 C 
BRANCH  24  25
HETATM   25  S1  UNL     1      22.332  -1.449  54.863  1.00  0.00    -0.158 SA
BRANCH  25  26
HETATM   26  C3  UNL     1      24.000  -0.898  55.300  1.00  0.00     0.104 C 
BRANCH  26  27
HETATM   27  C4  UNL     1      24.818  -0.845  54.032  1.00  0.00     0.282 C 
BRANCH  27  28
HETATM   28  N1  UNL     1      25.564   0.383  53.909  1.00  0.00     0.093 N 
HETATM   29  C5  UNL     1      25.960   0.697  52.573  1.00  0.00     0.298 C 
HETATM   30  C6  UNL     1      27.269   1.470  52.680  1.00  0.00     0.198 C 
HETATM   31  O2  UNL     1      28.211   0.542  53.108  1.00  0.00    -0.388 OA
HETATM   32  C7  UNL     1      27.950  -0.000  54.340  1.00  0.00     0.198 C 
HETATM   33  C8  UNL     1      26.599   0.396  54.890  1.00  0.00     0.298 C 
ENDBRANCH  27  28
ENDBRANCH  26  27
ENDBRANCH  25  26
ENDBRANCH  24  25
ENDBRANCH  21  24
ENDBRANCH  14  20
ENDBRANCH   1  10
TORSDOF 7
ENDMDL
MODEL 5
REMARK VINA RESULT:      -7.3      5.782      9.055
REMARK  7 active torsions:
REMARK  status: ('A' for Active; 'I' for Inactive)
REMARK    1  A    between atoms: C1_2  and  C2_3 
REMARK       I    between atoms: C1_2  and  N2_13 
REMARK    2  A    between atoms: C2_3  and  S1_4 
REMARK    3  A    between atoms: S1_4  and  C3_5 
REMARK    4  A    between atoms: C3_5  and  C4_6 
REMARK    5  A    between atoms: C4_6  and  N1_7 
REMARK    6  A    between atoms: N2_13  and  C9_14 
REMARK    7  A    between atoms: C12_17  and  C13_18 
ROOT
HETATM    1  C13 UNL     1      30.021   6.227  48.581  1.00  0.00     0.211 C 
HETATM    2  O3  UNL     1      30.336   5.001  48.047  1.00  0.00    -0.371 OA
HETATM    3  C14 UNL     1      31.408   4.968  47.214  1.00  0.00     0.199 C 
HETATM    4  C15 UNL     1      32.653   5.580  47.699  1.00  0.00     0.042 C 
HETATM    5  C16 UNL     1      32.594   6.671  48.448  1.00  0.00     0.124 C 
HETATM    6  F1  UNL     1      33.616   7.343  48.963  1.00  0.00    -0.206 F 
HETATM    7  C17 UNL     1      31.226   7.116  48.684  1.00  0.00     0.026 C 
HETATM    8  C18 UNL     1      30.935   8.335  49.010  1.00  0.00     0.097 C 
HETATM    9 CL1  UNL     1      30.412   9.937  49.451  1.00  0.00    -0.096 Cl
ENDROOT
BRANCH   1  10
HETATM   10  C12 UNL     1      29.045   6.961  47.762  1.00  0.00     0.082 A 
HETATM   11  C11 UNL     1      27.689   7.131  47.938  1.00  0.00     0.025 A 
HETATM   12  C10 UNL     1      27.178   6.503  49.053  1.00  0.00     0.066 A 
HETATM   13  C20 UNL     1      26.893   7.858  47.083  1.00  0.00     0.088 A 
HETATM   14  C9  UNL     1      25.836   6.599  49.336  1.00  0.00     0.130 A 
HETATM   15  N5  UNL     1      25.047   7.321  48.487  1.00  0.00    -0.241 NA
HETATM   16  C21 UNL     1      25.573   7.923  47.404  1.00  0.00     0.151 A 
HETATM   17  N4  UNL     1      27.477   8.430  46.023  1.00  0.00    -0.240 NA
HETATM   18  C19 UNL     1      28.795   8.288  45.817  1.00  0.00     0.234 A 
HETATM   19  N3  UNL     1      29.578   7.568  46.666  1.00  0.00    -0.242 NA
BRANCH  14  20
HETATM   20  N2  UNL     1      25.213   5.991  50.459  1.00  0.00    -0.311 N 
HETATM   21  C1  UNL     1      24.518   4.767  50.202  1.00  0.00     0.232 C 
HETATM   22  O1  UNL     1      24.539   4.356  48.991  1.00  0.00    -0.272 OA
HETATM   23  H15 UNL     1      25.148   6.239  51.462  1.00  0.00     0.170 HD
BRANCH  21  24
HETATM   24  C2  UNL     1      23.758   3.838  51.044  1.00  0.00     0.177 C 
BRANCH  24  25
HETATM   25  S1  UNL     1      24.758   2.829  52.147  1.00  0.00    -0.158 SA
BRANCH  25  26
HETATM   26  C3  UNL     1      26.419   2.621  51.461  1.00  0.00     0.104 C 
BRANCH  26  27
HETATM   27  C4  UNL     1      26.793   1.162  51.582  1.00  0.00     0.282 C 
BRANCH  27  28
HETATM   28  N1  UNL     1      26.963   0.751  52.954  1.00  0.00     0.093 N 
HETATM   29  C5  UNL     1      28.268   0.995  53.481  1.00  0.00     0.298 C 
HETATM   30  C6  UNL     1      28.527  -0.092  54.517  1.00  0.00     0.198 C 
HETATM   31  O2  UNL     1      28.665  -1.267  53.790  1.00  0.00    -0.388 OA
HETATM   32  C7  UNL     1      27.548  -1.630  53.083  1.00  0.00     0.198 C 
HETATM   33  C8  UNL     1      26.464  -0.576  53.104  1.00  0.00     0.298 C 
ENDBRANCH  27  28
ENDBRANCH  26  27
ENDBRANCH  25  26
ENDBRANCH  24  25
ENDBRANCH  21  24
ENDBRANCH  14  20
ENDBRANCH   1  10
TORSDOF 7
ENDMDL
MODEL 6
REMARK VINA RESULT:      -7.2      7.681     10.349
REMARK  7 active torsions:
REMARK  status: ('A' for Active; 'I' for Inactive)
REMARK    1  A    between atoms: C1_2  and  C2_3 
REMARK       I    between atoms: C1_2  and  N2_13 
REMARK    2  A    between atoms: C2_3  and  S1_4 
REMARK    3  A    between atoms: S1_4  and  C3_5 
REMARK    4  A    between atoms: C3_5  and  C4_6 
REMARK    5  A    between atoms: C4_6  and  N1_7 
REMARK    6  A    between atoms: N2_13  and  C9_14 
REMARK    7  A    between atoms: C12_17  and  C13_18 
ROOT
HETATM    1  C13 UNL     1      32.120   5.043  47.808  1.00  0.00     0.211 C 
HETATM    2  O3  UNL     1      31.274   4.082  47.310  1.00  0.00    -0.371 OA
HETATM    3  C14 UNL     1      31.847   3.116  46.547  1.00  0.00     0.199 C 
HETATM    4  C15 UNL     1      33.024   2.434  47.103  1.00  0.00     0.042 C 
HETATM    5  C16 UNL     1      33.890   3.120  47.833  1.00  0.00     0.124 C 
HETATM    6  F1  UNL     1      34.996   2.658  48.404  1.00  0.00    -0.206 F 
HETATM    7  C17 UNL     1      33.517   4.522  47.977  1.00  0.00     0.026 C 
HETATM    8  C18 UNL     1      34.376   5.446  48.269  1.00  0.00     0.097 C 
HETATM    9 CL1  UNL     1      35.428   6.779  48.656  1.00  0.00    -0.096 Cl
ENDROOT
BRANCH   1  10
HETATM   10  C12 UNL     1      32.227   6.210  46.920  1.00  0.00     0.082 A 
HETATM   11  C11 UNL     1      31.716   7.482  47.061  1.00  0.00     0.025 A 
HETATM   12  C10 UNL     1      30.985   7.675  48.213  1.00  0.00     0.066 A 
HETATM   13  C20 UNL     1      31.905   8.488  46.140  1.00  0.00     0.088 A 
HETATM   14  C9  UNL     1      30.422   8.904  48.466  1.00  0.00     0.130 A 
HETATM   15  N5  UNL     1      30.610   9.901  47.552  1.00  0.00    -0.241 NA
HETATM   16  C21 UNL     1      31.328   9.684  46.435  1.00  0.00     0.151 A 
HETATM   17  N4  UNL     1      32.627   8.206  45.049  1.00  0.00    -0.240 NA
HETATM   18  C19 UNL     1      33.142   6.979  44.876  1.00  0.00     0.234 A 
HETATM   19  N3  UNL     1      32.953   5.988  45.790  1.00  0.00    -0.242 NA
BRANCH  14  20
HETATM   20  N2  UNL     1      29.653   9.205  49.622  1.00  0.00    -0.311 N 
HETATM   21  C1  UNL     1      28.235   9.091  49.476  1.00  0.00     0.232 C 
HETATM   22  O1  UNL     1      27.818   8.728  48.323  1.00  0.00    -0.272 OA
HETATM   23  H15 UNL     1      29.895   9.496  50.586  1.00  0.00     0.170 HD
BRANCH  21  24
HETATM   24  C2  UNL     1      27.103   9.304  50.385  1.00  0.00     0.177 C 
BRANCH  24  25
HETATM   25  S1  UNL     1      25.496   9.385  49.583  1.00  0.00    -0.158 SA
BRANCH  25  26
HETATM   26  C3  UNL     1      24.433   8.050  50.187  1.00  0.00     0.104 C 
BRANCH  26  27
HETATM   27  C4  UNL     1      25.306   6.846  50.451  1.00  0.00     0.282 C 
BRANCH  27  28
HETATM   28  N1  UNL     1      24.994   5.740  49.580  1.00  0.00     0.093 N 
HETATM   29  C5  UNL     1      24.336   4.651  50.230  1.00  0.00     0.298 C 
HETATM   30  C6  UNL     1      24.755   3.387  49.489  1.00  0.00     0.198 C 
HETATM   31  O2  UNL     1      26.098   3.208  49.797  1.00  0.00    -0.388 OA
HETATM   32  C7  UNL     1      26.915   4.225  49.374  1.00  0.00     0.198 C 
HETATM   33  C8  UNL     1      26.153   5.408  48.820  1.00  0.00     0.298 C 
ENDBRANCH  27  28
ENDBRANCH  26  27
ENDBRANCH  25  26
ENDBRANCH  24  25
ENDBRANCH  21  24
ENDBRANCH  14  20
ENDBRANCH   1  10
TORSDOF 7
ENDMDL
MODEL 7
REMARK VINA RESULT:      -7.2      6.711      9.679
REMARK  7 active torsions:
REMARK  status: ('A' for Active; 'I' for Inactive)
REMARK    1  A    between atoms: C1_2  and  C2_3 
REMARK       I    between atoms: C1_2  and  N2_13 
REMARK    2  A    between atoms: C2_3  and  S1_4 
REMARK    3  A    between atoms: S1_4  and  C3_5 
REMARK    4  A    between atoms: C3_5  and  C4_6 
REMARK    5  A    between atoms: C4_6  and  N1_7 
REMARK    6  A    between atoms: N2_13  and  C9_14 
REMARK    7  A    between atoms: C12_17  and  C13_18 
ROOT
HETATM    1  C13 UNL     1      31.645   5.132  47.945  1.00  0.00     0.211 C 
HETATM    2  O3  UNL     1      31.250   3.914  47.449  1.00  0.00    -0.371 OA
HETATM    3  C14 UNL     1      32.128   3.290  46.622  1.00  0.00     0.199 C 
HETATM    4  C15 UNL     1      33.513   3.154  47.096  1.00  0.00     0.042 C 
HETATM    5  C16 UNL     1      34.055   4.126  47.813  1.00  0.00     0.124 C 
HETATM    6  F1  UNL     1      35.284   4.160  48.314  1.00  0.00    -0.206 F 
HETATM    7  C17 UNL     1      33.140   5.240  48.030  1.00  0.00     0.026 C 
HETATM    8  C18 UNL     1      33.551   6.434  48.319  1.00  0.00     0.097 C 
HETATM    9 CL1  UNL     1      33.972   8.078  48.712  1.00  0.00    -0.096 Cl
ENDROOT
BRANCH   1  10
HETATM   10  C12 UNL     1      31.205   6.252  47.101  1.00  0.00     0.082 A 
HETATM   11  C11 UNL     1      30.093   7.059  47.207  1.00  0.00     0.025 A 
HETATM   12  C10 UNL     1      29.269   6.753  48.269  1.00  0.00     0.066 A 
HETATM   13  C20 UNL     1      29.809   8.087  46.336  1.00  0.00     0.088 A 
HETATM   14  C9  UNL     1      28.126   7.488  48.479  1.00  0.00     0.130 A 
HETATM   15  N5  UNL     1      27.845   8.507  47.615  1.00  0.00    -0.241 NA
HETATM   16  C21 UNL     1      28.667   8.783  46.586  1.00  0.00     0.151 A 
HETATM   17  N4  UNL     1      30.666   8.308  45.333  1.00  0.00    -0.240 NA
HETATM   18  C19 UNL     1      31.760   7.544  45.195  1.00  0.00     0.234 A 
HETATM   19  N3  UNL     1      32.038   6.529  46.060  1.00  0.00    -0.242 NA
BRANCH  14  20
HETATM   20  N2  UNL     1      27.213   7.254  49.542  1.00  0.00    -0.311 N 
HETATM   21  C1  UNL     1      26.379   6.100  49.407  1.00  0.00     0.232 C 
HETATM   22  O1  UNL     1      26.551   5.407  48.346  1.00  0.00    -0.272 OA
HETATM   23  H15 UNL     1      27.008   7.745  50.430  1.00  0.00     0.170 HD
BRANCH  21  24
HETATM   24  C2  UNL     1      25.329   5.506  50.242  1.00  0.00     0.177 C 
BRANCH  24  25
HETATM   25  S1  UNL     1      25.382   3.712  50.357  1.00  0.00    -0.158 SA
BRANCH  25  26
HETATM   26  C3  UNL     1      24.520   3.161  51.850  1.00  0.00     0.104 C 
BRANCH  26  27
HETATM   27  C4  UNL     1      24.649   1.658  51.932  1.00  0.00     0.282 C 
BRANCH  27  28
HETATM   28  N1  UNL     1      24.885   1.200  53.280  1.00  0.00     0.093 N 
HETATM   29  C5  UNL     1      26.144   1.599  53.822  1.00  0.00     0.298 C 
HETATM   30  C6  UNL     1      26.563   0.504  54.797  1.00  0.00     0.198 C 
HETATM   31  O2  UNL     1      26.863  -0.597  54.006  1.00  0.00    -0.388 OA
HETATM   32  C7  UNL     1      25.805  -1.076  53.276  1.00  0.00     0.198 C 
HETATM   33  C8  UNL     1      24.581  -0.191  53.354  1.00  0.00     0.298 C 
ENDBRANCH  27  28
ENDBRANCH  26  27
ENDBRANCH  25  26
ENDBRANCH  24  25
ENDBRANCH  21  24
ENDBRANCH  14  20
ENDBRANCH   1  10
TORSDOF 7
ENDMDL
MODEL 8
REMARK VINA RESULT:      -7.0      2.228      2.731
REMARK  7 active torsions:
REMARK  status: ('A' for Active; 'I' for Inactive)
REMARK    1  A    between atoms: C1_2  and  C2_3 
REMARK       I    between atoms: C1_2  and  N2_13 
REMARK    2  A    between atoms: C2_3  and  S1_4 
REMARK    3  A    between atoms: S1_4  and  C3_5 
REMARK    4  A    between atoms: C3_5  and  C4_6 
REMARK    5  A    between atoms: C4_6  and  N1_7 
REMARK    6  A    between atoms: N2_13  and  C9_14 
REMARK    7  A    between atoms: C12_17  and  C13_18 
ROOT
HETATM    1  C13 UNL     1      26.912   1.036  52.659  1.00  0.00     0.211 C 
HETATM    2  O3  UNL     1      27.151   2.316  53.097  1.00  0.00    -0.371 OA
HETATM    3  C14 UNL     1      27.939   2.435  54.196  1.00  0.00     0.199 C 
HETATM    4  C15 UNL     1      29.223   1.720  54.180  1.00  0.00     0.042 C 
HETATM    5  C16 UNL     1      29.301   0.534  53.596  1.00  0.00     0.124 C 
HETATM    6  F1  UNL     1      30.376  -0.237  53.494  1.00  0.00    -0.206 F 
HETATM    7  C17 UNL     1      28.029   0.103  53.029  1.00  0.00     0.026 C 
HETATM    8  C18 UNL     1      27.756  -1.140  52.794  1.00  0.00     0.097 C 
HETATM    9 CL1  UNL     1      27.265  -2.772  52.432  1.00  0.00    -0.096 Cl
ENDROOT
BRANCH   1  10
HETATM   10  C12 UNL     1      25.693   0.460  53.244  1.00  0.00     0.082 A 
HETATM   11  C11 UNL     1      24.379   0.574  52.845  1.00  0.00     0.025 A 
HETATM   12  C10 UNL     1      24.191   1.359  51.728  1.00  0.00     0.066 A 
HETATM   13  C20 UNL     1      23.328  -0.033  53.494  1.00  0.00     0.088 A 
HETATM   14  C9  UNL     1      22.921   1.549  51.233  1.00  0.00     0.130 A 
HETATM   15  N5  UNL     1      21.880   0.946  51.878  1.00  0.00    -0.241 NA
HETATM   16  C21 UNL     1      22.093   0.185  52.968  1.00  0.00     0.151 A 
HETATM   17  N4  UNL     1      23.607  -0.775  54.573  1.00  0.00    -0.240 NA
HETATM   18  C19 UNL     1      24.874  -0.910  54.993  1.00  0.00     0.234 A 
HETATM   19  N3  UNL     1      25.910  -0.307  54.347  1.00  0.00    -0.242 NA
BRANCH  14  20
HETATM   20  N2  UNL     1      22.622   2.337  50.089  1.00  0.00    -0.311 N 
HETATM   21  C1  UNL     1      22.369   3.723  50.335  1.00  0.00     0.232 C 
HETATM   22  O1  UNL     1      22.444   4.098  51.555  1.00  0.00    -0.272 OA
HETATM   23  H15 UNL     1      22.547   2.129  49.078  1.00  0.00     0.170 HD
BRANCH  21  24
HETATM   24  C2  UNL     1      22.030   4.858  49.470  1.00  0.00     0.177 C 
BRANCH  24  25
HETATM   25  S1  UNL     1      21.659   6.387  50.343  1.00  0.00    -0.158 SA
BRANCH  25  26
HETATM   26  C3  UNL     1      23.161   7.382  50.516  1.00  0.00     0.104 C 
BRANCH  26  27
HETATM   27  C4  UNL     1      23.208   8.356  49.363  1.00  0.00     0.282 C 
BRANCH  27  28
HETATM   28  N1  UNL     1      24.428   8.248  48.602  1.00  0.00     0.093 N 
HETATM   29  C5  UNL     1      25.071   6.976  48.704  1.00  0.00     0.298 C 
HETATM   30  C6  UNL     1      26.566   7.233  48.550  1.00  0.00     0.198 C 
HETATM   31  O2  UNL     1      26.945   7.904  49.706  1.00  0.00    -0.388 OA
HETATM   32  C7  UNL     1      26.333   9.118  49.882  1.00  0.00     0.198 C 
HETATM   33  C8  UNL     1      25.243   9.387  48.869  1.00  0.00     0.298 C 
ENDBRANCH  27  28
ENDBRANCH  26  27
ENDBRANCH  25  26
ENDBRANCH  24  25
ENDBRANCH  21  24
ENDBRANCH  14  20
ENDBRANCH   1  10
TORSDOF 7
ENDMDL
MODEL 9
REMARK VINA RESULT:      -7.0      3.817      7.625
REMARK  7 active torsions:
REMARK  status: ('A' for Active; 'I' for Inactive)
REMARK    1  A    between atoms: C1_2  and  C2_3 
REMARK       I    between atoms: C1_2  and  N2_13 
REMARK    2  A    between atoms: C2_3  and  S1_4 
REMARK    3  A    between atoms: S1_4  and  C3_5 
REMARK    4  A    between atoms: C3_5  and  C4_6 
REMARK    5  A    between atoms: C4_6  and  N1_7 
REMARK    6  A    between atoms: N2_13  and  C9_14 
REMARK    7  A    between atoms: C12_17  and  C13_18 
ROOT
HETATM    1  C13 UNL     1      24.068   6.873  49.858  1.00  0.00     0.211 C 
HETATM    2  O3  UNL     1      24.531   8.122  50.195  1.00  0.00    -0.371 OA
HETATM    3  C14 UNL     1      24.760   8.975  49.163  1.00  0.00     0.199 C 
HETATM    4  C15 UNL     1      23.678   9.146  48.183  1.00  0.00     0.042 C 
HETATM    5  C16 UNL     1      22.923   8.108  47.858  1.00  0.00     0.124 C 
HETATM    6  F1  UNL     1      21.913   8.093  46.997  1.00  0.00    -0.206 F 
HETATM    7  C17 UNL     1      23.307   6.892  48.565  1.00  0.00     0.026 C 
HETATM    8  C18 UNL     1      23.015   5.709  48.126  1.00  0.00     0.097 C 
HETATM    9 CL1  UNL     1      22.687   4.066  47.646  1.00  0.00    -0.096 Cl
ENDROOT
BRANCH   1  10
HETATM   10  C12 UNL     1      25.157   5.903  49.673  1.00  0.00     0.082 A 
HETATM   11  C11 UNL     1      25.368   4.682  50.276  1.00  0.00     0.025 A 
HETATM   12  C10 UNL     1      24.408   4.331  51.200  1.00  0.00     0.066 A 
HETATM   13  C20 UNL     1      26.442   3.867  49.996  1.00  0.00     0.088 A 
HETATM   14  C9  UNL     1      24.510   3.134  51.869  1.00  0.00     0.130 A 
HETATM   15  N5  UNL     1      25.575   2.327  51.591  1.00  0.00    -0.241 NA
HETATM   16  C21 UNL     1      26.499   2.696  50.684  1.00  0.00     0.151 A 
HETATM   17  N4  UNL     1      27.327   4.293  49.086  1.00  0.00    -0.240 NA
HETATM   18  C19 UNL     1      27.156   5.476  48.477  1.00  0.00     0.234 A 
HETATM   19  N3  UNL     1      26.092   6.278  48.757  1.00  0.00    -0.242 NA
BRANCH  14  20
HETATM   20  N2  UNL     1      23.574   2.681  52.838  1.00  0.00    -0.311 N 
HETATM   21  C1  UNL     1      22.556   1.799  52.358  1.00  0.00     0.232 C 
HETATM   22  O1  UNL     1      22.604   1.514  51.112  1.00  0.00    -0.272 OA
HETATM   23  H15 UNL     1      23.459   2.848  53.853  1.00  0.00     0.170 HD
BRANCH  21  24
HETATM   24  C2  UNL     1      21.424   1.118  52.995  1.00  0.00     0.177 C 
BRANCH  24  25
HETATM   25  S1  UNL     1      21.695  -0.623  53.355  1.00  0.00    -0.158 SA
BRANCH  25  26
HETATM   26  C3  UNL     1      23.205  -0.826  54.332  1.00  0.00     0.104 C 
BRANCH  26  27
HETATM   27  C4  UNL     1      24.384  -0.581  53.421  1.00  0.00     0.282 C 
BRANCH  27  28
HETATM   28  N1  UNL     1      25.644  -0.858  54.066  1.00  0.00     0.093 N 
HETATM   29  C5  UNL     1      26.159   0.230  54.835  1.00  0.00     0.298 C 
HETATM   30  C6  UNL     1      27.678   0.116  54.785  1.00  0.00     0.198 C 
HETATM   31  O2  UNL     1      28.027   0.426  53.477  1.00  0.00    -0.388 OA
HETATM   32  C7  UNL     1      27.517  -0.433  52.537  1.00  0.00     0.198 C 
HETATM   33  C8  UNL     1      26.537  -1.430  53.112  1.00  0.00     0.298 C 
ENDBRANCH  27  28
ENDBRANCH  26  27
ENDBRANCH  25  26
ENDBRANCH  24  25
ENDBRANCH  21  24
ENDBRANCH  14  20
ENDBRANCH   1  10
TORSDOF 7
ENDMDL
