MODEL 1
REMARK VINA RESULT:      -7.7      0.000      0.000
REMARK  4 active torsions:
REMARK  status: ('A' for Active; 'I' for Inactive)
REMARK    1  A    between atoms: O1_2  and  C2_3 
REMARK    2  A    between atoms: C6_9  and  O2_10 
REMARK    3  A    between atoms: O2_10  and  C7_11 
REMARK    4  A    between atoms: C15_20  and  O3_21 
ROOT
HETATM    1  C2  UNL     1      20.347  -0.551  53.399  1.00  0.00     0.103 A 
HETATM    2  C3  UNL     1      21.026  -1.064  54.485  1.00  0.00     0.072 A 
HETATM    3  C4  UNL     1      22.389  -1.030  54.636  1.00  0.00     0.075 A 
HETATM    4  N1  UNL     1      23.046  -1.521  55.677  1.00  0.00    -0.241 NA
HETATM    5  C5  UNL     1      24.401  -1.461  55.778  1.00  0.00     0.236 A 
HETATM    6  N2  UNL     1      25.136  -0.881  54.790  1.00  0.00    -0.217 NA
HETATM    7  C6  UNL     1      24.514  -0.358  53.695  1.00  0.00     0.179 A 
HETATM    8  C13 UNL     1      23.138  -0.444  53.639  1.00  0.00     0.048 A 
HETATM    9  C14 UNL     1      22.514   0.084  52.533  1.00  0.00     0.057 A 
HETATM   10  C15 UNL     1      21.137   0.030  52.418  1.00  0.00     0.102 A 
ENDROOT
BRANCH   7  11
HETATM   11  O2  UNL     1      25.209   0.242  52.662  1.00  0.00    -0.320 OA
BRANCH  11  12
HETATM   12  C7  UNL     1      26.069   1.324  53.000  1.00  0.00     0.177 C 
HETATM   13  C8  UNL     1      25.228   2.362  53.673  1.00  0.00     0.006 C 
HETATM   14  C9  UNL     1      24.488   3.211  52.978  1.00  0.00    -0.023 C 
HETATM   15  C10 UNL     1      24.464   3.167  51.475  1.00  0.00     0.073 C 
HETATM   16  C11 UNL     1      25.863   2.835  51.050  1.00  0.00    -0.009 C 
HETATM   17 BR1  UNL     1      26.563   3.658  49.476  1.00  0.00    -0.056 Br
HETATM   18  C12 UNL     1      26.597   1.984  51.760  1.00  0.00     0.024 C 
ENDBRANCH  11  12
ENDBRANCH   7  11
BRANCH  10  19
HETATM   19  O3  UNL     1      20.467   0.554  51.312  1.00  0.00    -0.353 OA
HETATM   20  C16 UNL     1      21.201   0.854  50.140  1.00  0.00     0.210 C 
ENDBRANCH  10  19
BRANCH   1  21
HETATM   21  O1  UNL     1      18.982  -0.595  53.263  1.00  0.00    -0.353 OA
HETATM   22  C1  UNL     1      18.311  -1.826  53.434  1.00  0.00     0.210 C 
ENDBRANCH   1  21
TORSDOF 4
ENDMDL
MODEL 2
REMARK VINA RESULT:      -7.4      3.310      6.362
REMARK  4 active torsions:
REMARK  status: ('A' for Active; 'I' for Inactive)
REMARK    1  A    between atoms: O1_2  and  C2_3 
REMARK    2  A    between atoms: C6_9  and  O2_10 
REMARK    3  A    between atoms: O2_10  and  C7_11 
REMARK    4  A    between atoms: C15_20  and  O3_21 
ROOT
HETATM    1  C2  UNL     1      27.594   0.262  53.909  1.00  0.00     0.103 A 
HETATM    2  C3  UNL     1      27.854   1.118  52.858  1.00  0.00     0.072 A 
HETATM    3  C4  UNL     1      26.899   1.844  52.193  1.00  0.00     0.075 A 
HETATM    4  N1  UNL     1      27.144   2.667  51.183  1.00  0.00    -0.241 NA
HETATM    5  C5  UNL     1      26.159   3.365  50.557  1.00  0.00     0.236 A 
HETATM    6  N2  UNL     1      24.865   3.233  50.958  1.00  0.00    -0.217 NA
HETATM    7  C6  UNL     1      24.553   2.400  51.992  1.00  0.00     0.179 A 
HETATM    8  C13 UNL     1      25.588   1.714  52.595  1.00  0.00     0.048 A 
HETATM    9  C14 UNL     1      25.271   0.874  53.637  1.00  0.00     0.057 A 
HETATM   10  C15 UNL     1      26.262   0.160  54.283  1.00  0.00     0.102 A 
ENDROOT
BRANCH   7  11
HETATM   11  O2  UNL     1      23.258   2.226  52.441  1.00  0.00    -0.320 OA
BRANCH  11  12
HETATM   12  C7  UNL     1      22.407   1.392  51.663  1.00  0.00     0.177 C 
HETATM   13  C8  UNL     1      21.060   2.041  51.634  1.00  0.00     0.006 C 
HETATM   14  C9  UNL     1      20.209   1.914  52.640  1.00  0.00    -0.023 C 
HETATM   15  C10 UNL     1      20.563   1.107  53.858  1.00  0.00     0.073 C 
HETATM   16  C11 UNL     1      21.349  -0.068  53.359  1.00  0.00    -0.009 C 
HETATM   17 BR1  UNL     1      21.104  -1.761  54.208  1.00  0.00    -0.056 Br
HETATM   18  C12 UNL     1      22.197   0.072  52.345  1.00  0.00     0.024 C 
ENDBRANCH  11  12
ENDBRANCH   7  11
BRANCH  10  19
HETATM   19  O3  UNL     1      25.980  -0.702  55.343  1.00  0.00    -0.353 OA
HETATM   20  C16 UNL     1      24.653  -1.155  55.529  1.00  0.00     0.210 C 
ENDBRANCH  10  19
BRANCH   1  21
HETATM   21  O1  UNL     1      28.562  -0.458  54.564  1.00  0.00    -0.353 OA
HETATM   22  C1  UNL     1      29.725  -0.846  53.862  1.00  0.00     0.210 C 
ENDBRANCH   1  21
TORSDOF 4
ENDMDL
MODEL 3
REMARK VINA RESULT:      -7.4      2.173      5.229
REMARK  4 active torsions:
REMARK  status: ('A' for Active; 'I' for Inactive)
REMARK    1  A    between atoms: O1_2  and  C2_3 
REMARK    2  A    between atoms: C6_9  and  O2_10 
REMARK    3  A    between atoms: O2_10  and  C7_11 
REMARK    4  A    between atoms: C15_20  and  O3_21 
ROOT
HETATM    1  C2  UNL     1      27.374   0.724  53.781  1.00  0.00     0.103 A 
HETATM    2  C3  UNL     1      26.747   0.029  54.795  1.00  0.00     0.072 A 
HETATM    3  C4  UNL     1      25.452  -0.423  54.741  1.00  0.00     0.075 A 
HETATM    4  N1  UNL     1      24.844  -1.091  55.711  1.00  0.00    -0.241 NA
HETATM    5  C5  UNL     1      23.557  -1.516  55.607  1.00  0.00     0.236 A 
HETATM    6  N2  UNL     1      22.841  -1.262  54.478  1.00  0.00    -0.217 NA
HETATM    7  C6  UNL     1      23.414  -0.579  53.447  1.00  0.00     0.179 A 
HETATM    8  C13 UNL     1      24.723  -0.168  53.601  1.00  0.00     0.048 A 
HETATM    9  C14 UNL     1      25.298   0.522  52.559  1.00  0.00     0.057 A 
HETATM   10  C15 UNL     1      26.606   0.959  52.651  1.00  0.00     0.102 A 
ENDROOT
BRANCH   7  11
HETATM   11  O2  UNL     1      22.735  -0.292  52.278  1.00  0.00    -0.320 OA
BRANCH  11  12
HETATM   12  C7  UNL     1      21.556   0.497  52.389  1.00  0.00     0.177 C 
HETATM   13  C8  UNL     1      20.893   0.490  51.048  1.00  0.00     0.006 C 
HETATM   14  C9  UNL     1      21.295   1.289  50.073  1.00  0.00    -0.023 C 
HETATM   15  C10 UNL     1      22.440   2.242  50.274  1.00  0.00     0.073 C 
HETATM   16  C11 UNL     1      22.315   2.745  51.681  1.00  0.00    -0.009 C 
HETATM   17 BR1  UNL     1      22.754   4.567  52.046  1.00  0.00    -0.056 Br
HETATM   18  C12 UNL     1      21.906   1.933  52.651  1.00  0.00     0.024 C 
ENDBRANCH  11  12
ENDBRANCH   7  11
BRANCH  10  19
HETATM   19  O3  UNL     1      27.225   1.662  51.616  1.00  0.00    -0.353 OA
HETATM   20  C16 UNL     1      26.486   2.640  50.910  1.00  0.00     0.210 C 
ENDBRANCH  10  19
BRANCH   1  21
HETATM   21  O1  UNL     1      28.671   1.169  53.852  1.00  0.00    -0.353 OA
HETATM   22  C1  UNL     1      29.727   0.244  53.696  1.00  0.00     0.210 C 
ENDBRANCH   1  21
TORSDOF 4
ENDMDL
MODEL 4
REMARK VINA RESULT:      -7.3      2.715      5.314
REMARK  4 active torsions:
REMARK  status: ('A' for Active; 'I' for Inactive)
REMARK    1  A    between atoms: O1_2  and  C2_3 
REMARK    2  A    between atoms: C6_9  and  O2_10 
REMARK    3  A    between atoms: O2_10  and  C7_11 
REMARK    4  A    between atoms: C15_20  and  O3_21 
ROOT
HETATM    1  C2  UNL     1      26.677   0.129  54.265  1.00  0.00     0.103 A 
HETATM    2  C3  UNL     1      25.552  -0.623  53.992  1.00  0.00     0.072 A 
HETATM    3  C4  UNL     1      24.384  -0.117  53.479  1.00  0.00     0.075 A 
HETATM    4  N1  UNL     1      23.302  -0.834  53.216  1.00  0.00    -0.241 NA
HETATM    5  C5  UNL     1      22.168  -0.282  52.706  1.00  0.00     0.236 A 
HETATM    6  N2  UNL     1      22.113   1.053  52.447  1.00  0.00    -0.217 NA
HETATM    7  C6  UNL     1      23.198   1.841  52.698  1.00  0.00     0.179 A 
HETATM    8  C13 UNL     1      24.324   1.233  53.215  1.00  0.00     0.048 A 
HETATM    9  C14 UNL     1      25.415   2.031  53.468  1.00  0.00     0.057 A 
HETATM   10  C15 UNL     1      26.574   1.483  53.985  1.00  0.00     0.102 A 
ENDROOT
BRANCH   7  11
HETATM   11  O2  UNL     1      23.199   3.201  52.455  1.00  0.00    -0.320 OA
BRANCH  11  12
HETATM   12  C7  UNL     1      22.574   3.648  51.257  1.00  0.00     0.177 C 
HETATM   13  C8  UNL     1      23.396   3.139  50.115  1.00  0.00     0.006 C 
HETATM   14  C9  UNL     1      24.501   3.757  49.730  1.00  0.00    -0.023 C 
HETATM   15  C10 UNL     1      24.977   5.002  50.426  1.00  0.00     0.073 C 
HETATM   16  C11 UNL     1      23.741   5.777  50.775  1.00  0.00    -0.009 C 
HETATM   17 BR1  UNL     1      23.791   7.682  50.657  1.00  0.00    -0.056 Br
HETATM   18  C12 UNL     1      22.637   5.144  51.156  1.00  0.00     0.024 C 
ENDBRANCH  11  12
ENDBRANCH   7  11
BRANCH  10  19
HETATM   19  O3  UNL     1      27.702   2.259  54.254  1.00  0.00    -0.353 OA
HETATM   20  C16 UNL     1      28.598   2.562  53.202  1.00  0.00     0.210 C 
ENDBRANCH  10  19
BRANCH   1  21
HETATM   21  O1  UNL     1      27.837  -0.394  54.779  1.00  0.00    -0.353 OA
HETATM   22  C1  UNL     1      28.803  -0.929  53.898  1.00  0.00     0.210 C 
ENDBRANCH   1  21
TORSDOF 4
ENDMDL
MODEL 5
REMARK VINA RESULT:      -7.1      1.574      2.056
REMARK  4 active torsions:
REMARK  status: ('A' for Active; 'I' for Inactive)
REMARK    1  A    between atoms: O1_2  and  C2_3 
REMARK    2  A    between atoms: C6_9  and  O2_10 
REMARK    3  A    between atoms: O2_10  and  C7_11 
REMARK    4  A    between atoms: C15_20  and  O3_21 
ROOT
HETATM    1  C2  UNL     1      19.045  -0.368  52.313  1.00  0.00     0.103 A 
HETATM    2  C3  UNL     1      19.571  -0.966  53.441  1.00  0.00     0.072 A 
HETATM    3  C4  UNL     1      20.892  -0.901  53.809  1.00  0.00     0.075 A 
HETATM    4  N1  UNL     1      21.402  -1.473  54.891  1.00  0.00    -0.241 NA
HETATM    5  C5  UNL     1      22.720  -1.377  55.211  1.00  0.00     0.236 A 
HETATM    6  N2  UNL     1      23.570  -0.676  54.413  1.00  0.00    -0.217 NA
HETATM    7  C6  UNL     1      23.101  -0.066  53.287  1.00  0.00     0.179 A 
HETATM    8  C13 UNL     1      21.756  -0.193  53.005  1.00  0.00     0.048 A 
HETATM    9  C14 UNL     1      21.286   0.423  51.868  1.00  0.00     0.057 A 
HETATM   10  C15 UNL     1      19.948   0.335  51.531  1.00  0.00     0.102 A 
ENDROOT
BRANCH   7  11
HETATM   11  O2  UNL     1      23.917   0.658  52.440  1.00  0.00    -0.320 OA
BRANCH  11  12
HETATM   12  C7  UNL     1      24.209   2.001  52.810  1.00  0.00     0.177 C 
HETATM   13  C8  UNL     1      24.313   2.794  51.545  1.00  0.00     0.006 C 
HETATM   14  C9  UNL     1      25.417   2.791  50.816  1.00  0.00    -0.023 C 
HETATM   15  C10 UNL     1      26.618   1.987  51.231  1.00  0.00     0.073 C 
HETATM   16  C11 UNL     1      26.682   2.082  52.726  1.00  0.00    -0.009 C 
HETATM   17 BR1  UNL     1      28.393   2.194  53.565  1.00  0.00    -0.056 Br
HETATM   18  C12 UNL     1      25.565   2.089  53.446  1.00  0.00     0.024 C 
ENDBRANCH  11  12
ENDBRANCH   7  11
BRANCH  10  19
HETATM   19  O3  UNL     1      19.433   0.945  50.387  1.00  0.00    -0.353 OA
HETATM   20  C16 UNL     1      19.898   2.231  50.023  1.00  0.00     0.210 C 
ENDBRANCH  10  19
BRANCH   1  21
HETATM   21  O1  UNL     1      17.721  -0.445  51.959  1.00  0.00    -0.353 OA
HETATM   22  C1  UNL     1      16.783  -0.928  52.897  1.00  0.00     0.210 C 
ENDBRANCH   1  21
TORSDOF 4
ENDMDL
MODEL 6
REMARK VINA RESULT:      -7.0      2.507      3.863
REMARK  4 active torsions:
REMARK  status: ('A' for Active; 'I' for Inactive)
REMARK    1  A    between atoms: O1_2  and  C2_3 
REMARK    2  A    between atoms: C6_9  and  O2_10 
REMARK    3  A    between atoms: O2_10  and  C7_11 
REMARK    4  A    between atoms: C15_20  and  O3_21 
ROOT
HETATM    1  C2  UNL     1      23.459  -0.209  53.570  1.00  0.00     0.103 A 
HETATM    2  C3  UNL     1      24.808  -0.334  53.834  1.00  0.00     0.072 A 
HETATM    3  C4  UNL     1      25.778   0.498  53.334  1.00  0.00     0.075 A 
HETATM    4  N1  UNL     1      27.075   0.382  53.584  1.00  0.00    -0.241 NA
HETATM    5  C5  UNL     1      27.996   1.235  53.063  1.00  0.00     0.236 A 
HETATM    6  N2  UNL     1      27.604   2.255  52.252  1.00  0.00    -0.217 NA
HETATM    7  C6  UNL     1      26.282   2.424  51.960  1.00  0.00     0.179 A 
HETATM    8  C13 UNL     1      25.386   1.531  52.513  1.00  0.00     0.048 A 
HETATM    9  C14 UNL     1      24.054   1.704  52.216  1.00  0.00     0.057 A 
HETATM   10  C15 UNL     1      23.107   0.844  52.739  1.00  0.00     0.102 A 
ENDROOT
BRANCH   7  11
HETATM   11  O2  UNL     1      25.826   3.440  51.142  1.00  0.00    -0.320 OA
BRANCH  11  12
HETATM   12  C7  UNL     1      25.882   3.218  49.737  1.00  0.00     0.177 C 
HETATM   13  C8  UNL     1      26.938   4.124  49.189  1.00  0.00     0.006 C 
HETATM   14  C9  UNL     1      26.694   5.401  48.943  1.00  0.00    -0.023 C 
HETATM   15  C10 UNL     1      25.339   5.996  49.206  1.00  0.00     0.073 C 
HETATM   16  C11 UNL     1      24.344   4.937  48.837  1.00  0.00    -0.009 C 
HETATM   17 BR1  UNL     1      22.709   5.464  48.005  1.00  0.00    -0.056 Br
HETATM   18  C12 UNL     1      24.603   3.657  49.085  1.00  0.00     0.024 C 
ENDBRANCH  11  12
ENDBRANCH   7  11
BRANCH  10  19
HETATM   19  O3  UNL     1      21.747   0.986  52.462  1.00  0.00    -0.353 OA
HETATM   20  C16 UNL     1      21.230   0.451  51.258  1.00  0.00     0.210 C 
ENDBRANCH  10  19
BRANCH   1  21
HETATM   21  O1  UNL     1      22.502  -1.051  54.078  1.00  0.00    -0.353 OA
HETATM   22  C1  UNL     1      22.678  -1.596  55.369  1.00  0.00     0.210 C 
ENDBRANCH   1  21
TORSDOF 4
ENDMDL
MODEL 7
REMARK VINA RESULT:      -6.9      3.106      6.223
REMARK  4 active torsions:
REMARK  status: ('A' for Active; 'I' for Inactive)
REMARK    1  A    between atoms: O1_2  and  C2_3 
REMARK    2  A    between atoms: C6_9  and  O2_10 
REMARK    3  A    between atoms: O2_10  and  C7_11 
REMARK    4  A    between atoms: C15_20  and  O3_21 
ROOT
HETATM    1  C2  UNL     1      26.755   0.246  53.975  1.00  0.00     0.103 A 
HETATM    2  C3  UNL     1      26.868   1.192  52.976  1.00  0.00     0.072 A 
HETATM    3  C4  UNL     1      25.827   1.622  52.192  1.00  0.00     0.075 A 
HETATM    4  N1  UNL     1      25.931   2.531  51.232  1.00  0.00    -0.241 NA
HETATM    5  C5  UNL     1      24.866   2.922  50.482  1.00  0.00     0.236 A 
HETATM    6  N2  UNL     1      23.637   2.379  50.701  1.00  0.00    -0.217 NA
HETATM    7  C6  UNL     1      23.471   1.440  51.676  1.00  0.00     0.179 A 
HETATM    8  C13 UNL     1      24.582   1.076  52.409  1.00  0.00     0.048 A 
HETATM    9  C14 UNL     1      24.412   0.127  53.390  1.00  0.00     0.057 A 
HETATM   10  C15 UNL     1      25.485  -0.279  54.161  1.00  0.00     0.102 A 
ENDROOT
BRANCH   7  11
HETATM   11  O2  UNL     1      22.248   0.854  51.942  1.00  0.00    -0.320 OA
BRANCH  11  12
HETATM   12  C7  UNL     1      21.414   1.499  52.898  1.00  0.00     0.177 C 
HETATM   13  C8  UNL     1      20.797   0.427  53.739  1.00  0.00     0.006 C 
HETATM   14  C9  UNL     1      19.741  -0.255  53.327  1.00  0.00    -0.023 C 
HETATM   15  C10 UNL     1      19.113   0.023  51.989  1.00  0.00     0.073 C 
HETATM   16  C11 UNL     1      19.198   1.507  51.794  1.00  0.00    -0.009 C 
HETATM   17 BR1  UNL     1      17.750   2.403  50.930  1.00  0.00    -0.056 Br
HETATM   18  C12 UNL     1      20.263   2.181  52.217  1.00  0.00     0.024 C 
ENDBRANCH  11  12
ENDBRANCH   7  11
BRANCH  10  19
HETATM   19  O3  UNL     1      25.352  -1.238  55.165  1.00  0.00    -0.353 OA
HETATM   20  C16 UNL     1      24.086  -1.438  55.765  1.00  0.00     0.210 C 
ENDBRANCH  10  19
BRANCH   1  21
HETATM   21  O1  UNL     1      27.807  -0.173  54.750  1.00  0.00    -0.353 OA
HETATM   22  C1  UNL     1      29.032  -0.504  54.129  1.00  0.00     0.210 C 
ENDBRANCH   1  21
TORSDOF 4
ENDMDL
MODEL 8
REMARK VINA RESULT:      -6.6      3.164      5.163
REMARK  4 active torsions:
REMARK  status: ('A' for Active; 'I' for Inactive)
REMARK    1  A    between atoms: O1_2  and  C2_3 
REMARK    2  A    between atoms: C6_9  and  O2_10 
REMARK    3  A    between atoms: O2_10  and  C7_11 
REMARK    4  A    between atoms: C15_20  and  O3_21 
ROOT
HETATM    1  C2  UNL     1      23.148   4.625  50.887  1.00  0.00     0.103 A 
HETATM    2  C3  UNL     1      22.155   3.787  51.354  1.00  0.00     0.072 A 
HETATM    3  C4  UNL     1      22.372   2.522  51.840  1.00  0.00     0.075 A 
HETATM    4  N1  UNL     1      21.422   1.713  52.290  1.00  0.00    -0.241 NA
HETATM    5  C5  UNL     1      21.691   0.466  52.761  1.00  0.00     0.236 A 
HETATM    6  N2  UNL     1      22.970   0.004  52.784  1.00  0.00    -0.217 NA
HETATM    7  C6  UNL     1      23.988   0.792  52.335  1.00  0.00     0.179 A 
HETATM    8  C13 UNL     1      23.664   2.049  51.866  1.00  0.00     0.048 A 
HETATM    9  C14 UNL     1      24.693   2.841  51.412  1.00  0.00     0.057 A 
HETATM   10  C15 UNL     1      24.435   4.111  50.931  1.00  0.00     0.102 A 
ENDROOT
BRANCH   7  11
HETATM   11  O2  UNL     1      25.306   0.375  52.334  1.00  0.00    -0.320 OA
BRANCH  11  12
HETATM   12  C7  UNL     1      25.614  -0.803  53.073  1.00  0.00     0.177 C 
HETATM   13  C8  UNL     1      25.427  -0.477  54.520  1.00  0.00     0.006 C 
HETATM   14  C9  UNL     1      26.358   0.160  55.212  1.00  0.00    -0.023 C 
HETATM   15  C10 UNL     1      27.649   0.584  54.568  1.00  0.00     0.073 C 
HETATM   16  C11 UNL     1      28.013  -0.513  53.613  1.00  0.00    -0.009 C 
HETATM   17 BR1  UNL     1      29.854  -0.975  53.407  1.00  0.00    -0.056 Br
HETATM   18  C12 UNL     1      27.068  -1.148  52.928  1.00  0.00     0.024 C 
ENDBRANCH  11  12
ENDBRANCH   7  11
BRANCH  10  19
HETATM   19  O3  UNL     1      25.451   4.944  50.462  1.00  0.00    -0.353 OA
HETATM   20  C16 UNL     1      26.249   4.514  49.375  1.00  0.00     0.210 C 
ENDBRANCH  10  19
BRANCH   1  21
HETATM   21  O1  UNL     1      22.913   5.888  50.404  1.00  0.00    -0.353 OA
HETATM   22  C1  UNL     1      21.855   6.649  50.948  1.00  0.00     0.210 C 
ENDBRANCH   1  21
TORSDOF 4
ENDMDL
MODEL 9
REMARK VINA RESULT:      -6.6      1.705      2.226
REMARK  4 active torsions:
REMARK  status: ('A' for Active; 'I' for Inactive)
REMARK    1  A    between atoms: O1_2  and  C2_3 
REMARK    2  A    between atoms: C6_9  and  O2_10 
REMARK    3  A    between atoms: O2_10  and  C7_11 
REMARK    4  A    between atoms: C15_20  and  O3_21 
ROOT
HETATM    1  C2  UNL     1      18.407  -0.803  52.603  1.00  0.00     0.103 A 
HETATM    2  C3  UNL     1      19.168  -1.318  53.634  1.00  0.00     0.072 A 
HETATM    3  C4  UNL     1      20.504  -1.063  53.815  1.00  0.00     0.075 A 
HETATM    4  N1  UNL     1      21.239  -1.554  54.803  1.00  0.00    -0.241 NA
HETATM    5  C5  UNL     1      22.562  -1.270  54.938  1.00  0.00     0.236 A 
HETATM    6  N2  UNL     1      23.182  -0.455  54.041  1.00  0.00    -0.217 NA
HETATM    7  C6  UNL     1      22.475   0.080  53.004  1.00  0.00     0.179 A 
HETATM    8  C13 UNL     1      21.136  -0.239  52.911  1.00  0.00     0.048 A 
HETATM    9  C14 UNL     1      20.427   0.301  51.864  1.00  0.00     0.057 A 
HETATM   10  C15 UNL     1      19.081   0.021  51.716  1.00  0.00     0.102 A 
ENDROOT
BRANCH   7  11
HETATM   11  O2  UNL     1      23.052   0.913  52.064  1.00  0.00    -0.320 OA
BRANCH  11  12
HETATM   12  C7  UNL     1      23.579   2.150  52.529  1.00  0.00     0.177 C 
HETATM   13  C8  UNL     1      22.599   3.216  52.154  1.00  0.00     0.006 C 
HETATM   14  C9  UNL     1      22.566   3.727  50.934  1.00  0.00    -0.023 C 
HETATM   15  C10 UNL     1      23.519   3.256  49.870  1.00  0.00     0.073 C 
HETATM   16  C11 UNL     1      24.823   3.004  50.566  1.00  0.00    -0.009 C 
HETATM   17 BR1  UNL     1      26.446   3.431  49.656  1.00  0.00    -0.056 Br
HETATM   18  C12 UNL     1      24.841   2.494  51.794  1.00  0.00     0.024 C 
ENDBRANCH  11  12
ENDBRANCH   7  11
BRANCH  10  19
HETATM   19  O3  UNL     1      18.328   0.550  50.667  1.00  0.00    -0.353 OA
HETATM   20  C16 UNL     1      17.903   1.898  50.734  1.00  0.00     0.210 C 
ENDBRANCH  10  19
BRANCH   1  21
HETATM   21  O1  UNL     1      17.071  -1.069  52.437  1.00  0.00    -0.353 OA
HETATM   22  C1  UNL     1      16.555  -2.309  52.874  1.00  0.00     0.210 C 
ENDBRANCH   1  21
TORSDOF 4
ENDMDL
