MODEL 1
REMARK VINA RESULT:      -7.6      0.000      0.000
REMARK  4 active torsions:
REMARK  status: ('A' for Active; 'I' for Inactive)
REMARK    1  A    between atoms: C2_2  and  O1_3 
REMARK    2  A    between atoms: O1_3  and  C3_4 
REMARK    3  A    between atoms: C3_4  and  C11_14 
REMARK    4  A    between atoms: C4_5  and  C5_6 
ROOT
HETATM    1  C5  UNL     1      25.195   1.334  52.190  1.00  0.00     0.059 A 
HETATM    2  C6  UNL     1      25.656   0.139  52.654  1.00  0.00     0.033 A 
HETATM    3  C7  UNL     1      24.814  -0.656  53.391  1.00  0.00     0.026 A 
HETATM    4  C8  UNL     1      23.567  -0.134  53.582  1.00  0.00     0.062 A 
HETATM    5  C9  UNL     1      22.665  -0.938  54.356  1.00  0.00     0.101 C 
HETATM    6  N1  UNL     1      21.929  -1.577  54.999  1.00  0.00    -0.191 NA
HETATM    7  C10 UNL     1      23.049   1.067  53.140  1.00  0.00     0.140 A 
HETATM    8  N2  UNL     1      23.918   1.800  52.424  1.00  0.00    -0.260 NA
ENDROOT
BRANCH   1   9
HETATM    9  C4  UNL     1      25.942   2.277  51.331  1.00  0.00     0.070 C 
HETATM   10  C3  UNL     1      26.036   3.132  50.293  1.00  0.00     0.108 C 
BRANCH  10  11
HETATM   11  O1  UNL     1      27.173   3.863  49.879  1.00  0.00    -0.349 OA
BRANCH  11  12
HETATM   12  C2  UNL     1      26.994   4.850  48.854  1.00  0.00     0.171 C 
HETATM   13  C1  UNL     1      28.361   5.302  48.399  1.00  0.00     0.034 C 
ENDBRANCH  11  12
ENDBRANCH  10  11
BRANCH  10  14
HETATM   14  C11 UNL     1      24.755   3.163  49.661  1.00  0.00     0.206 C 
HETATM   15  C12 UNL     1      23.629   3.063  49.033  1.00  0.00     0.036 C 
HETATM   16  C13 UNL     1      22.208   3.526  48.601  1.00  0.00     0.146 C 
HETATM   17  N3  UNL     1      21.356   2.702  49.399  1.00  0.00    -0.410 N 
HETATM   18  C14 UNL     1      21.370   1.364  49.020  1.00  0.00     0.143 C 
HETATM   19  C15 UNL     1      20.284   3.256  50.079  1.00  0.00     0.144 C 
HETATM   20  C16 UNL     1      20.702   4.313  51.069  1.00  0.00    -0.003 C 
HETATM   21  C17 UNL     1      21.635   5.099  51.642  1.00  0.00     0.067 C 
HETATM   22  C18 UNL     1      23.094   5.095  51.268  1.00  0.00     0.312 A 
HETATM   23  O2  UNL     1      24.324   5.293  51.099  1.00  0.00    -0.120 OA
HETATM   24  N4  UNL     1      23.935   4.113  50.451  1.00  0.00     0.139 N 
HETATM   25  H20 UNL     1      23.113   3.462  50.779  1.00  0.00     0.335 HD
ENDBRANCH  10  14
ENDBRANCH   1   9
TORSDOF 4
ENDMDL
MODEL 2
REMARK VINA RESULT:      -7.5      2.949      5.608
REMARK  4 active torsions:
REMARK  status: ('A' for Active; 'I' for Inactive)
REMARK    1  A    between atoms: C2_2  and  O1_3 
REMARK    2  A    between atoms: O1_3  and  C3_4 
REMARK    3  A    between atoms: C3_4  and  C11_14 
REMARK    4  A    between atoms: C4_5  and  C5_6 
ROOT
HETATM    1  C5  UNL     1      25.280  -0.450  53.684  1.00  0.00     0.059 A 
HETATM    2  C6  UNL     1      25.890  -1.190  52.717  1.00  0.00     0.033 A 
HETATM    3  C7  UNL     1      27.261  -1.219  52.670  1.00  0.00     0.026 A 
HETATM    4  C8  UNL     1      27.876  -0.470  53.632  1.00  0.00     0.062 A 
HETATM    5  C9  UNL     1      29.310  -0.472  53.605  1.00  0.00     0.101 C 
HETATM    6  N1  UNL     1      30.477  -0.453  53.580  1.00  0.00    -0.191 NA
HETATM    7  C10 UNL     1      27.310   0.299  54.631  1.00  0.00     0.140 A 
HETATM    8  N2  UNL     1      25.967   0.286  54.627  1.00  0.00    -0.260 NA
ENDROOT
BRANCH   1   9
HETATM    9  C4  UNL     1      23.823  -0.362  53.918  1.00  0.00     0.070 C 
HETATM   10  C3  UNL     1      22.620   0.229  53.766  1.00  0.00     0.108 C 
BRANCH  10  11
HETATM   11  O1  UNL     1      21.379  -0.195  54.294  1.00  0.00    -0.349 OA
BRANCH  11  12
HETATM   12  C2  UNL     1      21.099  -1.602  54.289  1.00  0.00     0.171 C 
HETATM   13  C1  UNL     1      19.646  -1.786  53.921  1.00  0.00     0.034 C 
ENDBRANCH  11  12
ENDBRANCH  10  11
BRANCH  10  14
HETATM   14  C11 UNL     1      22.826   1.396  52.967  1.00  0.00     0.206 C 
HETATM   15  C12 UNL     1      23.129   2.477  52.325  1.00  0.00     0.036 C 
HETATM   16  C13 UNL     1      22.949   3.562  51.226  1.00  0.00     0.146 C 
HETATM   17  N3  UNL     1      23.961   3.216  50.279  1.00  0.00    -0.410 N 
HETATM   18  C14 UNL     1      25.252   3.456  50.736  1.00  0.00     0.143 C 
HETATM   19  C15 UNL     1      23.665   3.166  48.926  1.00  0.00     0.144 C 
HETATM   20  C16 UNL     1      22.585   2.166  48.600  1.00  0.00    -0.003 C 
HETATM   21  C17 UNL     1      21.648   1.270  48.967  1.00  0.00     0.067 C 
HETATM   22  C18 UNL     1      21.340   0.902  50.395  1.00  0.00     0.312 A 
HETATM   23  O2  UNL     1      20.888   0.476  51.489  1.00  0.00    -0.120 OA
HETATM   24  N4  UNL     1      22.097   1.155  51.700  1.00  0.00     0.139 N 
HETATM   25  H20 UNL     1      22.913   1.217  50.968  1.00  0.00     0.335 HD
ENDBRANCH  10  14
ENDBRANCH   1   9
TORSDOF 4
ENDMDL
MODEL 3
REMARK VINA RESULT:      -7.3      2.944      5.519
REMARK  4 active torsions:
REMARK  status: ('A' for Active; 'I' for Inactive)
REMARK    1  A    between atoms: C2_2  and  O1_3 
REMARK    2  A    between atoms: O1_3  and  C3_4 
REMARK    3  A    between atoms: C3_4  and  C11_14 
REMARK    4  A    between atoms: C4_5  and  C5_6 
ROOT
HETATM    1  C5  UNL     1      24.386   0.107  53.139  1.00  0.00     0.059 A 
HETATM    2  C6  UNL     1      25.047   0.747  52.134  1.00  0.00     0.033 A 
HETATM    3  C7  UNL     1      26.405   0.913  52.234  1.00  0.00     0.026 A 
HETATM    4  C8  UNL     1      26.955   0.402  53.374  1.00  0.00     0.062 A 
HETATM    5  C9  UNL     1      28.374   0.568  53.512  1.00  0.00     0.101 C 
HETATM    6  N1  UNL     1      29.525   0.713  53.643  1.00  0.00    -0.191 NA
HETATM    7  C10 UNL     1      26.337  -0.251  54.422  1.00  0.00     0.140 A 
HETATM    8  N2  UNL     1      25.009  -0.386  54.267  1.00  0.00    -0.260 NA
ENDROOT
BRANCH   1   9
HETATM    9  C4  UNL     1      22.943  -0.214  53.161  1.00  0.00     0.070 C 
HETATM   10  C3  UNL     1      21.644   0.104  52.990  1.00  0.00     0.108 C 
BRANCH  10  11
HETATM   11  O1  UNL     1      20.520  -0.730  53.187  1.00  0.00    -0.349 OA
BRANCH  11  12
HETATM   12  C2  UNL     1      19.227  -0.190  52.882  1.00  0.00     0.171 C 
HETATM   13  C1  UNL     1      18.196  -1.252  53.180  1.00  0.00     0.034 C 
ENDBRANCH  11  12
ENDBRANCH  10  11
BRANCH  10  14
HETATM   14  C11 UNL     1      21.600   1.471  52.575  1.00  0.00     0.206 C 
HETATM   15  C12 UNL     1      21.593   2.741  52.336  1.00  0.00     0.036 C 
HETATM   16  C13 UNL     1      21.455   4.008  51.444  1.00  0.00     0.146 C 
HETATM   17  N3  UNL     1      22.814   4.404  51.254  1.00  0.00    -0.410 N 
HETATM   18  C14 UNL     1      23.410   4.906  52.406  1.00  0.00     0.143 C 
HETATM   19  C15 UNL     1      23.275   4.739  49.991  1.00  0.00     0.144 C 
HETATM   20  C16 UNL     1      23.144   3.609  49.002  1.00  0.00    -0.003 C 
HETATM   21  C17 UNL     1      22.733   2.371  48.662  1.00  0.00     0.067 C 
HETATM   22  C18 UNL     1      22.005   1.435  49.591  1.00  0.00     0.312 A 
HETATM   23  O2  UNL     1      21.363   0.517  50.162  1.00  0.00    -0.120 OA
HETATM   24  N4  UNL     1      21.801   1.456  51.107  1.00  0.00     0.139 N 
HETATM   25  H20 UNL     1      22.713   2.060  51.010  1.00  0.00     0.335 HD
ENDBRANCH  10  14
ENDBRANCH   1   9
TORSDOF 4
ENDMDL
MODEL 4
REMARK VINA RESULT:      -7.2      2.637      4.680
REMARK  4 active torsions:
REMARK  status: ('A' for Active; 'I' for Inactive)
REMARK    1  A    between atoms: C2_2  and  O1_3 
REMARK    2  A    between atoms: O1_3  and  C3_4 
REMARK    3  A    between atoms: C3_4  and  C11_14 
REMARK    4  A    between atoms: C4_5  and  C5_6 
ROOT
HETATM    1  C5  UNL     1      25.304   0.056  53.261  1.00  0.00     0.059 A 
HETATM    2  C6  UNL     1      25.848  -1.016  52.620  1.00  0.00     0.033 A 
HETATM    3  C7  UNL     1      27.185  -1.279  52.784  1.00  0.00     0.026 A 
HETATM    4  C8  UNL     1      27.838  -0.399  53.599  1.00  0.00     0.062 A 
HETATM    5  C9  UNL     1      29.240  -0.642  53.784  1.00  0.00     0.101 C 
HETATM    6  N1  UNL     1      30.385  -0.821  53.927  1.00  0.00    -0.191 NA
HETATM    7  C10 UNL     1      27.341   0.701  54.269  1.00  0.00     0.140 A 
HETATM    8  N2  UNL     1      26.028   0.906  54.072  1.00  0.00    -0.260 NA
ENDROOT
BRANCH   1   9
HETATM    9  C4  UNL     1      23.877   0.442  53.247  1.00  0.00     0.070 C 
HETATM   10  C3  UNL     1      22.812   1.065  52.705  1.00  0.00     0.108 C 
BRANCH  10  11
HETATM   11  O1  UNL     1      21.489   1.098  53.202  1.00  0.00    -0.349 OA
BRANCH  11  12
HETATM   12  C2  UNL     1      20.470   0.452  52.426  1.00  0.00     0.171 C 
HETATM   13  C1  UNL     1      19.662  -0.423  53.355  1.00  0.00     0.034 C 
ENDBRANCH  11  12
ENDBRANCH  10  11
BRANCH  10  14
HETATM   14  C11 UNL     1      23.268   1.713  51.516  1.00  0.00     0.206 C 
HETATM   15  C12 UNL     1      23.627   2.187  50.367  1.00  0.00     0.036 C 
HETATM   16  C13 UNL     1      24.253   3.239  49.408  1.00  0.00     0.146 C 
HETATM   17  N3  UNL     1      23.102   3.861  48.834  1.00  0.00    -0.410 N 
HETATM   18  C14 UNL     1      22.403   3.031  47.963  1.00  0.00     0.143 C 
HETATM   19  C15 UNL     1      23.023   5.240  48.747  1.00  0.00     0.144 C 
HETATM   20  C16 UNL     1      23.097   5.917  50.092  1.00  0.00    -0.003 C 
HETATM   21  C17 UNL     1      23.268   5.884  51.429  1.00  0.00     0.067 C 
HETATM   22  C18 UNL     1      23.532   4.629  52.220  1.00  0.00     0.312 A 
HETATM   23  O2  UNL     1      23.797   3.739  53.067  1.00  0.00    -0.120 OA
HETATM   24  N4  UNL     1      23.397   3.149  51.859  1.00  0.00     0.139 N 
HETATM   25  H20 UNL     1      22.698   3.604  51.145  1.00  0.00     0.335 HD
ENDBRANCH  10  14
ENDBRANCH   1   9
TORSDOF 4
ENDMDL
MODEL 5
REMARK VINA RESULT:      -7.2      2.328      4.410
REMARK  4 active torsions:
REMARK  status: ('A' for Active; 'I' for Inactive)
REMARK    1  A    between atoms: C2_2  and  O1_3 
REMARK    2  A    between atoms: O1_3  and  C3_4 
REMARK    3  A    between atoms: C3_4  and  C11_14 
REMARK    4  A    between atoms: C4_5  and  C5_6 
ROOT
HETATM    1  C5  UNL     1      22.917   0.641  52.966  1.00  0.00     0.059 A 
HETATM    2  C6  UNL     1      22.145   0.741  51.848  1.00  0.00     0.033 A 
HETATM    3  C7  UNL     1      20.850   0.290  51.894  1.00  0.00     0.026 A 
HETATM    4  C8  UNL     1      20.474  -0.228  53.100  1.00  0.00     0.062 A 
HETATM    5  C9  UNL     1      19.126  -0.716  53.178  1.00  0.00     0.101 C 
HETATM    6  N1  UNL     1      18.038  -1.132  53.247  1.00  0.00    -0.191 NA
HETATM    7  C10 UNL     1      21.211  -0.356  54.261  1.00  0.00     0.140 A 
HETATM    8  N2  UNL     1      22.469   0.104  54.155  1.00  0.00    -0.260 NA
ENDROOT
BRANCH   1   9
HETATM    9  C4  UNL     1      24.303   1.135  53.109  1.00  0.00     0.070 C 
HETATM   10  C3  UNL     1      25.289   2.021  52.861  1.00  0.00     0.108 C 
BRANCH  10  11
HETATM   11  O1  UNL     1      26.619   1.984  53.337  1.00  0.00    -0.349 OA
BRANCH  11  12
HETATM   12  C2  UNL     1      27.319   0.735  53.264  1.00  0.00     0.171 C 
HETATM   13  C1  UNL     1      27.595   0.273  54.675  1.00  0.00     0.034 C 
ENDBRANCH  11  12
ENDBRANCH  10  11
BRANCH  10  14
HETATM   14  C11 UNL     1      24.742   3.024  52.002  1.00  0.00     0.206 C 
HETATM   15  C12 UNL     1      24.174   3.977  51.338  1.00  0.00     0.036 C 
HETATM   16  C13 UNL     1      23.892   4.848  50.081  1.00  0.00     0.146 C 
HETATM   17  N3  UNL     1      24.620   6.045  50.362  1.00  0.00    -0.410 N 
HETATM   18  C14 UNL     1      24.064   6.801  51.389  1.00  0.00     0.143 C 
HETATM   19  C15 UNL     1      25.430   6.615  49.394  1.00  0.00     0.144 C 
HETATM   20  C16 UNL     1      26.528   5.691  48.931  1.00  0.00    -0.003 C 
HETATM   21  C17 UNL     1      27.146   4.493  48.925  1.00  0.00     0.067 C 
HETATM   22  C18 UNL     1      26.690   3.298  49.721  1.00  0.00     0.312 A 
HETATM   23  O2  UNL     1      26.478   2.179  50.252  1.00  0.00    -0.120 OA
HETATM   24  N4  UNL     1      25.700   3.162  50.879  1.00  0.00     0.139 N 
HETATM   25  H20 UNL     1      25.985   4.219  50.970  1.00  0.00     0.335 HD
ENDBRANCH  10  14
ENDBRANCH   1   9
TORSDOF 4
ENDMDL
MODEL 6
REMARK VINA RESULT:      -7.2      2.832      4.693
REMARK  4 active torsions:
REMARK  status: ('A' for Active; 'I' for Inactive)
REMARK    1  A    between atoms: C2_2  and  O1_3 
REMARK    2  A    between atoms: O1_3  and  C3_4 
REMARK    3  A    between atoms: C3_4  and  C11_14 
REMARK    4  A    between atoms: C4_5  and  C5_6 
ROOT
HETATM    1  C5  UNL     1      26.624   1.484  52.546  1.00  0.00     0.059 A 
HETATM    2  C6  UNL     1      26.525   0.154  52.271  1.00  0.00     0.033 A 
HETATM    3  C7  UNL     1      27.538  -0.683  52.665  1.00  0.00     0.026 A 
HETATM    4  C8  UNL     1      28.568  -0.059  53.309  1.00  0.00     0.062 A 
HETATM    5  C9  UNL     1      29.648  -0.907  53.727  1.00  0.00     0.101 C 
HETATM    6  N1  UNL     1      30.539  -1.585  54.056  1.00  0.00    -0.191 NA
HETATM    7  C10 UNL     1      28.723   1.279  53.612  1.00  0.00     0.140 A 
HETATM    8  N2  UNL     1      27.699   2.047  53.203  1.00  0.00    -0.260 NA
ENDROOT
BRANCH   1   9
HETATM    9  C4  UNL     1      25.600   2.509  52.254  1.00  0.00     0.070 C 
HETATM   10  C3  UNL     1      24.323   2.928  52.146  1.00  0.00     0.108 C 
BRANCH  10  11
HETATM   11  O1  UNL     1      23.866   4.212  51.772  1.00  0.00    -0.349 OA
BRANCH  11  12
HETATM   12  C2  UNL     1      22.711   4.731  52.447  1.00  0.00     0.171 C 
HETATM   13  C1  UNL     1      21.712   5.156  51.398  1.00  0.00     0.034 C 
ENDBRANCH  11  12
ENDBRANCH  10  11
BRANCH  10  14
HETATM   14  C11 UNL     1      23.490   1.814  52.474  1.00  0.00     0.206 C 
HETATM   15  C12 UNL     1      22.767   0.833  52.908  1.00  0.00     0.036 C 
HETATM   16  C13 UNL     1      21.801  -0.378  52.768  1.00  0.00     0.146 C 
HETATM   17  N3  UNL     1      20.548   0.175  53.172  1.00  0.00    -0.410 N 
HETATM   18  C14 UNL     1      20.483   0.461  54.532  1.00  0.00     0.143 C 
HETATM   19  C15 UNL     1      19.407  -0.055  52.422  1.00  0.00     0.144 C 
HETATM   20  C16 UNL     1      19.523   0.455  51.008  1.00  0.00    -0.003 C 
HETATM   21  C17 UNL     1      20.228   1.008  50.001  1.00  0.00     0.067 C 
HETATM   22  C18 UNL     1      21.672   1.424  50.104  1.00  0.00     0.312 A 
HETATM   23  O2  UNL     1      22.860   1.803  49.945  1.00  0.00    -0.120 OA
HETATM   24  N4  UNL     1      22.593   1.621  51.309  1.00  0.00     0.139 N 
HETATM   25  H20 UNL     1      21.607   1.754  51.775  1.00  0.00     0.335 HD
ENDBRANCH  10  14
ENDBRANCH   1   9
TORSDOF 4
ENDMDL
MODEL 7
REMARK VINA RESULT:      -7.2      2.320      3.609
REMARK  4 active torsions:
REMARK  status: ('A' for Active; 'I' for Inactive)
REMARK    1  A    between atoms: C2_2  and  O1_3 
REMARK    2  A    between atoms: O1_3  and  C3_4 
REMARK    3  A    between atoms: C3_4  and  C11_14 
REMARK    4  A    between atoms: C4_5  and  C5_6 
ROOT
HETATM    1  C5  UNL     1      22.305  -0.229  53.715  1.00  0.00     0.059 A 
HETATM    2  C6  UNL     1      21.813  -1.372  54.270  1.00  0.00     0.033 A 
HETATM    3  C7  UNL     1      20.479  -1.656  54.130  1.00  0.00     0.026 A 
HETATM    4  C8  UNL     1      19.772  -0.723  53.426  1.00  0.00     0.062 A 
HETATM    5  C9  UNL     1      18.371  -0.989  53.269  1.00  0.00     0.101 C 
HETATM    6  N1  UNL     1      17.227  -1.186  53.150  1.00  0.00    -0.191 NA
HETATM    7  C10 UNL     1      20.216   0.448  52.845  1.00  0.00     0.140 A 
HETATM    8  N2  UNL     1      21.530   0.672  53.014  1.00  0.00    -0.260 NA
ENDROOT
BRANCH   1   9
HETATM    9  C4  UNL     1      23.721   0.195  53.714  1.00  0.00     0.070 C 
HETATM   10  C3  UNL     1      24.778   0.833  53.173  1.00  0.00     0.108 C 
BRANCH  10  11
HETATM   11  O1  UNL     1      26.090   0.920  53.692  1.00  0.00    -0.349 OA
BRANCH  11  12
HETATM   12  C2  UNL     1      27.174   0.544  52.832  1.00  0.00     0.171 C 
HETATM   13  C1  UNL     1      27.183  -0.963  52.728  1.00  0.00     0.034 C 
ENDBRANCH  11  12
ENDBRANCH  10  11
BRANCH  10  14
HETATM   14  C11 UNL     1      24.333   1.412  51.945  1.00  0.00     0.206 C 
HETATM   15  C12 UNL     1      23.924   1.802  50.781  1.00  0.00     0.036 C 
HETATM   16  C13 UNL     1      23.471   2.848  49.723  1.00  0.00     0.146 C 
HETATM   17  N3  UNL     1      22.054   2.671  49.697  1.00  0.00    -0.410 N 
HETATM   18  C14 UNL     1      21.658   1.466  49.125  1.00  0.00     0.143 C 
HETATM   19  C15 UNL     1      21.211   3.769  49.738  1.00  0.00     0.144 C 
HETATM   20  C16 UNL     1      21.393   4.600  50.982  1.00  0.00    -0.003 C 
HETATM   21  C17 UNL     1      22.032   4.887  52.134  1.00  0.00     0.067 C 
HETATM   22  C18 UNL     1      23.204   4.109  52.671  1.00  0.00     0.312 A 
HETATM   23  O2  UNL     1      24.200   3.644  53.283  1.00  0.00    -0.120 OA
HETATM   24  N4  UNL     1      23.775   2.739  52.300  1.00  0.00     0.139 N 
HETATM   25  H20 UNL     1      22.738   2.634  51.955  1.00  0.00     0.335 HD
ENDBRANCH  10  14
ENDBRANCH   1   9
TORSDOF 4
ENDMDL
MODEL 8
REMARK VINA RESULT:      -7.0      2.874      5.564
REMARK  4 active torsions:
REMARK  status: ('A' for Active; 'I' for Inactive)
REMARK    1  A    between atoms: C2_2  and  O1_3 
REMARK    2  A    between atoms: O1_3  and  C3_4 
REMARK    3  A    between atoms: C3_4  and  C11_14 
REMARK    4  A    between atoms: C4_5  and  C5_6 
ROOT
HETATM    1  C5  UNL     1      21.571   0.048  53.077  1.00  0.00     0.059 A 
HETATM    2  C6  UNL     1      21.783  -0.729  54.176  1.00  0.00     0.033 A 
HETATM    3  C7  UNL     1      23.071  -0.949  54.594  1.00  0.00     0.026 A 
HETATM    4  C8  UNL     1      24.026  -0.343  53.828  1.00  0.00     0.062 A 
HETATM    5  C9  UNL     1      25.385  -0.562  54.235  1.00  0.00     0.101 C 
HETATM    6  N1  UNL     1      26.494  -0.747  54.547  1.00  0.00    -0.191 NA
HETATM    7  C10 UNL     1      23.870   0.449  52.708  1.00  0.00     0.140 A 
HETATM    8  N2  UNL     1      22.588   0.631  52.349  1.00  0.00    -0.260 NA
ENDROOT
BRANCH   1   9
HETATM    9  C4  UNL     1      20.254   0.440  52.533  1.00  0.00     0.070 C 
HETATM   10  C3  UNL     1      19.412   1.319  51.952  1.00  0.00     0.108 C 
BRANCH  10  11
HETATM   11  O1  UNL     1      18.055   1.117  51.613  1.00  0.00    -0.349 OA
BRANCH  11  12
HETATM   12  C2  UNL     1      17.709  -0.107  50.950  1.00  0.00     0.171 C 
HETATM   13  C1  UNL     1      16.791  -0.886  51.862  1.00  0.00     0.034 C 
ENDBRANCH  11  12
ENDBRANCH  10  11
BRANCH  10  14
HETATM   14  C11 UNL     1      20.149   2.526  51.744  1.00  0.00     0.206 C 
HETATM   15  C12 UNL     1      20.810   3.636  51.699  1.00  0.00     0.036 C 
HETATM   16  C13 UNL     1      21.589   4.787  51.000  1.00  0.00     0.146 C 
HETATM   17  N3  UNL     1      22.948   4.476  51.311  1.00  0.00    -0.410 N 
HETATM   18  C14 UNL     1      23.265   4.664  52.653  1.00  0.00     0.143 C 
HETATM   19  C15 UNL     1      23.917   4.511  50.322  1.00  0.00     0.144 C 
HETATM   20  C16 UNL     1      23.635   3.554  49.192  1.00  0.00    -0.003 C 
HETATM   21  C17 UNL     1      22.848   2.657  48.566  1.00  0.00     0.067 C 
HETATM   22  C18 UNL     1      21.500   2.213  49.071  1.00  0.00     0.312 A 
HETATM   23  O2  UNL     1      20.355   1.733  49.271  1.00  0.00    -0.120 OA
HETATM   24  N4  UNL     1      20.816   2.374  50.430  1.00  0.00     0.139 N 
HETATM   25  H20 UNL     1      21.873   2.462  50.715  1.00  0.00     0.335 HD
ENDBRANCH  10  14
ENDBRANCH   1   9
TORSDOF 4
ENDMDL
MODEL 9
REMARK VINA RESULT:      -6.9      2.023      3.023
REMARK  4 active torsions:
REMARK  status: ('A' for Active; 'I' for Inactive)
REMARK    1  A    between atoms: C2_2  and  O1_3 
REMARK    2  A    between atoms: O1_3  and  C3_4 
REMARK    3  A    between atoms: C3_4  and  C11_14 
REMARK    4  A    between atoms: C4_5  and  C5_6 
ROOT
HETATM    1  C5  UNL     1      26.140   1.847  51.541  1.00  0.00     0.059 A 
HETATM    2  C6  UNL     1      24.890   1.343  51.739  1.00  0.00     0.033 A 
HETATM    3  C7  UNL     1      24.657   0.560  52.842  1.00  0.00     0.026 A 
HETATM    4  C8  UNL     1      25.749   0.369  53.640  1.00  0.00     0.062 A 
HETATM    5  C9  UNL     1      25.540  -0.452  54.798  1.00  0.00     0.101 C 
HETATM    6  N1  UNL     1      25.385  -1.133  55.733  1.00  0.00    -0.191 NA
HETATM    7  C10 UNL     1      27.034   0.852  53.488  1.00  0.00     0.140 A 
HETATM    8  N2  UNL     1      27.199   1.612  52.393  1.00  0.00    -0.260 NA
ENDROOT
BRANCH   1   9
HETATM    9  C4  UNL     1      26.544   2.757  50.449  1.00  0.00     0.070 C 
HETATM   10  C3  UNL     1      26.415   3.885  49.722  1.00  0.00     0.108 C 
BRANCH  10  11
HETATM   11  O1  UNL     1      27.206   4.300  48.626  1.00  0.00    -0.349 OA
BRANCH  11  12
HETATM   12  C2  UNL     1      27.567   5.686  48.551  1.00  0.00     0.171 C 
HETATM   13  C1  UNL     1      29.041   5.767  48.237  1.00  0.00     0.034 C 
ENDBRANCH  11  12
ENDBRANCH  10  11
BRANCH  10  14
HETATM   14  C11 UNL     1      25.301   4.603  50.259  1.00  0.00     0.206 C 
HETATM   15  C12 UNL     1      24.390   5.342  50.802  1.00  0.00     0.036 C 
HETATM   16  C13 UNL     1      22.932   5.770  51.131  1.00  0.00     0.146 C 
HETATM   17  N3  UNL     1      22.734   6.891  50.268  1.00  0.00    -0.410 N 
HETATM   18  C14 UNL     1      23.472   8.011  50.639  1.00  0.00     0.143 C 
HETATM   19  C15 UNL     1      21.577   6.998  49.515  1.00  0.00     0.144 C 
HETATM   20  C16 UNL     1      21.387   5.843  48.565  1.00  0.00    -0.003 C 
HETATM   21  C17 UNL     1      21.752   4.645  48.067  1.00  0.00     0.067 C 
HETATM   22  C18 UNL     1      22.940   3.853  48.547  1.00  0.00     0.312 A 
HETATM   23  O2  UNL     1      23.837   3.011  48.806  1.00  0.00    -0.120 OA
HETATM   24  N4  UNL     1      24.138   4.236  49.416  1.00  0.00     0.139 N 
HETATM   25  H20 UNL     1      23.840   5.218  49.025  1.00  0.00     0.335 HD
ENDBRANCH  10  14
ENDBRANCH   1   9
TORSDOF 4
ENDMDL
