MODEL 1
REMARK VINA RESULT:      -7.8      0.000      0.000
REMARK  2 active torsions:
REMARK  status: ('A' for Active; 'I' for Inactive)
REMARK    1  A    between atoms: C7_10  and  N2_11 
REMARK    2  A    between atoms: N2_11  and  C8_12 
ROOT
HETATM    1  O1  UNL     1      28.281   2.357  52.333  1.00  0.00    -0.294 OA
HETATM    2  C1  UNL     1      27.825   1.990  53.413  1.00  0.00     0.165 C 
HETATM    3  C2  UNL     1      28.720   1.466  54.512  1.00  0.00     0.254 C 
HETATM    4  O2  UNL     1      27.888   0.611  55.288  1.00  0.00    -0.347 OA
HETATM    5  C3  UNL     1      26.656   0.461  54.675  1.00  0.00     0.059 C 
HETATM    6  C4  UNL     1      25.635  -0.421  54.451  1.00  0.00     0.017 C 
HETATM    7  C5  UNL     1      24.938  -0.608  53.126  1.00  0.00     0.055 C 
HETATM    8  C6  UNL     1      23.563   0.044  53.144  1.00  0.00     0.101 C 
HETATM    9  N1  UNL     1      23.161   1.298  53.106  1.00  0.00    -0.246 NA
HETATM   10  C7  UNL     1      24.225   2.270  53.098  1.00  0.00     0.131 C 
HETATM   11  C14 UNL     1      25.374   1.638  53.127  1.00  0.00    -0.015 C 
HETATM   12  C15 UNL     1      25.705   0.434  52.228  1.00  0.00     0.053 C 
HETATM   13  C16 UNL     1      26.526   1.877  54.073  1.00  0.00     0.147 C 
ENDROOT
BRANCH  10  14
HETATM   14  N2  UNL     1      24.315   3.678  53.101  1.00  0.00    -0.341 N 
HETATM   15  H6  UNL     1      24.558   4.301  53.891  1.00  0.00     0.167 HD
BRANCH  14  16
HETATM   16  C8  UNL     1      24.010   4.204  51.816  1.00  0.00     0.033 A 
HETATM   17  C9  UNL     1      22.822   4.914  51.731  1.00  0.00     0.031 A 
HETATM   18  C10 UNL     1      22.491   5.418  50.473  1.00  0.00     0.021 A 
HETATM   19  C11 UNL     1      23.276   5.242  49.335  1.00  0.00     0.011 A 
HETATM   20 BR1  UNL     1      22.719   5.984  47.665  1.00  0.00    -0.051 Br
HETATM   21  C12 UNL     1      24.455   4.523  49.481  1.00  0.00     0.021 A 
HETATM   22  C13 UNL     1      24.825   4.002  50.721  1.00  0.00     0.031 A 
ENDBRANCH  14  16
ENDBRANCH  10  14
TORSDOF 2
ENDMDL
MODEL 2
REMARK VINA RESULT:      -7.7      2.845      3.901
REMARK  2 active torsions:
REMARK  status: ('A' for Active; 'I' for Inactive)
REMARK    1  A    between atoms: C7_10  and  N2_11 
REMARK    2  A    between atoms: N2_11  and  C8_12 
ROOT
HETATM    1  O1  UNL     1      22.312   2.348  52.652  1.00  0.00    -0.294 OA
HETATM    2  C1  UNL     1      23.001   1.345  52.488  1.00  0.00     0.165 C 
HETATM    3  C2  UNL     1      22.490  -0.032  52.845  1.00  0.00     0.254 C 
HETATM    4  O2  UNL     1      23.657  -0.799  53.115  1.00  0.00    -0.347 OA
HETATM    5  C3  UNL     1      24.777   0.016  53.104  1.00  0.00     0.059 C 
HETATM    6  C4  UNL     1      26.000   0.218  53.680  1.00  0.00     0.017 C 
HETATM    7  C5  UNL     1      26.542   1.563  54.095  1.00  0.00     0.055 C 
HETATM    8  C6  UNL     1      27.599   2.045  53.111  1.00  0.00     0.101 C 
HETATM    9  N1  UNL     1      27.538   2.518  51.884  1.00  0.00    -0.246 NA
HETATM   10  C7  UNL     1      26.213   2.548  51.317  1.00  0.00     0.131 C 
HETATM   11  C14 UNL     1      25.365   2.082  52.202  1.00  0.00    -0.015 C 
HETATM   12  C15 UNL     1      25.355   2.511  53.679  1.00  0.00     0.053 C 
HETATM   13  C16 UNL     1      24.333   0.998  51.998  1.00  0.00     0.147 C 
ENDROOT
BRANCH  10  14
HETATM   14  N2  UNL     1      25.647   2.912  50.078  1.00  0.00    -0.341 N 
HETATM   15  H6  UNL     1      24.984   2.372  49.495  1.00  0.00     0.167 HD
BRANCH  14  16
HETATM   16  C8  UNL     1      26.113   4.191  49.668  1.00  0.00     0.033 A 
HETATM   17  C9  UNL     1      25.344   5.266  50.089  1.00  0.00     0.031 A 
HETATM   18  C10 UNL     1      25.769   6.529  49.677  1.00  0.00     0.021 A 
HETATM   19  C11 UNL     1      26.896   6.750  48.886  1.00  0.00     0.011 A 
HETATM   20 BR1  UNL     1      27.381   8.529  48.388  1.00  0.00    -0.051 Br
HETATM   21  C12 UNL     1      27.627   5.635  48.495  1.00  0.00     0.021 A 
HETATM   22  C13 UNL     1      27.237   4.354  48.885  1.00  0.00     0.031 A 
ENDBRANCH  14  16
ENDBRANCH  10  14
TORSDOF 2
ENDMDL
MODEL 3
REMARK VINA RESULT:      -7.4      3.706      5.938
REMARK  2 active torsions:
REMARK  status: ('A' for Active; 'I' for Inactive)
REMARK    1  A    between atoms: C7_10  and  N2_11 
REMARK    2  A    between atoms: N2_11  and  C8_12 
ROOT
HETATM    1  O1  UNL     1      22.941  -0.787  53.150  1.00  0.00    -0.294 OA
HETATM    2  C1  UNL     1      22.221   0.206  53.206  1.00  0.00     0.165 C 
HETATM    3  C2  UNL     1      20.730   0.090  53.423  1.00  0.00     0.254 C 
HETATM    4  O2  UNL     1      20.181   1.266  52.839  1.00  0.00    -0.347 OA
HETATM    5  C3  UNL     1      21.168   1.974  52.174  1.00  0.00     0.059 C 
HETATM    6  C4  UNL     1      21.416   2.765  51.087  1.00  0.00     0.017 C 
HETATM    7  C5  UNL     1      22.624   2.641  50.192  1.00  0.00     0.055 C 
HETATM    8  C6  UNL     1      23.621   3.756  50.474  1.00  0.00     0.101 C 
HETATM    9  N1  UNL     1      24.457   3.987  51.465  1.00  0.00    -0.246 NA
HETATM   10  C7  UNL     1      24.397   3.028  52.538  1.00  0.00     0.131 C 
HETATM   11  C14 UNL     1      23.491   2.125  52.246  1.00  0.00    -0.015 C 
HETATM   12  C15 UNL     1      23.384   1.441  50.873  1.00  0.00     0.053 C 
HETATM   13  C16 UNL     1      22.349   1.659  53.118  1.00  0.00     0.147 C 
ENDROOT
BRANCH  10  14
HETATM   14  N2  UNL     1      25.030   2.859  53.787  1.00  0.00    -0.341 N 
HETATM   15  H6  UNL     1      24.781   3.292  54.693  1.00  0.00     0.167 HD
BRANCH  14  16
HETATM   16  C8  UNL     1      26.135   1.972  53.675  1.00  0.00     0.033 A 
HETATM   17  C9  UNL     1      25.943   0.712  54.222  1.00  0.00     0.031 A 
HETATM   18  C10 UNL     1      27.023  -0.168  54.146  1.00  0.00     0.021 A 
HETATM   19  C11 UNL     1      28.247   0.156  53.563  1.00  0.00     0.011 A 
HETATM   20 BR1  UNL     1      29.654  -1.136  53.514  1.00  0.00    -0.051 Br
HETATM   21  C12 UNL     1      28.381   1.432  53.031  1.00  0.00     0.021 A 
HETATM   22  C13 UNL     1      27.326   2.342  53.085  1.00  0.00     0.031 A 
ENDBRANCH  14  16
ENDBRANCH  10  14
TORSDOF 2
ENDMDL
MODEL 4
REMARK VINA RESULT:      -7.2      2.617      2.792
REMARK  2 active torsions:
REMARK  status: ('A' for Active; 'I' for Inactive)
REMARK    1  A    between atoms: C7_10  and  N2_11 
REMARK    2  A    between atoms: N2_11  and  C8_12 
ROOT
HETATM    1  O1  UNL     1      27.156   2.055  51.153  1.00  0.00    -0.294 OA
HETATM    2  C1  UNL     1      27.038   2.114  52.375  1.00  0.00     0.165 C 
HETATM    3  C2  UNL     1      28.221   2.398  53.270  1.00  0.00     0.254 C 
HETATM    4  O2  UNL     1      27.888   1.805  54.520  1.00  0.00    -0.347 OA
HETATM    5  C3  UNL     1      26.715   1.078  54.404  1.00  0.00     0.059 C 
HETATM    6  C4  UNL     1      26.063  -0.041  54.842  1.00  0.00     0.017 C 
HETATM    7  C5  UNL     1      25.284  -0.983  53.957  1.00  0.00     0.055 C 
HETATM    8  C6  UNL     1      23.787  -0.776  54.135  1.00  0.00     0.101 C 
HETATM    9  N1  UNL     1      22.957   0.170  53.751  1.00  0.00    -0.246 NA
HETATM   10  C7  UNL     1      23.580   1.273  53.062  1.00  0.00     0.131 C 
HETATM   11  C14 UNL     1      24.869   1.046  52.983  1.00  0.00    -0.015 C 
HETATM   12  C15 UNL     1      25.471  -0.302  52.549  1.00  0.00     0.053 C 
HETATM   13  C16 UNL     1      25.988   1.979  53.382  1.00  0.00     0.147 C 
ENDROOT
BRANCH  10  14
HETATM   14  N2  UNL     1      23.152   2.498  52.509  1.00  0.00    -0.341 N 
HETATM   15  H6  UNL     1      23.603   3.425  52.586  1.00  0.00     0.167 HD
BRANCH  14  16
HETATM   16  C8  UNL     1      21.943   2.325  51.781  1.00  0.00     0.033 A 
HETATM   17  C9  UNL     1      20.826   2.936  52.331  1.00  0.00     0.031 A 
HETATM   18  C10 UNL     1      19.623   2.759  51.647  1.00  0.00     0.021 A 
HETATM   19  C11 UNL     1      19.500   2.018  50.473  1.00  0.00     0.011 A 
HETATM   20 BR1  UNL     1      17.798   1.849  49.623  1.00  0.00    -0.051 Br
HETATM   21  C12 UNL     1      20.653   1.429  49.968  1.00  0.00     0.021 A 
HETATM   22  C13 UNL     1      21.876   1.582  50.621  1.00  0.00     0.031 A 
ENDBRANCH  14  16
ENDBRANCH  10  14
TORSDOF 2
ENDMDL
MODEL 5
REMARK VINA RESULT:      -7.0      3.186      4.733
REMARK  2 active torsions:
REMARK  status: ('A' for Active; 'I' for Inactive)
REMARK    1  A    between atoms: C7_10  and  N2_11 
REMARK    2  A    between atoms: N2_11  and  C8_12 
ROOT
HETATM    1  O1  UNL     1      26.250  -0.108  55.428  1.00  0.00    -0.294 OA
HETATM    2  C1  UNL     1      26.459  -0.286  54.231  1.00  0.00     0.165 C 
HETATM    3  C2  UNL     1      27.796  -0.779  53.726  1.00  0.00     0.254 C 
HETATM    4  O2  UNL     1      27.886  -0.294  52.391  1.00  0.00    -0.347 OA
HETATM    5  C3  UNL     1      26.823   0.551  52.118  1.00  0.00     0.059 C 
HETATM    6  C4  UNL     1      26.456   1.674  51.431  1.00  0.00     0.017 C 
HETATM    7  C5  UNL     1      25.590   2.777  51.987  1.00  0.00     0.055 C 
HETATM    8  C6  UNL     1      24.182   2.698  51.414  1.00  0.00     0.101 C 
HETATM    9  N1  UNL     1      23.169   1.883  51.624  1.00  0.00    -0.246 NA
HETATM   10  C7  UNL     1      23.443   0.806  52.542  1.00  0.00     0.131 C 
HETATM   11  C14 UNL     1      24.682   0.914  52.960  1.00  0.00    -0.015 C 
HETATM   12  C15 UNL     1      25.306   2.236  53.439  1.00  0.00     0.053 C 
HETATM   13  C16 UNL     1      25.744  -0.160  52.963  1.00  0.00     0.147 C 
ENDROOT
BRANCH  10  14
HETATM   14  N2  UNL     1      22.736  -0.305  53.046  1.00  0.00    -0.341 N 
HETATM   15  H6  UNL     1      23.102  -1.096  53.602  1.00  0.00     0.167 HD
BRANCH  14  16
HETATM   16  C8  UNL     1      21.363  -0.232  52.684  1.00  0.00     0.033 A 
HETATM   17  C9  UNL     1      20.471  -0.685  53.645  1.00  0.00     0.031 A 
HETATM   18  C10 UNL     1      19.119  -0.647  53.301  1.00  0.00     0.021 A 
HETATM   19  C11 UNL     1      18.643  -0.189  52.074  1.00  0.00     0.011 A 
HETATM   20 BR1  UNL     1      16.766  -0.181  51.719  1.00  0.00    -0.051 Br
HETATM   21  C12 UNL     1      19.583   0.253  51.151  1.00  0.00     0.021 A 
HETATM   22  C13 UNL     1      20.945   0.232  51.455  1.00  0.00     0.031 A 
ENDBRANCH  14  16
ENDBRANCH  10  14
TORSDOF 2
ENDMDL
MODEL 6
REMARK VINA RESULT:      -6.9      3.195      4.485
REMARK  2 active torsions:
REMARK  status: ('A' for Active; 'I' for Inactive)
REMARK    1  A    between atoms: C7_10  and  N2_11 
REMARK    2  A    between atoms: N2_11  and  C8_12 
ROOT
HETATM    1  O1  UNL     1      23.753  -0.846  53.110  1.00  0.00    -0.294 OA
HETATM    2  C1  UNL     1      22.682  -0.457  53.568  1.00  0.00     0.165 C 
HETATM    3  C2  UNL     1      21.903  -1.282  54.566  1.00  0.00     0.254 C 
HETATM    4  O2  UNL     1      20.548  -0.879  54.399  1.00  0.00    -0.347 OA
HETATM    5  C3  UNL     1      20.436  -0.027  53.313  1.00  0.00     0.059 C 
HETATM    6  C4  UNL     1      19.618   0.342  52.281  1.00  0.00     0.017 C 
HETATM    7  C5  UNL     1      20.081   0.598  50.868  1.00  0.00     0.055 C 
HETATM    8  C6  UNL     1      20.119   2.091  50.575  1.00  0.00     0.101 C 
HETATM    9  N1  UNL     1      20.926   3.062  50.949  1.00  0.00    -0.246 NA
HETATM   10  C7  UNL     1      21.966   2.661  51.863  1.00  0.00     0.131 C 
HETATM   11  C14 UNL     1      21.845   1.376  52.101  1.00  0.00    -0.015 C 
HETATM   12  C15 UNL     1      21.626   0.324  51.000  1.00  0.00     0.053 C 
HETATM   13  C16 UNL     1      21.793   0.697  53.448  1.00  0.00     0.147 C 
ENDROOT
BRANCH  10  14
HETATM   14  N2  UNL     1      23.013   3.303  52.557  1.00  0.00    -0.341 N 
HETATM   15  H6  UNL     1      23.135   3.401  53.579  1.00  0.00     0.167 HD
BRANCH  14  16
HETATM   16  C8  UNL     1      23.956   3.851  51.647  1.00  0.00     0.033 A 
HETATM   17  C9  UNL     1      23.835   5.213  51.413  1.00  0.00     0.031 A 
HETATM   18  C10 UNL     1      24.735   5.768  50.504  1.00  0.00     0.021 A 
HETATM   19  C11 UNL     1      25.719   5.036  49.840  1.00  0.00     0.011 A 
HETATM   20 BR1  UNL     1      26.898   5.909  48.617  1.00  0.00    -0.051 Br
HETATM   21  C12 UNL     1      25.793   3.676  50.113  1.00  0.00     0.021 A 
HETATM   22  C13 UNL     1      24.912   3.081  51.017  1.00  0.00     0.031 A 
ENDBRANCH  14  16
ENDBRANCH  10  14
TORSDOF 2
ENDMDL
MODEL 7
REMARK VINA RESULT:      -6.9      1.992      2.582
REMARK  2 active torsions:
REMARK  status: ('A' for Active; 'I' for Inactive)
REMARK    1  A    between atoms: C7_10  and  N2_11 
REMARK    2  A    between atoms: N2_11  and  C8_12 
ROOT
HETATM    1  O1  UNL     1      26.808   2.591  50.844  1.00  0.00    -0.294 OA
HETATM    2  C1  UNL     1      26.314   2.308  51.932  1.00  0.00     0.165 C 
HETATM    3  C2  UNL     1      26.931   1.263  52.832  1.00  0.00     0.254 C 
HETATM    4  O2  UNL     1      25.853   0.776  53.623  1.00  0.00    -0.347 OA
HETATM    5  C3  UNL     1      24.656   1.311  53.177  1.00  0.00     0.059 C 
HETATM    6  C4  UNL     1      23.325   1.047  53.008  1.00  0.00     0.017 C 
HETATM    7  C5  UNL     1      22.526   1.417  51.782  1.00  0.00     0.055 C 
HETATM    8  C6  UNL     1      21.634   2.618  52.063  1.00  0.00     0.101 C 
HETATM    9  N1  UNL     1      21.876   3.903  52.215  1.00  0.00    -0.246 NA
HETATM   10  C7  UNL     1      23.270   4.263  52.160  1.00  0.00     0.131 C 
HETATM   11  C14 UNL     1      23.978   3.177  51.959  1.00  0.00    -0.015 C 
HETATM   12  C15 UNL     1      23.628   2.117  50.901  1.00  0.00     0.053 C 
HETATM   13  C16 UNL     1      25.172   2.703  52.753  1.00  0.00     0.147 C 
ENDROOT
BRANCH  10  14
HETATM   14  N2  UNL     1      24.020   5.450  52.299  1.00  0.00    -0.341 N 
HETATM   15  H6  UNL     1      24.403   5.865  53.166  1.00  0.00     0.167 HD
BRANCH  14  16
HETATM   16  C8  UNL     1      24.210   6.075  51.037  1.00  0.00     0.033 A 
HETATM   17  C9  UNL     1      23.324   7.101  50.743  1.00  0.00     0.031 A 
HETATM   18  C10 UNL     1      23.477   7.712  49.498  1.00  0.00     0.021 A 
HETATM   19  C11 UNL     1      24.449   7.347  48.568  1.00  0.00     0.011 A 
HETATM   20 BR1  UNL     1      24.562   8.262  46.895  1.00  0.00    -0.051 Br
HETATM   21  C12 UNL     1      25.308   6.313  48.918  1.00  0.00     0.021 A 
HETATM   22  C13 UNL     1      25.191   5.675  50.153  1.00  0.00     0.031 A 
ENDBRANCH  14  16
ENDBRANCH  10  14
TORSDOF 2
ENDMDL
MODEL 8
REMARK VINA RESULT:      -6.6      8.505      9.705
REMARK  2 active torsions:
REMARK  status: ('A' for Active; 'I' for Inactive)
REMARK    1  A    between atoms: C7_10  and  N2_11 
REMARK    2  A    between atoms: N2_11  and  C8_12 
ROOT
HETATM    1  O1  UNL     1      33.396   9.012  47.462  1.00  0.00    -0.294 OA
HETATM    2  C1  UNL     1      33.925   8.060  48.031  1.00  0.00     0.165 C 
HETATM    3  C2  UNL     1      35.377   8.095  48.449  1.00  0.00     0.254 C 
HETATM    4  O2  UNL     1      35.783   6.732  48.481  1.00  0.00    -0.347 OA
HETATM    5  C3  UNL     1      34.776   5.922  47.982  1.00  0.00     0.059 C 
HETATM    6  C4  UNL     1      34.529   4.783  47.268  1.00  0.00     0.017 C 
HETATM    7  C5  UNL     1      33.476   4.654  46.195  1.00  0.00     0.055 C 
HETATM    8  C6  UNL     1      32.277   3.869  46.709  1.00  0.00     0.101 C 
HETATM    9  N1  UNL     1      31.302   4.160  47.544  1.00  0.00    -0.246 NA
HETATM   10  C7  UNL     1      31.395   5.466  48.147  1.00  0.00     0.131 C 
HETATM   11  C14 UNL     1      32.470   6.064  47.691  1.00  0.00    -0.015 C 
HETATM   12  C15 UNL     1      32.856   6.102  46.202  1.00  0.00     0.053 C 
HETATM   13  C16 UNL     1      33.562   6.724  48.499  1.00  0.00     0.147 C 
ENDROOT
BRANCH  10  14
HETATM   14  N2  UNL     1      30.655   6.204  49.094  1.00  0.00    -0.341 N 
HETATM   15  H6  UNL     1      30.639   6.088  50.122  1.00  0.00     0.167 HD
BRANCH  14  16
HETATM   16  C8  UNL     1      29.865   7.196  48.453  1.00  0.00     0.033 A 
HETATM   17  C9  UNL     1      30.084   8.497  48.880  1.00  0.00     0.031 A 
HETATM   18  C10 UNL     1      29.302   9.485  48.281  1.00  0.00     0.021 A 
HETATM   19  C11 UNL     1      28.340   9.228  47.305  1.00  0.00     0.011 A 
HETATM   20 BR1  UNL     1      27.331  10.667  46.555  1.00  0.00    -0.051 Br
HETATM   21  C12 UNL     1      28.165   7.906  46.917  1.00  0.00     0.021 A 
HETATM   22  C13 UNL     1      28.927   6.887  47.490  1.00  0.00     0.031 A 
ENDBRANCH  14  16
ENDBRANCH  10  14
TORSDOF 2
ENDMDL
MODEL 9
REMARK VINA RESULT:      -6.5      7.409      9.130
REMARK  2 active torsions:
REMARK  status: ('A' for Active; 'I' for Inactive)
REMARK    1  A    between atoms: C7_10  and  N2_11 
REMARK    2  A    between atoms: N2_11  and  C8_12 
ROOT
HETATM    1  O1  UNL     1      31.044   7.907  46.300  1.00  0.00    -0.294 OA
HETATM    2  C1  UNL     1      30.829   7.121  47.219  1.00  0.00     0.165 C 
HETATM    3  C2  UNL     1      31.438   5.737  47.235  1.00  0.00     0.254 C 
HETATM    4  O2  UNL     1      30.548   4.953  48.022  1.00  0.00    -0.347 OA
HETATM    5  C3  UNL     1      29.417   5.688  48.337  1.00  0.00     0.059 C 
HETATM    6  C4  UNL     1      28.068   5.601  48.543  1.00  0.00     0.017 C 
HETATM    7  C5  UNL     1      27.053   6.582  48.008  1.00  0.00     0.055 C 
HETATM    8  C6  UNL     1      26.554   7.498  49.117  1.00  0.00     0.101 C 
HETATM    9  N1  UNL     1      27.097   8.509  49.763  1.00  0.00    -0.246 NA
HETATM   10  C7  UNL     1      28.463   8.791  49.398  1.00  0.00     0.131 C 
HETATM   11  C14 UNL     1      28.836   7.939  48.473  1.00  0.00    -0.015 C 
HETATM   12  C15 UNL     1      27.984   7.594  47.240  1.00  0.00     0.053 C 
HETATM   13  C16 UNL     1      30.077   7.078  48.471  1.00  0.00     0.147 C 
ENDROOT
BRANCH  10  14
HETATM   14  N2  UNL     1      29.456   9.705  49.809  1.00  0.00    -0.341 N 
HETATM   15  H6  UNL     1      30.069   9.651  50.641  1.00  0.00     0.167 HD
BRANCH  14  16
HETATM   16  C8  UNL     1      29.540  10.796  48.903  1.00  0.00     0.033 A 
HETATM   17  C9  UNL     1      28.434  11.633  48.877  1.00  0.00     0.031 A 
HETATM   18  C10 UNL     1      28.484  12.697  47.976  1.00  0.00     0.021 A 
HETATM   19  C11 UNL     1      29.562  12.947  47.129  1.00  0.00     0.011 A 
HETATM   20 BR1  UNL     1      29.517  14.441  45.939  1.00  0.00    -0.051 Br
HETATM   21  C12 UNL     1      30.642  12.076  47.199  1.00  0.00     0.021 A 
HETATM   22  C13 UNL     1      30.633  10.999  48.086  1.00  0.00     0.031 A 
ENDBRANCH  14  16
ENDBRANCH  10  14
TORSDOF 2
ENDMDL
