MODEL 1
REMARK VINA RESULT:      -7.5      0.000      0.000
REMARK  9 active torsions:
REMARK  status: ('A' for Active; 'I' for Inactive)
REMARK    1  A    between atoms: C5_6  and  N2_7 
REMARK    2  A    between atoms: N2_7  and  C6_8 
REMARK    3  A    between atoms: C6_8  and  C7_9 
REMARK    4  A    between atoms: C7_9  and  O1_10 
REMARK    5  A    between atoms: C10_14  and  N4_15 
REMARK    6  A    between atoms: N4_15  and  C11_16 
REMARK    7  A    between atoms: C11_16  and  C12_17 
REMARK    8  A    between atoms: C12_17  and  O2_18 
REMARK    9  A    between atoms: C13_20  and  N6_21 
ROOT
HETATM    1  C1  UNL     1      24.841   3.389  50.855  1.00  0.00     0.051 C 
HETATM    2  C2  UNL     1      24.520   2.277  51.765  1.00  0.00    -0.022 A 
HETATM    3  C3  UNL     1      23.223   1.829  52.030  1.00  0.00     0.097 A 
HETATM    4  C4  UNL     1      22.131   2.514  51.356  1.00  0.00     0.104 C 
HETATM    5  N1  UNL     1      21.260   3.059  50.796  1.00  0.00    -0.191 NA
HETATM    6  C5  UNL     1      22.938   0.785  52.885  1.00  0.00     0.145 A 
HETATM    7  N3  UNL     1      23.934   0.139  53.518  1.00  0.00    -0.229 NA
HETATM    8  C8  UNL     1      25.201   0.506  53.320  1.00  0.00     0.077 A 
HETATM    9  C9  UNL     1      26.226  -0.154  53.966  1.00  0.00     0.082 A 
HETATM   10  C10 UNL     1      27.553   0.187  53.796  1.00  0.00     0.127 A 
HETATM   11  N5  UNL     1      27.775   1.206  52.955  1.00  0.00    -0.219 NA
HETATM   12  C13 UNL     1      26.799   1.867  52.311  1.00  0.00     0.116 A 
HETATM   13  C14 UNL     1      25.465   1.550  52.462  1.00  0.00     0.040 A 
ENDROOT
BRANCH   6  14
HETATM   14  N2  UNL     1      21.587   0.385  53.104  1.00  0.00    -0.371 N 
HETATM   15  H4  UNL     1      20.905   0.399  52.317  1.00  0.00     0.161 HD
BRANCH  14  16
HETATM   16  C6  UNL     1      21.158  -0.041  54.418  1.00  0.00     0.147 C 
BRANCH  16  17
HETATM   17  C7  UNL     1      21.218  -1.550  54.531  1.00  0.00     0.183 C 
BRANCH  17  18
HETATM   18  O1  UNL     1      22.325  -1.896  55.327  1.00  0.00    -0.399 OA
HETATM   19  H9  UNL     1      22.242  -2.851  55.560  1.00  0.00     0.209 HD
ENDBRANCH  17  18
ENDBRANCH  16  17
ENDBRANCH  14  16
ENDBRANCH   6  14
BRANCH  12  20
HETATM   20  N6  UNL     1      27.198   2.929  51.451  1.00  0.00    -0.286 NA
HETATM   21  H17 UNL     1      27.758   3.817  51.355  1.00  0.00     0.125 HD
HETATM   22  H18 UNL     1      27.833   3.743  51.700  1.00  0.00     0.125 HD
ENDBRANCH  12  20
BRANCH  10  23
HETATM   23  N4  UNL     1      28.620  -0.485  54.456  1.00  0.00    -0.373 N 
HETATM   24  H11 UNL     1      28.681  -0.337  55.508  1.00  0.00     0.161 HD
BRANCH  23  25
HETATM   25  C11 UNL     1      29.566  -1.314  53.761  1.00  0.00     0.147 C 
BRANCH  25  26
HETATM   26  C12 UNL     1      28.956  -2.299  52.814  1.00  0.00     0.183 C 
BRANCH  26  27
HETATM   27  O2  UNL     1      28.715  -3.477  53.533  1.00  0.00    -0.399 OA
HETATM   28  H16 UNL     1      29.455  -3.661  54.167  1.00  0.00     0.209 HD
ENDBRANCH  26  27
ENDBRANCH  25  26
ENDBRANCH  23  25
ENDBRANCH  10  23
TORSDOF 9
ENDMDL
MODEL 2
REMARK VINA RESULT:      -7.4      2.676      4.250
REMARK  9 active torsions:
REMARK  status: ('A' for Active; 'I' for Inactive)
REMARK    1  A    between atoms: C5_6  and  N2_7 
REMARK    2  A    between atoms: N2_7  and  C6_8 
REMARK    3  A    between atoms: C6_8  and  C7_9 
REMARK    4  A    between atoms: C7_9  and  O1_10 
REMARK    5  A    between atoms: C10_14  and  N4_15 
REMARK    6  A    between atoms: N4_15  and  C11_16 
REMARK    7  A    between atoms: C11_16  and  C12_17 
REMARK    8  A    between atoms: C12_17  and  O2_18 
REMARK    9  A    between atoms: C13_20  and  N6_21 
ROOT
HETATM    1  C1  UNL     1      21.457  -1.177  54.410  1.00  0.00     0.051 C 
HETATM    2  C2  UNL     1      22.409  -0.391  53.608  1.00  0.00    -0.022 A 
HETATM    3  C3  UNL     1      22.060   0.336  52.467  1.00  0.00     0.097 A 
HETATM    4  C4  UNL     1      20.665   0.306  52.059  1.00  0.00     0.104 C 
HETATM    5  N1  UNL     1      19.537   0.289  51.746  1.00  0.00    -0.191 NA
HETATM    6  C5  UNL     1      22.964   1.069  51.725  1.00  0.00     0.145 A 
HETATM    7  N3  UNL     1      24.259   1.109  52.088  1.00  0.00    -0.229 NA
HETATM    8  C8  UNL     1      24.673   0.442  53.165  1.00  0.00     0.077 A 
HETATM    9  C9  UNL     1      26.000   0.481  53.540  1.00  0.00     0.082 A 
HETATM   10  C10 UNL     1      26.480  -0.193  54.646  1.00  0.00     0.127 A 
HETATM   11  N5  UNL     1      25.562  -0.888  55.332  1.00  0.00    -0.219 NA
HETATM   12  C13 UNL     1      24.263  -0.945  54.992  1.00  0.00     0.116 A 
HETATM   13  C14 UNL     1      23.756  -0.284  53.893  1.00  0.00     0.040 A 
ENDROOT
BRANCH   6  14
HETATM   14  N2  UNL     1      22.531   1.786  50.572  1.00  0.00    -0.371 N 
HETATM   15  H4  UNL     1      21.590   1.602  50.166  1.00  0.00     0.161 HD
BRANCH  14  16
HETATM   16  C6  UNL     1      23.396   2.771  49.960  1.00  0.00     0.147 C 
BRANCH  16  17
HETATM   17  C7  UNL     1      23.334   4.077  50.723  1.00  0.00     0.183 C 
BRANCH  17  18
HETATM   18  O1  UNL     1      24.497   4.194  51.507  1.00  0.00    -0.399 OA
HETATM   19  H9  UNL     1      24.546   5.122  51.837  1.00  0.00     0.209 HD
ENDBRANCH  17  18
ENDBRANCH  16  17
ENDBRANCH  14  16
ENDBRANCH   6  14
BRANCH  12  20
HETATM   20  N6  UNL     1      23.413  -1.728  55.822  1.00  0.00    -0.286 NA
HETATM   21  H17 UNL     1      23.241  -2.671  56.260  1.00  0.00     0.125 HD
HETATM   22  H18 UNL     1      23.547  -2.748  56.084  1.00  0.00     0.125 HD
ENDBRANCH  12  20
BRANCH  10  23
HETATM   23  N4  UNL     1      27.846  -0.161  55.045  1.00  0.00    -0.373 N 
HETATM   24  H11 UNL     1      28.049  -0.505  56.032  1.00  0.00     0.161 HD
BRANCH  23  25
HETATM   25  C11 UNL     1      28.898   0.302  54.182  1.00  0.00     0.147 C 
BRANCH  25  26
HETATM   26  C12 UNL     1      29.318   1.719  54.415  1.00  0.00     0.183 C 
BRANCH  26  27
HETATM   27  O2  UNL     1      29.139   2.411  53.210  1.00  0.00    -0.399 OA
HETATM   28  H16 UNL     1      29.897   2.247  52.592  1.00  0.00     0.209 HD
ENDBRANCH  26  27
ENDBRANCH  25  26
ENDBRANCH  23  25
ENDBRANCH  10  23
TORSDOF 9
ENDMDL
MODEL 3
REMARK VINA RESULT:      -6.9      3.157      6.757
REMARK  9 active torsions:
REMARK  status: ('A' for Active; 'I' for Inactive)
REMARK    1  A    between atoms: C5_6  and  N2_7 
REMARK    2  A    between atoms: N2_7  and  C6_8 
REMARK    3  A    between atoms: C6_8  and  C7_9 
REMARK    4  A    between atoms: C7_9  and  O1_10 
REMARK    5  A    between atoms: C10_14  and  N4_15 
REMARK    6  A    between atoms: N4_15  and  C11_16 
REMARK    7  A    between atoms: C11_16  and  C12_17 
REMARK    8  A    between atoms: C12_17  and  O2_18 
REMARK    9  A    between atoms: C13_20  and  N6_21 
ROOT
HETATM    1  C1  UNL     1      26.459  -0.143  54.960  1.00  0.00     0.051 C 
HETATM    2  C2  UNL     1      25.464   0.280  53.962  1.00  0.00    -0.022 A 
HETATM    3  C3  UNL     1      25.733   1.159  52.909  1.00  0.00     0.097 A 
HETATM    4  C4  UNL     1      27.087   1.679  52.806  1.00  0.00     0.104 C 
HETATM    5  N1  UNL     1      28.183   2.080  52.720  1.00  0.00    -0.191 NA
HETATM    6  C5  UNL     1      24.789   1.546  51.981  1.00  0.00     0.145 A 
HETATM    7  N3  UNL     1      23.530   1.075  52.060  1.00  0.00    -0.229 NA
HETATM    8  C8  UNL     1      23.192   0.232  53.036  1.00  0.00     0.077 A 
HETATM    9  C9  UNL     1      21.904  -0.253  53.121  1.00  0.00     0.082 A 
HETATM   10  C10 UNL     1      21.503  -1.127  54.111  1.00  0.00     0.127 A 
HETATM   11  N5  UNL     1      22.457  -1.473  54.987  1.00  0.00    -0.219 NA
HETATM   12  C13 UNL     1      23.720  -1.017  54.930  1.00  0.00     0.116 A 
HETATM   13  C14 UNL     1      24.148  -0.143  53.953  1.00  0.00     0.040 A 
ENDROOT
BRANCH   6  14
HETATM   14  N2  UNL     1      25.140   2.447  50.934  1.00  0.00    -0.371 N 
HETATM   15  H4  UNL     1      25.813   2.152  50.196  1.00  0.00     0.161 HD
BRANCH  14  16
HETATM   16  C6  UNL     1      24.564   3.773  50.890  1.00  0.00     0.147 C 
BRANCH  16  17
HETATM   17  C7  UNL     1      25.311   4.644  49.902  1.00  0.00     0.183 C 
BRANCH  17  18
HETATM   18  O1  UNL     1      25.694   5.832  50.551  1.00  0.00    -0.399 OA
HETATM   19  H9  UNL     1      26.379   6.272  49.994  1.00  0.00     0.209 HD
ENDBRANCH  17  18
ENDBRANCH  16  17
ENDBRANCH  14  16
ENDBRANCH   6  14
BRANCH  12  20
HETATM   20  N6  UNL     1      24.617  -1.477  55.935  1.00  0.00    -0.286 NA
HETATM   21  H17 UNL     1      25.581  -1.846  56.147  1.00  0.00     0.125 HD
HETATM   22  H18 UNL     1      25.616  -1.807  55.790  1.00  0.00     0.125 HD
ENDBRANCH  12  20
BRANCH  10  23
HETATM   23  N4  UNL     1      20.177  -1.636  54.211  1.00  0.00    -0.373 N 
HETATM   24  H11 UNL     1      20.055  -2.494  54.829  1.00  0.00     0.161 HD
BRANCH  23  25
HETATM   25  C11 UNL     1      19.061  -1.042  53.526  1.00  0.00     0.147 C 
BRANCH  25  26
HETATM   26  C12 UNL     1      17.825  -1.884  53.500  1.00  0.00     0.183 C 
BRANCH  26  27
HETATM   27  O2  UNL     1      16.727  -1.016  53.562  1.00  0.00    -0.399 OA
HETATM   28  H16 UNL     1      16.833  -0.265  52.924  1.00  0.00     0.209 HD
ENDBRANCH  26  27
ENDBRANCH  25  26
ENDBRANCH  23  25
ENDBRANCH  10  23
TORSDOF 9
ENDMDL
MODEL 4
REMARK VINA RESULT:      -6.8      3.072      4.936
REMARK  9 active torsions:
REMARK  status: ('A' for Active; 'I' for Inactive)
REMARK    1  A    between atoms: C5_6  and  N2_7 
REMARK    2  A    between atoms: N2_7  and  C6_8 
REMARK    3  A    between atoms: C6_8  and  C7_9 
REMARK    4  A    between atoms: C7_9  and  O1_10 
REMARK    5  A    between atoms: C10_14  and  N4_15 
REMARK    6  A    between atoms: N4_15  and  C11_16 
REMARK    7  A    between atoms: C11_16  and  C12_17 
REMARK    8  A    between atoms: C12_17  and  O2_18 
REMARK    9  A    between atoms: C13_20  and  N6_21 
ROOT
HETATM    1  C1  UNL     1      25.574  -0.786  54.082  1.00  0.00     0.051 C 
HETATM    2  C2  UNL     1      24.684   0.133  53.353  1.00  0.00    -0.022 A 
HETATM    3  C3  UNL     1      23.291   0.131  53.466  1.00  0.00     0.097 A 
HETATM    4  C4  UNL     1      22.697  -0.846  54.363  1.00  0.00     0.104 C 
HETATM    5  N1  UNL     1      22.228  -1.625  55.100  1.00  0.00    -0.191 NA
HETATM    6  C5  UNL     1      22.471   1.000  52.776  1.00  0.00     0.145 A 
HETATM    7  N3  UNL     1      23.002   1.911  51.941  1.00  0.00    -0.229 NA
HETATM    8  C8  UNL     1      24.324   1.978  51.778  1.00  0.00     0.077 A 
HETATM    9  C9  UNL     1      24.873   2.912  50.922  1.00  0.00     0.082 A 
HETATM   10  C10 UNL     1      26.234   3.022  50.718  1.00  0.00     0.127 A 
HETATM   11  N5  UNL     1      26.986   2.156  51.411  1.00  0.00    -0.219 NA
HETATM   12  C13 UNL     1      26.481   1.237  52.251  1.00  0.00     0.116 A 
HETATM   13  C14 UNL     1      25.126   1.103  52.475  1.00  0.00     0.040 A 
ENDROOT
BRANCH   6  14
HETATM   14  N2  UNL     1      21.057   0.936  52.944  1.00  0.00    -0.371 N 
HETATM   15  H4  UNL     1      20.603   1.436  53.737  1.00  0.00     0.161 HD
BRANCH  14  16
HETATM   16  C6  UNL     1      20.247   0.180  52.015  1.00  0.00     0.147 C 
BRANCH  16  17
HETATM   17  C7  UNL     1      18.979  -0.302  52.687  1.00  0.00     0.183 C 
BRANCH  17  18
HETATM   18  O1  UNL     1      19.329  -1.005  53.854  1.00  0.00    -0.399 OA
HETATM   19  H9  UNL     1      18.924  -0.536  54.622  1.00  0.00     0.209 HD
ENDBRANCH  17  18
ENDBRANCH  16  17
ENDBRANCH  14  16
ENDBRANCH   6  14
BRANCH  12  20
HETATM   20  N6  UNL     1      27.411   0.388  52.914  1.00  0.00    -0.286 NA
HETATM   21  H17 UNL     1      28.394   0.281  53.280  1.00  0.00     0.125 HD
HETATM   22  H18 UNL     1      28.423   0.615  53.146  1.00  0.00     0.125 HD
ENDBRANCH  12  20
BRANCH  10  23
HETATM   23  N4  UNL     1      26.814   3.979  49.839  1.00  0.00    -0.373 N 
HETATM   24  H11 UNL     1      27.823   3.796  49.555  1.00  0.00     0.161 HD
BRANCH  23  25
HETATM   25  C11 UNL     1      26.097   5.128  49.356  1.00  0.00     0.147 C 
BRANCH  25  26
HETATM   26  C12 UNL     1      26.929   6.106  48.589  1.00  0.00     0.183 C 
BRANCH  26  27
HETATM   27  O2  UNL     1      27.394   7.064  49.499  1.00  0.00    -0.399 OA
HETATM   28  H16 UNL     1      26.693   7.293  50.162  1.00  0.00     0.209 HD
ENDBRANCH  26  27
ENDBRANCH  25  26
ENDBRANCH  23  25
ENDBRANCH  10  23
TORSDOF 9
ENDMDL
MODEL 5
REMARK VINA RESULT:      -6.8      2.499      4.264
REMARK  9 active torsions:
REMARK  status: ('A' for Active; 'I' for Inactive)
REMARK    1  A    between atoms: C5_6  and  N2_7 
REMARK    2  A    between atoms: N2_7  and  C6_8 
REMARK    3  A    between atoms: C6_8  and  C7_9 
REMARK    4  A    between atoms: C7_9  and  O1_10 
REMARK    5  A    between atoms: C10_14  and  N4_15 
REMARK    6  A    between atoms: N4_15  and  C11_16 
REMARK    7  A    between atoms: C11_16  and  C12_17 
REMARK    8  A    between atoms: C12_17  and  O2_18 
REMARK    9  A    between atoms: C13_20  and  N6_21 
ROOT
HETATM    1  C1  UNL     1      20.666   0.411  53.333  1.00  0.00     0.051 C 
HETATM    2  C2  UNL     1      21.830   1.249  52.998  1.00  0.00    -0.022 A 
HETATM    3  C3  UNL     1      21.742   2.538  52.466  1.00  0.00     0.097 A 
HETATM    4  C4  UNL     1      20.409   3.073  52.234  1.00  0.00     0.104 C 
HETATM    5  N1  UNL     1      19.334   3.502  52.066  1.00  0.00    -0.191 NA
HETATM    6  C5  UNL     1      22.842   3.311  52.158  1.00  0.00     0.145 A 
HETATM    7  N3  UNL     1      24.083   2.833  52.366  1.00  0.00    -0.229 NA
HETATM    8  C8  UNL     1      24.253   1.611  52.871  1.00  0.00     0.077 A 
HETATM    9  C9  UNL     1      25.523   1.118  53.085  1.00  0.00     0.082 A 
HETATM   10  C10 UNL     1      25.754  -0.140  53.605  1.00  0.00     0.127 A 
HETATM   11  N5  UNL     1      24.653  -0.850  53.887  1.00  0.00    -0.219 NA
HETATM   12  C13 UNL     1      23.403  -0.397  53.690  1.00  0.00     0.116 A 
HETATM   13  C14 UNL     1      23.142   0.854  53.172  1.00  0.00     0.040 A 
ENDROOT
BRANCH   6  14
HETATM   14  N2  UNL     1      22.670   4.619  51.618  1.00  0.00    -0.371 N 
HETATM   15  H4  UNL     1      21.767   4.885  51.173  1.00  0.00     0.161 HD
BRANCH  14  16
HETATM   16  C6  UNL     1      23.748   5.581  51.685  1.00  0.00     0.147 C 
BRANCH  16  17
HETATM   17  C7  UNL     1      24.537   5.584  50.393  1.00  0.00     0.183 C 
BRANCH  17  18
HETATM   18  O1  UNL     1      25.738   4.881  50.599  1.00  0.00    -0.399 OA
HETATM   19  H9  UNL     1      25.585   3.941  50.341  1.00  0.00     0.209 HD
ENDBRANCH  17  18
ENDBRANCH  16  17
ENDBRANCH  14  16
ENDBRANCH   6  14
BRANCH  12  20
HETATM   20  N6  UNL     1      22.336  -1.272  54.040  1.00  0.00    -0.286 NA
HETATM   21  H17 UNL     1      21.304  -1.470  53.964  1.00  0.00     0.125 HD
HETATM   22  H18 UNL     1      21.314  -1.165  53.772  1.00  0.00     0.125 HD
ENDBRANCH  12  20
BRANCH  10  23
HETATM   23  N4  UNL     1      27.058  -0.663  53.832  1.00  0.00    -0.373 N 
HETATM   24  H11 UNL     1      27.470  -0.477  54.795  1.00  0.00     0.161 HD
BRANCH  23  25
HETATM   25  C11 UNL     1      27.787  -1.396  52.833  1.00  0.00     0.147 C 
BRANCH  25  26
HETATM   26  C12 UNL     1      29.018  -2.081  53.337  1.00  0.00     0.183 C 
BRANCH  26  27
HETATM   27  O2  UNL     1      28.726  -3.447  53.437  1.00  0.00    -0.399 OA
HETATM   28  H16 UNL     1      29.557  -3.987  53.454  1.00  0.00     0.209 HD
ENDBRANCH  26  27
ENDBRANCH  25  26
ENDBRANCH  23  25
ENDBRANCH  10  23
TORSDOF 9
ENDMDL
MODEL 6
REMARK VINA RESULT:      -6.7      3.292      7.676
REMARK  9 active torsions:
REMARK  status: ('A' for Active; 'I' for Inactive)
REMARK    1  A    between atoms: C5_6  and  N2_7 
REMARK    2  A    between atoms: N2_7  and  C6_8 
REMARK    3  A    between atoms: C6_8  and  C7_9 
REMARK    4  A    between atoms: C7_9  and  O1_10 
REMARK    5  A    between atoms: C10_14  and  N4_15 
REMARK    6  A    between atoms: N4_15  and  C11_16 
REMARK    7  A    between atoms: C11_16  and  C12_17 
REMARK    8  A    between atoms: C12_17  and  O2_18 
REMARK    9  A    between atoms: C13_20  and  N6_21 
ROOT
HETATM    1  C1  UNL     1      22.934  -1.421  55.214  1.00  0.00     0.051 C 
HETATM    2  C2  UNL     1      22.940  -0.577  54.008  1.00  0.00    -0.022 A 
HETATM    3  C3  UNL     1      24.084   0.025  53.477  1.00  0.00     0.097 A 
HETATM    4  C4  UNL     1      25.341  -0.208  54.170  1.00  0.00     0.104 C 
HETATM    5  N1  UNL     1      26.351  -0.413  54.725  1.00  0.00    -0.191 NA
HETATM    6  C5  UNL     1      24.074   0.814  52.345  1.00  0.00     0.145 A 
HETATM    7  N3  UNL     1      22.920   1.040  51.690  1.00  0.00    -0.229 NA
HETATM    8  C8  UNL     1      21.784   0.501  52.132  1.00  0.00     0.077 A 
HETATM    9  C9  UNL     1      20.599   0.731  51.463  1.00  0.00     0.082 A 
HETATM   10  C10 UNL     1      19.395   0.198  51.880  1.00  0.00     0.127 A 
HETATM   11  N5  UNL     1      19.460  -0.560  52.983  1.00  0.00    -0.219 NA
HETATM   12  C13 UNL     1      20.598  -0.802  53.656  1.00  0.00     0.116 A 
HETATM   13  C14 UNL     1      21.814  -0.283  53.264  1.00  0.00     0.040 A 
ENDROOT
BRANCH   6  14
HETATM   14  N2  UNL     1      25.284   1.393  51.864  1.00  0.00    -0.371 N 
HETATM   15  H4  UNL     1      26.122   0.796  51.709  1.00  0.00     0.161 HD
BRANCH  14  16
HETATM   16  C6  UNL     1      25.353   2.812  51.590  1.00  0.00     0.147 C 
BRANCH  16  17
HETATM   17  C7  UNL     1      26.071   3.064  50.281  1.00  0.00     0.183 C 
BRANCH  17  18
HETATM   18  O1  UNL     1      27.271   3.746  50.552  1.00  0.00    -0.399 OA
HETATM   19  H9  UNL     1      27.995   3.078  50.592  1.00  0.00     0.209 HD
ENDBRANCH  17  18
ENDBRANCH  16  17
ENDBRANCH  14  16
ENDBRANCH   6  14
BRANCH  12  20
HETATM   20  N6  UNL     1      20.501  -1.628  54.811  1.00  0.00    -0.286 NA
HETATM   21  H17 UNL     1      19.942  -2.362  55.320  1.00  0.00     0.125 HD
HETATM   22  H18 UNL     1      19.729  -2.324  55.030  1.00  0.00     0.125 HD
ENDBRANCH  12  20
BRANCH  10  23
HETATM   23  N4  UNL     1      18.165   0.426  51.200  1.00  0.00    -0.373 N 
HETATM   24  H11 UNL     1      18.121   1.307  50.605  1.00  0.00     0.161 HD
BRANCH  23  25
HETATM   25  C11 UNL     1      17.044  -0.468  51.300  1.00  0.00     0.147 C 
BRANCH  25  26
HETATM   26  C12 UNL     1      16.046  -0.102  52.354  1.00  0.00     0.183 C 
BRANCH  26  27
HETATM   27  O2  UNL     1      16.389  -0.804  53.516  1.00  0.00    -0.399 OA
HETATM   28  H16 UNL     1      15.830  -0.515  54.282  1.00  0.00     0.209 HD
ENDBRANCH  26  27
ENDBRANCH  25  26
ENDBRANCH  23  25
ENDBRANCH  10  23
TORSDOF 9
ENDMDL
MODEL 7
REMARK VINA RESULT:      -6.6      9.469     11.272
REMARK  9 active torsions:
REMARK  status: ('A' for Active; 'I' for Inactive)
REMARK    1  A    between atoms: C5_6  and  N2_7 
REMARK    2  A    between atoms: N2_7  and  C6_8 
REMARK    3  A    between atoms: C6_8  and  C7_9 
REMARK    4  A    between atoms: C7_9  and  O1_10 
REMARK    5  A    between atoms: C10_14  and  N4_15 
REMARK    6  A    between atoms: N4_15  and  C11_16 
REMARK    7  A    between atoms: C11_16  and  C12_17 
REMARK    8  A    between atoms: C12_17  and  O2_18 
REMARK    9  A    between atoms: C13_20  and  N6_21 
ROOT
HETATM    1  C1  UNL     1      33.500  10.467  46.993  1.00  0.00     0.051 C 
HETATM    2  C2  UNL     1      32.753   9.490  47.802  1.00  0.00    -0.022 A 
HETATM    3  C3  UNL     1      31.525   9.754  48.415  1.00  0.00     0.097 A 
HETATM    4  C4  UNL     1      30.962  11.082  48.233  1.00  0.00     0.104 C 
HETATM    5  N1  UNL     1      30.508  12.148  48.068  1.00  0.00    -0.191 NA
HETATM    6  C5  UNL     1      30.837   8.827  49.170  1.00  0.00     0.145 A 
HETATM    7  N3  UNL     1      31.342   7.593  49.350  1.00  0.00    -0.229 NA
HETATM    8  C8  UNL     1      32.509   7.261  48.797  1.00  0.00     0.077 A 
HETATM    9  C9  UNL     1      33.031   5.997  48.979  1.00  0.00     0.082 A 
HETATM   10  C10 UNL     1      34.235   5.604  48.430  1.00  0.00     0.127 A 
HETATM   11  N5  UNL     1      34.863   6.540  47.705  1.00  0.00    -0.219 NA
HETATM   12  C13 UNL     1      34.381   7.779  47.511  1.00  0.00     0.116 A 
HETATM   13  C14 UNL     1      33.182   8.200  48.047  1.00  0.00     0.040 A 
ENDROOT
BRANCH   6  14
HETATM   14  N2  UNL     1      29.588   9.172  49.765  1.00  0.00    -0.371 N 
HETATM   15  H4  UNL     1      29.566   9.694  50.665  1.00  0.00     0.161 HD
BRANCH  14  16
HETATM   16  C6  UNL     1      28.348   8.798  49.121  1.00  0.00     0.147 C 
BRANCH  16  17
HETATM   17  C7  UNL     1      27.190   8.923  50.088  1.00  0.00     0.183 C 
BRANCH  17  18
HETATM   18  O1  UNL     1      27.581   9.757  51.151  1.00  0.00    -0.399 OA
HETATM   19  H9  UNL     1      28.431  10.190  50.898  1.00  0.00     0.209 HD
ENDBRANCH  17  18
ENDBRANCH  16  17
ENDBRANCH  14  16
ENDBRANCH   6  14
BRANCH  12  20
HETATM   20  N6  UNL     1      35.167   8.660  46.716  1.00  0.00    -0.286 NA
HETATM   21  H17 UNL     1      35.165   9.433  45.999  1.00  0.00     0.125 HD
HETATM   22  H18 UNL     1      34.808   9.387  46.031  1.00  0.00     0.125 HD
ENDBRANCH  12  20
BRANCH  10  23
HETATM   23  N4  UNL     1      34.785   4.303  48.608  1.00  0.00    -0.373 N 
HETATM   24  H11 UNL     1      35.311   4.143  49.519  1.00  0.00     0.161 HD
BRANCH  23  25
HETATM   25  C11 UNL     1      34.648   3.259  47.629  1.00  0.00     0.147 C 
BRANCH  25  26
HETATM   26  C12 UNL     1      33.411   2.429  47.770  1.00  0.00     0.183 C 
BRANCH  26  27
HETATM   27  O2  UNL     1      33.538   1.688  48.952  1.00  0.00    -0.399 OA
HETATM   28  H16 UNL     1      34.224   0.978  48.853  1.00  0.00     0.209 HD
ENDBRANCH  26  27
ENDBRANCH  25  26
ENDBRANCH  23  25
ENDBRANCH  10  23
TORSDOF 9
ENDMDL
MODEL 8
REMARK VINA RESULT:      -6.5      3.014      6.487
REMARK  9 active torsions:
REMARK  status: ('A' for Active; 'I' for Inactive)
REMARK    1  A    between atoms: C5_6  and  N2_7 
REMARK    2  A    between atoms: N2_7  and  C6_8 
REMARK    3  A    between atoms: C6_8  and  C7_9 
REMARK    4  A    between atoms: C7_9  and  O1_10 
REMARK    5  A    between atoms: C10_14  and  N4_15 
REMARK    6  A    between atoms: N4_15  and  C11_16 
REMARK    7  A    between atoms: C11_16  and  C12_17 
REMARK    8  A    between atoms: C12_17  and  O2_18 
REMARK    9  A    between atoms: C13_20  and  N6_21 
ROOT
HETATM    1  C1  UNL     1      20.358   0.584  53.788  1.00  0.00     0.051 C 
HETATM    2  C2  UNL     1      21.750   0.852  53.387  1.00  0.00    -0.022 A 
HETATM    3  C3  UNL     1      22.841   0.067  53.769  1.00  0.00     0.097 A 
HETATM    4  C4  UNL     1      22.570  -1.085  54.615  1.00  0.00     0.104 C 
HETATM    5  N1  UNL     1      22.341  -2.019  55.282  1.00  0.00    -0.191 NA
HETATM    6  C5  UNL     1      24.140   0.331  53.385  1.00  0.00     0.145 A 
HETATM    7  N3  UNL     1      24.411   1.391  52.603  1.00  0.00    -0.229 NA
HETATM    8  C8  UNL     1      23.424   2.190  52.195  1.00  0.00     0.077 A 
HETATM    9  C9  UNL     1      23.697   3.279  51.392  1.00  0.00     0.082 A 
HETATM   10  C10 UNL     1      22.713   4.137  50.944  1.00  0.00     0.127 A 
HETATM   11  N5  UNL     1      21.470   3.837  51.344  1.00  0.00    -0.219 NA
HETATM   12  C13 UNL     1      21.173   2.784  52.125  1.00  0.00     0.116 A 
HETATM   13  C14 UNL     1      22.134   1.911  52.588  1.00  0.00     0.040 A 
ENDROOT
BRANCH   6  14
HETATM   14  N2  UNL     1      25.201  -0.518  53.816  1.00  0.00    -0.371 N 
HETATM   15  H4  UNL     1      25.350  -1.440  53.356  1.00  0.00     0.161 HD
BRANCH  14  16
HETATM   16  C6  UNL     1      26.074  -0.103  54.892  1.00  0.00     0.147 C 
BRANCH  16  17
HETATM   17  C7  UNL     1      27.332   0.534  54.338  1.00  0.00     0.183 C 
BRANCH  17  18
HETATM   18  O1  UNL     1      27.127   1.923  54.244  1.00  0.00    -0.399 OA
HETATM   19  H9  UNL     1      26.684   2.105  53.382  1.00  0.00     0.209 HD
ENDBRANCH  17  18
ENDBRANCH  16  17
ENDBRANCH  14  16
ENDBRANCH   6  14
BRANCH  12  20
HETATM   20  N6  UNL     1      19.803   2.599  52.465  1.00  0.00    -0.286 NA
HETATM   21  H17 UNL     1      18.928   2.034  52.303  1.00  0.00     0.125 HD
HETATM   22  H18 UNL     1      19.147   1.860  52.075  1.00  0.00     0.125 HD
ENDBRANCH  12  20
BRANCH  10  23
HETATM   23  N4  UNL     1      22.980   5.264  50.116  1.00  0.00    -0.373 N 
HETATM   24  H11 UNL     1      23.295   5.045  49.123  1.00  0.00     0.161 HD
BRANCH  23  25
HETATM   25  C11 UNL     1      22.838   6.618  50.575  1.00  0.00     0.147 C 
BRANCH  25  26
HETATM   26  C12 UNL     1      24.123   7.289  50.946  1.00  0.00     0.183 C 
BRANCH  26  27
HETATM   27  O2  UNL     1      24.451   6.877  52.244  1.00  0.00    -0.399 OA
HETATM   28  H16 UNL     1      24.839   7.625  52.766  1.00  0.00     0.209 HD
ENDBRANCH  26  27
ENDBRANCH  25  26
ENDBRANCH  23  25
ENDBRANCH  10  23
TORSDOF 9
ENDMDL
MODEL 9
REMARK VINA RESULT:      -6.5      3.178      6.358
REMARK  9 active torsions:
REMARK  status: ('A' for Active; 'I' for Inactive)
REMARK    1  A    between atoms: C5_6  and  N2_7 
REMARK    2  A    between atoms: N2_7  and  C6_8 
REMARK    3  A    between atoms: C6_8  and  C7_9 
REMARK    4  A    between atoms: C7_9  and  O1_10 
REMARK    5  A    between atoms: C10_14  and  N4_15 
REMARK    6  A    between atoms: N4_15  and  C11_16 
REMARK    7  A    between atoms: C11_16  and  C12_17 
REMARK    8  A    between atoms: C12_17  and  O2_18 
REMARK    9  A    between atoms: C13_20  and  N6_21 
ROOT
HETATM    1  C1  UNL     1      22.583  -0.647  53.071  1.00  0.00     0.051 C 
HETATM    2  C2  UNL     1      23.742   0.258  52.997  1.00  0.00    -0.022 A 
HETATM    3  C3  UNL     1      24.822   0.224  53.883  1.00  0.00     0.097 A 
HETATM    4  C4  UNL     1      24.784  -0.774  54.940  1.00  0.00     0.104 C 
HETATM    5  N1  UNL     1      24.754  -1.591  55.777  1.00  0.00    -0.191 NA
HETATM    6  C5  UNL     1      25.901   1.079  53.801  1.00  0.00     0.145 A 
HETATM    7  N3  UNL     1      25.954   2.009  52.830  1.00  0.00    -0.229 NA
HETATM    8  C8  UNL     1      24.963   2.107  51.943  1.00  0.00     0.077 A 
HETATM    9  C9  UNL     1      25.013   3.059  50.946  1.00  0.00     0.082 A 
HETATM   10  C10 UNL     1      24.013   3.202  50.005  1.00  0.00     0.127 A 
HETATM   11  N5  UNL     1      22.988   2.348  50.129  1.00  0.00    -0.219 NA
HETATM   12  C13 UNL     1      22.911   1.410  51.088  1.00  0.00     0.116 A 
HETATM   13  C14 UNL     1      23.893   1.245  52.042  1.00  0.00     0.040 A 
ENDROOT
BRANCH   6  14
HETATM   14  N2  UNL     1      26.966   0.982  54.744  1.00  0.00    -0.371 N 
HETATM   15  H4  UNL     1      26.852   1.375  55.701  1.00  0.00     0.161 HD
BRANCH  14  16
HETATM   16  C6  UNL     1      28.208   0.339  54.375  1.00  0.00     0.147 C 
BRANCH  16  17
HETATM   17  C7  UNL     1      29.310   1.366  54.216  1.00  0.00     0.183 C 
BRANCH  17  18
HETATM   18  O1  UNL     1      28.726   2.644  54.152  1.00  0.00    -0.399 OA
HETATM   19  H9  UNL     1      27.923   2.637  54.725  1.00  0.00     0.209 HD
ENDBRANCH  17  18
ENDBRANCH  16  17
ENDBRANCH  14  16
ENDBRANCH   6  14
BRANCH  12  20
HETATM   20  N6  UNL     1      21.756   0.578  51.087  1.00  0.00    -0.286 NA
HETATM   21  H17 UNL     1      20.741   0.488  50.817  1.00  0.00     0.125 HD
HETATM   22  H18 UNL     1      20.799   0.823  50.696  1.00  0.00     0.125 HD
ENDBRANCH  12  20
BRANCH  10  23
HETATM   23  N4  UNL     1      24.051   4.179  48.970  1.00  0.00    -0.373 N 
HETATM   24  H11 UNL     1      23.820   3.828  47.993  1.00  0.00     0.161 HD
BRANCH  23  25
HETATM   25  C11 UNL     1      24.378   5.558  49.214  1.00  0.00     0.147 C 
BRANCH  25  26
HETATM   26  C12 UNL     1      25.806   5.916  48.947  1.00  0.00     0.183 C 
BRANCH  26  27
HETATM   27  O2  UNL     1      26.358   6.363  50.155  1.00  0.00    -0.399 OA
HETATM   28  H16 UNL     1      27.095   7.005  49.991  1.00  0.00     0.209 HD
ENDBRANCH  26  27
ENDBRANCH  25  26
ENDBRANCH  23  25
ENDBRANCH  10  23
TORSDOF 9
ENDMDL
