MODEL 1
REMARK VINA RESULT:      -9.2      0.000      0.000
REMARK  3 active torsions:
REMARK  status: ('A' for Active; 'I' for Inactive)
REMARK    1  A    between atoms: C2_2  and  N1_3 
REMARK    2  A    between atoms: N1_3  and  C3_4 
REMARK    3  A    between atoms: C6_7  and  N2_8 
ROOT
HETATM    1  C3  UNL     1      23.759   1.479  52.833  1.00  0.00     0.021 C 
HETATM    2  C4  UNL     1      22.944   2.394  52.586  1.00  0.00     0.026 C 
HETATM    3  C5  UNL     1      22.543   3.664  52.246  1.00  0.00     0.028 C 
HETATM    4  C6  UNL     1      22.896   4.868  51.965  1.00  0.00     0.020 C 
HETATM    5  C7  UNL     1      22.465   6.115  51.304  1.00  0.00     0.172 C 
HETATM    6  N3  UNL     1      23.308   6.581  50.223  1.00  0.00    -0.392 N 
HETATM    7  C8  UNL     1      23.425   5.905  49.011  1.00  0.00     0.220 C 
HETATM    8  C9  UNL     1      24.917   5.809  48.623  1.00  0.00     0.023 C 
HETATM    9  C10 UNL     1      25.883   4.837  48.922  1.00  0.00     0.032 C 
HETATM   10  C11 UNL     1      25.450   3.680  49.796  1.00  0.00     0.064 A 
HETATM   11  N4  UNL     1      26.354   3.513  50.816  1.00  0.00    -0.260 NA
HETATM   12  C12 UNL     1      25.909   2.730  51.848  1.00  0.00     0.130 A 
HETATM   13  C13 UNL     1      24.657   2.176  51.826  1.00  0.00     0.003 A 
HETATM   14  C14 UNL     1      23.787   2.377  50.731  1.00  0.00     0.026 A 
HETATM   15  C15 UNL     1      24.157   3.148  49.666  1.00  0.00    -0.002 A 
HETATM   16  C16 UNL     1      23.187   3.408  48.614  1.00  0.00     0.169 C 
HETATM   17  N5  UNL     1      22.760   4.644  48.847  1.00  0.00    -0.289 NA
HETATM   18  H11 UNL     1      23.377   7.606  50.168  1.00  0.00     0.155 HD
ENDROOT
BRANCH   1  19
HETATM   19  N1  UNL     1      24.562   0.428  53.119  1.00  0.00    -0.280 NA
HETATM   20  H4  UNL     1      24.459   1.068  53.979  1.00  0.00     0.129 HD
BRANCH  19  21
HETATM   21  C2  UNL     1      25.373  -0.369  53.905  1.00  0.00     0.033 A 
HETATM   22  C1  UNL     1      24.718  -1.232  54.967  1.00  0.00     0.037 C 
HETATM   23  C17 UNL     1      26.242  -1.278  53.085  1.00  0.00     0.000 A 
HETATM   24  C18 UNL     1      27.516  -1.488  52.845  1.00  0.00     0.021 A 
HETATM   25  C19 UNL     1      28.357  -0.573  53.591  1.00  0.00     0.030 A 
HETATM   26 CL1  UNL     1      30.087  -0.648  53.447  1.00  0.00    -0.085 Cl
HETATM   27  C20 UNL     1      27.720   0.286  54.360  1.00  0.00    -0.001 A 
HETATM   28  C21 UNL     1      26.315   0.570  54.674  1.00  0.00     0.058 A 
ENDBRANCH  19  21
ENDBRANCH   1  19
BRANCH   4  29
HETATM   29  N2  UNL     1      24.167   5.410  51.940  1.00  0.00    -0.401 N 
HETATM   30  H7  UNL     1      25.074   5.872  52.067  1.00  0.00     0.156 HD
HETATM   31  H8  UNL     1      25.111   5.730  51.723  1.00  0.00     0.156 HD
ENDBRANCH   4  29
TORSDOF 3
ENDMDL
MODEL 2
REMARK VINA RESULT:      -9.1      2.551      4.226
REMARK  3 active torsions:
REMARK  status: ('A' for Active; 'I' for Inactive)
REMARK    1  A    between atoms: C2_2  and  N1_3 
REMARK    2  A    between atoms: N1_3  and  C3_4 
REMARK    3  A    between atoms: C6_7  and  N2_8 
ROOT
HETATM    1  C3  UNL     1      24.218   1.419  52.158  1.00  0.00     0.021 C 
HETATM    2  C4  UNL     1      23.794   2.020  51.146  1.00  0.00     0.026 C 
HETATM    3  C5  UNL     1      22.981   2.236  50.060  1.00  0.00     0.028 C 
HETATM    4  C6  UNL     1      22.014   1.801  49.333  1.00  0.00     0.020 C 
HETATM    5  C7  UNL     1      20.968   2.204  48.372  1.00  0.00     0.172 C 
HETATM    6  N3  UNL     1      19.605   1.910  48.762  1.00  0.00    -0.392 N 
HETATM    7  C8  UNL     1      18.968   2.552  49.821  1.00  0.00     0.220 C 
HETATM    8  C9  UNL     1      18.246   1.501  50.693  1.00  0.00     0.023 C 
HETATM    9  C10 UNL     1      18.694   0.761  51.797  1.00  0.00     0.032 C 
HETATM   10  C11 UNL     1      20.129   0.964  52.229  1.00  0.00     0.064 A 
HETATM   11  N4  UNL     1      20.741  -0.256  52.375  1.00  0.00    -0.260 NA
HETATM   12  C12 UNL     1      22.109  -0.203  52.437  1.00  0.00     0.130 A 
HETATM   13  C13 UNL     1      22.774   0.991  52.355  1.00  0.00     0.003 A 
HETATM   14  C14 UNL     1      22.074   2.211  52.222  1.00  0.00     0.026 A 
HETATM   15  C15 UNL     1      20.710   2.240  52.152  1.00  0.00    -0.002 A 
HETATM   16  C16 UNL     1      20.045   3.511  51.911  1.00  0.00     0.169 C 
HETATM   17  N5  UNL     1      19.710   3.479  50.626  1.00  0.00    -0.289 NA
HETATM   18  H11 UNL     1      18.999   1.647  47.973  1.00  0.00     0.155 HD
ENDROOT
BRANCH   1  19
HETATM   19  N1  UNL     1      24.748   0.840  53.260  1.00  0.00    -0.280 NA
HETATM   20  H4  UNL     1      24.968   0.254  52.384  1.00  0.00     0.129 HD
BRANCH  19  21
HETATM   21  C2  UNL     1      25.453  -0.108  53.978  1.00  0.00     0.033 A 
HETATM   22  C1  UNL     1      24.688  -0.981  54.955  1.00  0.00     0.037 C 
HETATM   23  C17 UNL     1      26.228  -1.035  53.086  1.00  0.00     0.000 A 
HETATM   24  C18 UNL     1      27.474  -1.365  52.838  1.00  0.00     0.021 A 
HETATM   25  C19 UNL     1      28.400  -0.619  53.667  1.00  0.00     0.030 A 
HETATM   26 CL1  UNL     1      30.113  -0.874  53.528  1.00  0.00    -0.085 Cl
HETATM   27  C20 UNL     1      27.850   0.237  54.504  1.00  0.00    -0.001 A 
HETATM   28  C21 UNL     1      26.481   0.649  54.832  1.00  0.00     0.058 A 
ENDBRANCH  19  21
ENDBRANCH   1  19
BRANCH   4  29
HETATM   29  N2  UNL     1      21.312   0.617  49.451  1.00  0.00    -0.401 N 
HETATM   30  H7  UNL     1      20.934  -0.334  49.528  1.00  0.00     0.156 HD
HETATM   31  H8  UNL     1      20.622  -0.130  49.530  1.00  0.00     0.156 HD
ENDBRANCH   4  29
TORSDOF 3
ENDMDL
MODEL 3
REMARK VINA RESULT:      -8.6      1.990      2.952
REMARK  3 active torsions:
REMARK  status: ('A' for Active; 'I' for Inactive)
REMARK    1  A    between atoms: C2_2  and  N1_3 
REMARK    2  A    between atoms: N1_3  and  C3_4 
REMARK    3  A    between atoms: C6_7  and  N2_8 
ROOT
HETATM    1  C3  UNL     1      24.502   2.713  53.107  1.00  0.00     0.021 C 
HETATM    2  C4  UNL     1      23.793   3.743  53.088  1.00  0.00     0.026 C 
HETATM    3  C5  UNL     1      22.989   4.707  52.529  1.00  0.00     0.028 C 
HETATM    4  C6  UNL     1      22.442   5.169  51.461  1.00  0.00     0.020 C 
HETATM    5  C7  UNL     1      21.343   6.012  50.951  1.00  0.00     0.172 C 
HETATM    6  N3  UNL     1      20.407   5.359  50.059  1.00  0.00    -0.392 N 
HETATM    7  C8  UNL     1      19.532   4.361  50.482  1.00  0.00     0.220 C 
HETATM    8  C9  UNL     1      19.566   3.193  49.471  1.00  0.00     0.023 C 
HETATM    9  C10 UNL     1      20.376   2.050  49.417  1.00  0.00     0.032 C 
HETATM   10  C11 UNL     1      21.434   1.902  50.488  1.00  0.00     0.064 A 
HETATM   11  N4  UNL     1      22.643   1.614  49.901  1.00  0.00    -0.260 NA
HETATM   12  C12 UNL     1      23.727   1.783  50.721  1.00  0.00     0.130 A 
HETATM   13  C13 UNL     1      23.576   2.207  52.015  1.00  0.00     0.003 A 
HETATM   14  C14 UNL     1      22.297   2.467  52.555  1.00  0.00     0.026 A 
HETATM   15  C15 UNL     1      21.168   2.324  51.800  1.00  0.00    -0.002 A 
HETATM   16  C16 UNL     1      19.885   2.703  52.372  1.00  0.00     0.169 C 
HETATM   17  N5  UNL     1      19.612   3.886  51.832  1.00  0.00    -0.289 NA
HETATM   18  H11 UNL     1      20.055   5.972  49.312  1.00  0.00     0.155 HD
ENDROOT
BRANCH   1  19
HETATM   19  N1  UNL     1      25.285   1.617  53.226  1.00  0.00    -0.280 NA
HETATM   20  H4  UNL     1      24.441   1.550  53.890  1.00  0.00     0.129 HD
BRANCH  19  21
HETATM   21  C2  UNL     1      25.671   0.383  53.715  1.00  0.00     0.033 A 
HETATM   22  C1  UNL     1      24.594  -0.549  54.238  1.00  0.00     0.037 C 
HETATM   23  C17 UNL     1      26.471  -0.400  52.714  1.00  0.00     0.000 A 
HETATM   24  C18 UNL     1      27.678  -0.898  52.575  1.00  0.00     0.021 A 
HETATM   25  C19 UNL     1      28.507  -0.618  53.731  1.00  0.00     0.030 A 
HETATM   26 CL1  UNL     1      30.152  -1.173  53.793  1.00  0.00    -0.085 Cl
HETATM   27  C20 UNL     1      27.926   0.066  54.695  1.00  0.00    -0.001 A 
HETATM   28  C21 UNL     1      26.596   0.645  54.914  1.00  0.00     0.058 A 
ENDBRANCH  19  21
ENDBRANCH   1  19
BRANCH   4  29
HETATM   29  N2  UNL     1      22.558   4.707  50.164  1.00  0.00    -0.401 N 
HETATM   30  H7  UNL     1      22.789   4.311  49.247  1.00  0.00     0.156 HD
HETATM   31  H8  UNL     1      22.456   4.466  49.178  1.00  0.00     0.156 HD
ENDBRANCH   4  29
TORSDOF 3
ENDMDL
MODEL 4
REMARK VINA RESULT:      -8.6      7.451     10.727
REMARK  3 active torsions:
REMARK  status: ('A' for Active; 'I' for Inactive)
REMARK    1  A    between atoms: C2_2  and  N1_3 
REMARK    2  A    between atoms: N1_3  and  C3_4 
REMARK    3  A    between atoms: C6_7  and  N2_8 
ROOT
HETATM    1  C3  UNL     1      31.453   8.385  47.424  1.00  0.00     0.021 C 
HETATM    2  C4  UNL     1      32.654   8.134  47.663  1.00  0.00     0.026 C 
HETATM    3  C5  UNL     1      33.715   7.404  48.141  1.00  0.00     0.028 C 
HETATM    4  C6  UNL     1      34.105   6.353  48.771  1.00  0.00     0.020 C 
HETATM    5  C7  UNL     1      35.251   5.449  48.991  1.00  0.00     0.172 C 
HETATM    6  N3  UNL     1      35.033   4.058  48.652  1.00  0.00    -0.392 N 
HETATM    7  C8  UNL     1      34.855   3.619  47.342  1.00  0.00     0.220 C 
HETATM    8  C9  UNL     1      33.656   2.646  47.289  1.00  0.00     0.023 C 
HETATM    9  C10 UNL     1      32.290   2.885  47.082  1.00  0.00     0.032 C 
HETATM   10  C11 UNL     1      31.859   4.324  46.907  1.00  0.00     0.064 A 
HETATM   11  N4  UNL     1      30.798   4.589  47.739  1.00  0.00    -0.260 NA
HETATM   12  C12 UNL     1      30.535   5.922  47.917  1.00  0.00     0.130 A 
HETATM   13  C13 UNL     1      31.292   6.881  47.298  1.00  0.00     0.003 A 
HETATM   14  C14 UNL     1      32.357   6.531  46.440  1.00  0.00     0.026 A 
HETATM   15  C15 UNL     1      32.684   5.224  46.214  1.00  0.00    -0.002 A 
HETATM   16  C16 UNL     1      33.854   4.920  45.405  1.00  0.00     0.169 C 
HETATM   17  N5  UNL     1      34.793   4.584  46.283  1.00  0.00    -0.289 NA
HETATM   18  H11 UNL     1      35.516   3.401  49.279  1.00  0.00     0.155 HD
ENDROOT
BRANCH   1  19
HETATM   19  N1  UNL     1      30.184   8.746  47.125  1.00  0.00    -0.280 NA
HETATM   20  H4  UNL     1      30.407   8.972  48.154  1.00  0.00     0.129 HD
BRANCH  19  21
HETATM   21  C2  UNL     1      28.926   9.270  47.363  1.00  0.00     0.033 A 
HETATM   22  C1  UNL     1      28.511  10.511  46.595  1.00  0.00     0.037 C 
HETATM   23  C17 UNL     1      27.841   8.253  47.161  1.00  0.00     0.000 A 
HETATM   24  C18 UNL     1      26.910   7.640  47.856  1.00  0.00     0.021 A 
HETATM   25  C19 UNL     1      26.917   8.059  49.243  1.00  0.00     0.030 A 
HETATM   26 CL1  UNL     1      25.778   7.390  50.372  1.00  0.00    -0.085 Cl
HETATM   27  C20 UNL     1      27.827   8.956  49.562  1.00  0.00    -0.001 A 
HETATM   28  C21 UNL     1      28.883   9.678  48.843  1.00  0.00     0.058 A 
ENDBRANCH  19  21
ENDBRANCH   1  19
BRANCH   4  29
HETATM   29  N2  UNL     1      33.338   5.361  49.351  1.00  0.00    -0.401 N 
HETATM   30  H7  UNL     1      32.745   4.730  49.902  1.00  0.00     0.156 HD
HETATM   31  H8  UNL     1      32.837   4.512  49.613  1.00  0.00     0.156 HD
ENDBRANCH   4  29
TORSDOF 3
ENDMDL
MODEL 5
REMARK VINA RESULT:      -8.4      3.270      6.930
REMARK  3 active torsions:
REMARK  status: ('A' for Active; 'I' for Inactive)
REMARK    1  A    between atoms: C2_2  and  N1_3 
REMARK    2  A    between atoms: N1_3  and  C3_4 
REMARK    3  A    between atoms: C6_7  and  N2_8 
ROOT
HETATM    1  C3  UNL     1      26.419   5.091  49.102  1.00  0.00     0.021 C 
HETATM    2  C4  UNL     1      26.447   3.909  49.511  1.00  0.00     0.026 C 
HETATM    3  C5  UNL     1      26.197   2.871  50.375  1.00  0.00     0.028 C 
HETATM    4  C6  UNL     1      25.705   2.502  51.505  1.00  0.00     0.020 C 
HETATM    5  C7  UNL     1      25.176   1.348  52.257  1.00  0.00     0.172 C 
HETATM    6  N3  UNL     1      23.816   1.476  52.737  1.00  0.00    -0.392 N 
HETATM    7  C8  UNL     1      22.714   1.507  51.885  1.00  0.00     0.220 C 
HETATM    8  C9  UNL     1      21.773   2.655  52.311  1.00  0.00     0.023 C 
HETATM    9  C10 UNL     1      21.738   4.004  51.927  1.00  0.00     0.032 C 
HETATM   10  C11 UNL     1      22.798   4.473  50.956  1.00  0.00     0.064 A 
HETATM   11  N4  UNL     1      23.384   5.619  51.436  1.00  0.00    -0.260 NA
HETATM   12  C12 UNL     1      24.565   5.952  50.828  1.00  0.00     0.130 A 
HETATM   13  C13 UNL     1      25.087   5.178  49.825  1.00  0.00     0.003 A 
HETATM   14  C14 UNL     1      24.417   4.021  49.371  1.00  0.00     0.026 A 
HETATM   15  C15 UNL     1      23.236   3.622  49.929  1.00  0.00    -0.002 A 
HETATM   16  C16 UNL     1      22.640   2.367  49.497  1.00  0.00     0.169 C 
HETATM   17  N5  UNL     1      22.927   1.505  50.466  1.00  0.00    -0.289 NA
HETATM   18  H11 UNL     1      23.658   1.030  53.650  1.00  0.00     0.155 HD
ENDROOT
BRANCH   1  19
HETATM   19  N1  UNL     1      26.443   6.338  48.579  1.00  0.00    -0.280 NA
HETATM   20  H4  UNL     1      27.436   5.923  48.608  1.00  0.00     0.129 HD
BRANCH  19  21
HETATM   21  C2  UNL     1      27.014   7.466  48.019  1.00  0.00     0.033 A 
HETATM   22  C1  UNL     1      26.335   8.087  46.812  1.00  0.00     0.037 C 
HETATM   23  C17 UNL     1      27.202   8.566  49.023  1.00  0.00     0.000 A 
HETATM   24  C18 UNL     1      28.175   9.249  49.580  1.00  0.00     0.021 A 
HETATM   25  C19 UNL     1      29.472   8.827  49.089  1.00  0.00     0.030 A 
HETATM   26 CL1  UNL     1      30.925   9.580  49.673  1.00  0.00    -0.085 Cl
HETATM   27  C20 UNL     1      29.454   7.861  48.194  1.00  0.00    -0.001 A 
HETATM   28  C21 UNL     1      28.415   7.065  47.532  1.00  0.00     0.058 A 
ENDBRANCH  19  21
ENDBRANCH   1  19
BRANCH   4  29
HETATM   29  N2  UNL     1      25.135   3.282  52.493  1.00  0.00    -0.401 N 
HETATM   30  H7  UNL     1      24.848   3.838  53.306  1.00  0.00     0.156 HD
HETATM   31  H8  UNL     1      24.541   3.852  53.095  1.00  0.00     0.156 HD
ENDBRANCH   4  29
TORSDOF 3
ENDMDL
MODEL 6
REMARK VINA RESULT:      -8.3      1.574      3.085
REMARK  3 active torsions:
REMARK  status: ('A' for Active; 'I' for Inactive)
REMARK    1  A    between atoms: C2_2  and  N1_3 
REMARK    2  A    between atoms: N1_3  and  C3_4 
REMARK    3  A    between atoms: C6_7  and  N2_8 
ROOT
HETATM    1  C3  UNL     1      24.954   1.853  51.352  1.00  0.00     0.021 C 
HETATM    2  C4  UNL     1      24.952   2.876  50.632  1.00  0.00     0.026 C 
HETATM    3  C5  UNL     1      24.458   3.758  49.701  1.00  0.00     0.028 C 
HETATM    4  C6  UNL     1      23.518   4.032  48.867  1.00  0.00     0.020 C 
HETATM    5  C7  UNL     1      22.866   5.126  48.122  1.00  0.00     0.172 C 
HETATM    6  N3  UNL     1      21.453   5.311  48.380  1.00  0.00    -0.392 N 
HETATM    7  C8  UNL     1      20.961   5.765  49.602  1.00  0.00     0.220 C 
HETATM    8  C9  UNL     1      19.768   4.882  50.030  1.00  0.00     0.023 C 
HETATM    9  C10 UNL     1      19.725   3.701  50.785  1.00  0.00     0.032 C 
HETATM   10  C11 UNL     1      21.046   3.135  51.259  1.00  0.00     0.064 A 
HETATM   11  N4  UNL     1      21.111   1.799  50.947  1.00  0.00    -0.260 NA
HETATM   12  C12 UNL     1      22.367   1.258  51.021  1.00  0.00     0.130 A 
HETATM   13  C13 UNL     1      23.445   2.022  51.381  1.00  0.00     0.003 A 
HETATM   14  C14 UNL     1      23.298   3.389  51.706  1.00  0.00     0.026 A 
HETATM   15  C15 UNL     1      22.078   4.001  51.653  1.00  0.00    -0.002 A 
HETATM   16  C16 UNL     1      21.998   5.433  51.896  1.00  0.00     0.169 C 
HETATM   17  N5  UNL     1      21.873   5.974  50.689  1.00  0.00    -0.289 NA
HETATM   18  H11 UNL     1      20.918   5.602  47.551  1.00  0.00     0.155 HD
ENDROOT
BRANCH   1  19
HETATM   19  N1  UNL     1      25.049   0.776  52.164  1.00  0.00    -0.280 NA
HETATM   20  H4  UNL     1      25.773   1.521  52.442  1.00  0.00     0.129 HD
BRANCH  19  21
HETATM   21  C2  UNL     1      25.545   0.015  53.207  1.00  0.00     0.033 A 
HETATM   22  C1  UNL     1      24.560  -0.549  54.213  1.00  0.00     0.037 C 
HETATM   23  C17 UNL     1      26.376  -1.138  52.722  1.00  0.00     0.000 A 
HETATM   24  C18 UNL     1      27.614  -1.569  52.790  1.00  0.00     0.021 A 
HETATM   25  C19 UNL     1      28.450  -0.673  53.565  1.00  0.00     0.030 A 
HETATM   26 CL1  UNL     1      30.135  -1.023  53.803  1.00  0.00    -0.085 Cl
HETATM   27  C20 UNL     1      27.843   0.388  54.055  1.00  0.00    -0.001 A 
HETATM   28  C21 UNL     1      26.478   0.924  54.021  1.00  0.00     0.058 A 
ENDBRANCH  19  21
ENDBRANCH   1  19
BRANCH   4  29
HETATM   29  N2  UNL     1      22.405   3.280  48.544  1.00  0.00    -0.401 N 
HETATM   30  H7  UNL     1      21.540   2.736  48.460  1.00  0.00     0.156 HD
HETATM   31  H8  UNL     1      21.676   2.713  48.113  1.00  0.00     0.156 HD
ENDBRANCH   4  29
TORSDOF 3
ENDMDL
MODEL 7
REMARK VINA RESULT:      -8.0      1.856      3.063
REMARK  3 active torsions:
REMARK  status: ('A' for Active; 'I' for Inactive)
REMARK    1  A    between atoms: C2_2  and  N1_3 
REMARK    2  A    between atoms: N1_3  and  C3_4 
REMARK    3  A    between atoms: C6_7  and  N2_8 
ROOT
HETATM    1  C3  UNL     1      23.617   2.425  50.326  1.00  0.00     0.021 C 
HETATM    2  C4  UNL     1      23.457   2.942  49.198  1.00  0.00     0.026 C 
HETATM    3  C5  UNL     1      23.073   3.908  48.300  1.00  0.00     0.028 C 
HETATM    4  C6  UNL     1      22.516   5.053  48.121  1.00  0.00     0.020 C 
HETATM    5  C7  UNL     1      22.403   6.192  47.189  1.00  0.00     0.172 C 
HETATM    6  N3  UNL     1      22.794   7.482  47.719  1.00  0.00    -0.392 N 
HETATM    7  C8  UNL     1      24.112   7.797  48.044  1.00  0.00     0.220 C 
HETATM    8  C9  UNL     1      24.144   8.485  49.426  1.00  0.00     0.023 C 
HETATM    9  C10 UNL     1      24.264   7.948  50.717  1.00  0.00     0.032 C 
HETATM   10  C11 UNL     1      24.346   6.442  50.833  1.00  0.00     0.064 A 
HETATM   11  N4  UNL     1      23.446   6.005  51.773  1.00  0.00    -0.260 NA
HETATM   12  C12 UNL     1      23.190   4.659  51.733  1.00  0.00     0.130 A 
HETATM   13  C13 UNL     1      23.804   3.850  50.814  1.00  0.00     0.003 A 
HETATM   14  C14 UNL     1      24.736   4.370  49.888  1.00  0.00     0.026 A 
HETATM   15  C15 UNL     1      25.041   5.701  49.864  1.00  0.00    -0.002 A 
HETATM   16  C16 UNL     1      25.926   6.201  48.823  1.00  0.00     0.169 C 
HETATM   17  N5  UNL     1      25.119   6.781  47.942  1.00  0.00    -0.289 NA
HETATM   18  H11 UNL     1      22.226   8.263  47.362  1.00  0.00     0.155 HD
ENDROOT
BRANCH   1  19
HETATM   19  N1  UNL     1      23.828   1.784  51.498  1.00  0.00    -0.280 NA
HETATM   20  H4  UNL     1      24.730   1.803  50.912  1.00  0.00     0.129 HD
BRANCH  19  21
HETATM   21  C2  UNL     1      24.555   1.103  52.457  1.00  0.00     0.033 A 
HETATM   22  C1  UNL     1      23.929  -0.123  53.094  1.00  0.00     0.037 C 
HETATM   23  C17 UNL     1      25.907   0.685  51.953  1.00  0.00     0.000 A 
HETATM   24  C18 UNL     1      27.176   0.909  52.206  1.00  0.00     0.021 A 
HETATM   25  C19 UNL     1      27.345   1.840  53.303  1.00  0.00     0.030 A 
HETATM   26 CL1  UNL     1      28.934   2.301  53.833  1.00  0.00    -0.085 Cl
HETATM   27  C20 UNL     1      26.231   2.290  53.844  1.00  0.00    -0.001 A 
HETATM   28  C21 UNL     1      24.797   2.082  53.616  1.00  0.00     0.058 A 
ENDBRANCH  19  21
ENDBRANCH   1  19
BRANCH   4  29
HETATM   29  N2  UNL     1      21.941   5.889  49.059  1.00  0.00    -0.401 N 
HETATM   30  H7  UNL     1      21.662   6.518  49.819  1.00  0.00     0.156 HD
HETATM   31  H8  UNL     1      21.335   6.458  49.650  1.00  0.00     0.156 HD
ENDBRANCH   4  29
TORSDOF 3
ENDMDL
MODEL 8
REMARK VINA RESULT:      -7.9      2.174      3.128
REMARK  3 active torsions:
REMARK  status: ('A' for Active; 'I' for Inactive)
REMARK    1  A    between atoms: C2_2  and  N1_3 
REMARK    2  A    between atoms: N1_3  and  C3_4 
REMARK    3  A    between atoms: C6_7  and  N2_8 
ROOT
HETATM    1  C3  UNL     1      23.977   3.040  52.786  1.00  0.00     0.021 C 
HETATM    2  C4  UNL     1      22.745   3.251  52.741  1.00  0.00     0.026 C 
HETATM    3  C5  UNL     1      21.565   3.701  52.200  1.00  0.00     0.028 C 
HETATM    4  C6  UNL     1      20.989   4.315  51.228  1.00  0.00     0.020 C 
HETATM    5  C7  UNL     1      19.702   4.503  50.531  1.00  0.00     0.172 C 
HETATM    6  N3  UNL     1      19.689   4.158  49.124  1.00  0.00    -0.392 N 
HETATM    7  C8  UNL     1      19.818   2.849  48.666  1.00  0.00     0.220 C 
HETATM    8  C9  UNL     1      20.836   2.815  47.505  1.00  0.00     0.023 C 
HETATM    9  C10 UNL     1      22.228   2.639  47.509  1.00  0.00     0.032 C 
HETATM   10  C11 UNL     1      22.900   2.484  48.855  1.00  0.00     0.064 A 
HETATM   11  N4  UNL     1      23.971   3.341  48.933  1.00  0.00    -0.260 NA
HETATM   12  C12 UNL     1      24.453   3.535  50.201  1.00  0.00     0.130 A 
HETATM   13  C13 UNL     1      23.884   2.907  51.277  1.00  0.00     0.003 A 
HETATM   14  C14 UNL     1      22.793   2.023  51.116  1.00  0.00     0.026 A 
HETATM   15  C15 UNL     1      22.256   1.780  49.884  1.00  0.00    -0.002 A 
HETATM   16  C16 UNL     1      21.069   0.945  49.786  1.00  0.00     0.169 C 
HETATM   17  N5  UNL     1      20.068   1.799  49.611  1.00  0.00    -0.289 NA
HETATM   18  H11 UNL     1      19.087   4.770  48.557  1.00  0.00     0.155 HD
ENDROOT
BRANCH   1  19
HETATM   19  N1  UNL     1      25.295   2.771  52.928  1.00  0.00    -0.280 NA
HETATM   20  H4  UNL     1      24.708   1.892  53.130  1.00  0.00     0.129 HD
BRANCH  19  21
HETATM   21  C2  UNL     1      26.409   1.994  53.186  1.00  0.00     0.033 A 
HETATM   22  C1  UNL     1      27.604   2.653  53.849  1.00  0.00     0.037 C 
HETATM   23  C17 UNL     1      26.076   0.779  54.004  1.00  0.00     0.000 A 
HETATM   24  C18 UNL     1      26.097  -0.529  53.896  1.00  0.00     0.021 A 
HETATM   25  C19 UNL     1      26.590  -0.950  52.599  1.00  0.00     0.030 A 
HETATM   26 CL1  UNL     1      26.714  -2.638  52.207  1.00  0.00    -0.085 Cl
HETATM   27  C20 UNL     1      26.922   0.022  51.775  1.00  0.00    -0.001 A 
HETATM   28  C21 UNL     1      26.927   1.488  51.831  1.00  0.00     0.058 A 
ENDBRANCH  19  21
ENDBRANCH   1  19
BRANCH   4  29
HETATM   29  N2  UNL     1      21.564   4.904  50.118  1.00  0.00    -0.401 N 
HETATM   30  H7  UNL     1      22.131   5.317  49.370  1.00  0.00     0.156 HD
HETATM   31  H8  UNL     1      21.786   5.371  49.239  1.00  0.00     0.156 HD
ENDBRANCH   4  29
TORSDOF 3
ENDMDL
MODEL 9
REMARK VINA RESULT:      -7.7      4.029      7.268
REMARK  3 active torsions:
REMARK  status: ('A' for Active; 'I' for Inactive)
REMARK    1  A    between atoms: C2_2  and  N1_3 
REMARK    2  A    between atoms: N1_3  and  C3_4 
REMARK    3  A    between atoms: C6_7  and  N2_8 
ROOT
HETATM    1  C3  UNL     1      27.050   5.293  49.069  1.00  0.00     0.021 C 
HETATM    2  C4  UNL     1      26.431   4.237  49.324  1.00  0.00     0.026 C 
HETATM    3  C5  UNL     1      25.540   3.431  49.990  1.00  0.00     0.028 C 
HETATM    4  C6  UNL     1      24.694   3.322  50.953  1.00  0.00     0.020 C 
HETATM    5  C7  UNL     1      23.535   2.550  51.442  1.00  0.00     0.172 C 
HETATM    6  N3  UNL     1      22.323   3.309  51.671  1.00  0.00    -0.392 N 
HETATM    7  C8  UNL     1      21.586   3.884  50.639  1.00  0.00     0.220 C 
HETATM    8  C9  UNL     1      21.219   5.335  51.023  1.00  0.00     0.023 C 
HETATM    9  C10 UNL     1      21.903   6.542  50.810  1.00  0.00     0.032 C 
HETATM   10  C11 UNL     1      23.247   6.461  50.122  1.00  0.00     0.064 A 
HETATM   11  N4  UNL     1      24.175   7.173  50.842  1.00  0.00    -0.260 NA
HETATM   12  C12 UNL     1      25.478   6.907  50.512  1.00  0.00     0.130 A 
HETATM   13  C13 UNL     1      25.788   5.998  49.535  1.00  0.00     0.003 A 
HETATM   14  C14 UNL     1      24.777   5.316  48.823  1.00  0.00     0.026 A 
HETATM   15  C15 UNL     1      23.455   5.525  49.096  1.00  0.00    -0.002 A 
HETATM   16  C16 UNL     1      22.458   4.722  48.406  1.00  0.00     0.169 C 
HETATM   17  N5  UNL     1      22.084   3.809  49.296  1.00  0.00    -0.289 NA
HETATM   18  H11 UNL     1      21.776   2.976  52.476  1.00  0.00     0.155 HD
ENDROOT
BRANCH   1  19
HETATM   19  N1  UNL     1      27.769   6.385  48.720  1.00  0.00    -0.280 NA
HETATM   20  H4  UNL     1      26.935   6.254  48.052  1.00  0.00     0.129 HD
BRANCH  19  21
HETATM   21  C2  UNL     1      28.090   7.506  47.977  1.00  0.00     0.033 A 
HETATM   22  C1  UNL     1      29.276   7.425  47.036  1.00  0.00     0.037 C 
HETATM   23  C17 UNL     1      26.927   8.002  47.167  1.00  0.00     0.000 A 
HETATM   24  C18 UNL     1      26.160   9.064  47.073  1.00  0.00     0.021 A 
HETATM   25  C19 UNL     1      26.533  10.078  48.039  1.00  0.00     0.030 A 
HETATM   26 CL1  UNL     1      25.667  11.583  48.117  1.00  0.00    -0.085 Cl
HETATM   27  C20 UNL     1      27.548   9.773  48.821  1.00  0.00    -0.001 A 
HETATM   28  C21 UNL     1      28.442   8.620  48.976  1.00  0.00     0.058 A 
ENDBRANCH  19  21
ENDBRANCH   1  19
BRANCH   4  29
HETATM   29  N2  UNL     1      24.348   4.260  51.906  1.00  0.00    -0.401 N 
HETATM   30  H7  UNL     1      24.180   4.868  52.714  1.00  0.00     0.156 HD
HETATM   31  H8  UNL     1      23.970   5.034  52.453  1.00  0.00     0.156 HD
ENDBRANCH   4  29
TORSDOF 3
ENDMDL
