MODEL 1
REMARK VINA RESULT:      -8.2      0.000      0.000
REMARK  7 active torsions:
REMARK  status: ('A' for Active; 'I' for Inactive)
REMARK    1  A    between atoms: O1_2  and  C2_3 
REMARK    2  A    between atoms: C6_9  and  N3_10 
REMARK    3  A    between atoms: N3_10  and  C7_11 
REMARK    4  A    between atoms: C14_20  and  O3_21 
REMARK    5  A    between atoms: O3_21  and  C15_22 
REMARK    6  A    between atoms: C15_22  and  C16_23 
REMARK    7  A    between atoms: C16_23  and  N4_24 
ROOT
HETATM    1  C2  UNL     1      20.625  -0.228  53.165  1.00  0.00     0.103 A 
HETATM    2  C3  UNL     1      21.097  -0.782  54.345  1.00  0.00     0.072 A 
HETATM    3  C4  UNL     1      22.461  -0.876  54.555  1.00  0.00     0.075 A 
HETATM    4  N1  UNL     1      22.962  -1.409  55.690  1.00  0.00    -0.241 NA
HETATM    5  C5  UNL     1      24.311  -1.490  55.876  1.00  0.00     0.236 A 
HETATM    6  N2  UNL     1      25.133  -1.022  54.893  1.00  0.00    -0.224 NA
HETATM    7  C6  UNL     1      24.658  -0.489  53.758  1.00  0.00     0.141 A 
HETATM    8  C12 UNL     1      23.294  -0.405  53.563  1.00  0.00     0.042 A 
HETATM    9  C13 UNL     1      22.824   0.140  52.404  1.00  0.00     0.057 A 
HETATM   10  C14 UNL     1      21.467   0.239  52.182  1.00  0.00     0.103 A 
ENDROOT
BRANCH   7  11
HETATM   11  N3  UNL     1      25.618  -0.031  52.802  1.00  0.00    -0.342 N 
HETATM   12  H6  UNL     1      25.632  -0.142  51.788  1.00  0.00     0.167 HD
BRANCH  11  13
HETATM   13  C7  UNL     1      26.739   0.692  53.296  1.00  0.00     0.035 A 
HETATM   14  C8  UNL     1      27.934   0.107  53.306  1.00  0.00     0.032 A 
HETATM   15  C9  UNL     1      29.144   0.761  53.791  1.00  0.00     0.071 A 
HETATM   16  C10 UNL     1      29.025   1.982  54.235  1.00  0.00     0.225 A 
HETATM   17  F1  UNL     1      30.162   2.599  54.692  1.00  0.00    -0.178 F 
HETATM   18  O2  UNL     1      27.804   2.623  54.242  1.00  0.00    -0.321 OA
HETATM   19  C11 UNL     1      26.605   2.071  53.797  1.00  0.00     0.235 A 
ENDBRANCH  11  13
ENDBRANCH   7  11
BRANCH  10  20
HETATM   20  O3  UNL     1      20.838   0.754  51.084  1.00  0.00    -0.347 OA
BRANCH  20  21
HETATM   21  C15 UNL     1      21.485   1.187  49.901  1.00  0.00     0.206 C 
BRANCH  21  22
HETATM   22  C16 UNL     1      21.243   2.659  49.739  1.00  0.00     0.299 C 
BRANCH  22  23
HETATM   23  N4  UNL     1      22.373   3.494  50.020  1.00  0.00     0.090 N 
HETATM   24  C17 UNL     1      23.622   3.058  49.495  1.00  0.00     0.272 C 
HETATM   25  C18 UNL     1      24.529   2.778  50.672  1.00  0.00     0.032 C 
HETATM   26  C19 UNL     1      24.003   3.703  51.735  1.00  0.00     0.032 C 
HETATM   27  C20 UNL     1      22.537   3.799  51.405  1.00  0.00     0.272 C 
ENDBRANCH  22  23
ENDBRANCH  21  22
ENDBRANCH  20  21
ENDBRANCH  10  20
BRANCH   1  28
HETATM   28  O1  UNL     1      19.232  -0.179  53.048  1.00  0.00    -0.353 OA
HETATM   29  C1  UNL     1      18.458  -1.323  53.244  1.00  0.00     0.210 C 
ENDBRANCH   1  28
TORSDOF 7
ENDMDL
MODEL 2
REMARK VINA RESULT:      -8.0      1.448      1.702
REMARK  7 active torsions:
REMARK  status: ('A' for Active; 'I' for Inactive)
REMARK    1  A    between atoms: O1_2  and  C2_3 
REMARK    2  A    between atoms: C6_9  and  N3_10 
REMARK    3  A    between atoms: N3_10  and  C7_11 
REMARK    4  A    between atoms: C14_20  and  O3_21 
REMARK    5  A    between atoms: O3_21  and  C15_22 
REMARK    6  A    between atoms: C15_22  and  C16_23 
REMARK    7  A    between atoms: C16_23  and  N4_24 
ROOT
HETATM    1  C2  UNL     1      20.258  -0.123  52.713  1.00  0.00     0.103 A 
HETATM    2  C3  UNL     1      20.605  -0.780  53.883  1.00  0.00     0.072 A 
HETATM    3  C4  UNL     1      21.937  -0.854  54.252  1.00  0.00     0.075 A 
HETATM    4  N1  UNL     1      22.318  -1.485  55.384  1.00  0.00    -0.241 NA
HETATM    5  C5  UNL     1      23.636  -1.544  55.728  1.00  0.00     0.236 A 
HETATM    6  N2  UNL     1      24.551  -0.954  54.907  1.00  0.00    -0.224 NA
HETATM    7  C6  UNL     1      24.195  -0.322  53.779  1.00  0.00     0.141 A 
HETATM    8  C12 UNL     1      22.864  -0.259  53.423  1.00  0.00     0.042 A 
HETATM    9  C13 UNL     1      22.516   0.387  52.274  1.00  0.00     0.057 A 
HETATM   10  C14 UNL     1      21.193   0.467  51.894  1.00  0.00     0.103 A 
ENDROOT
BRANCH   7  11
HETATM   11  N3  UNL     1      25.245   0.260  53.000  1.00  0.00    -0.342 N 
HETATM   12  H6  UNL     1      25.199   0.981  52.280  1.00  0.00     0.167 HD
BRANCH  11  13
HETATM   13  C7  UNL     1      26.568  -0.208  53.232  1.00  0.00     0.035 A 
HETATM   14  C8  UNL     1      27.439   0.588  53.846  1.00  0.00     0.032 A 
HETATM   15  C9  UNL     1      28.816   0.204  54.130  1.00  0.00     0.071 A 
HETATM   16  C10 UNL     1      29.194  -0.987  53.754  1.00  0.00     0.225 A 
HETATM   17  F1  UNL     1      30.490  -1.351  54.021  1.00  0.00    -0.178 F 
HETATM   18  O2  UNL     1      28.321  -1.842  53.114  1.00  0.00    -0.321 OA
HETATM   19  C11 UNL     1      26.994  -1.553  52.806  1.00  0.00     0.235 A 
ENDBRANCH  11  13
ENDBRANCH   7  11
BRANCH  10  20
HETATM   20  O3  UNL     1      20.681   1.073  50.781  1.00  0.00    -0.347 OA
BRANCH  20  21
HETATM   21  C15 UNL     1      20.507   2.469  50.619  1.00  0.00     0.206 C 
BRANCH  21  22
HETATM   22  C16 UNL     1      21.624   2.991  49.766  1.00  0.00     0.299 C 
BRANCH  22  23
HETATM   23  N4  UNL     1      22.449   3.984  50.388  1.00  0.00     0.090 N 
HETATM   24  C17 UNL     1      23.772   3.582  50.723  1.00  0.00     0.272 C 
HETATM   25  C18 UNL     1      23.898   3.665  52.228  1.00  0.00     0.032 C 
HETATM   26  C19 UNL     1      22.908   4.738  52.593  1.00  0.00     0.032 C 
HETATM   27  C20 UNL     1      21.852   4.601  51.529  1.00  0.00     0.272 C 
ENDBRANCH  22  23
ENDBRANCH  21  22
ENDBRANCH  20  21
ENDBRANCH  10  20
BRANCH   1  28
HETATM   28  O1  UNL     1      18.889  -0.103  52.427  1.00  0.00    -0.353 OA
HETATM   29  C1  UNL     1      18.023  -1.027  53.015  1.00  0.00     0.210 C 
ENDBRANCH   1  28
TORSDOF 7
ENDMDL
MODEL 3
REMARK VINA RESULT:      -8.0      2.663      5.760
REMARK  7 active torsions:
REMARK  status: ('A' for Active; 'I' for Inactive)
REMARK    1  A    between atoms: O1_2  and  C2_3 
REMARK    2  A    between atoms: C6_9  and  N3_10 
REMARK    3  A    between atoms: N3_10  and  C7_11 
REMARK    4  A    between atoms: C14_20  and  O3_21 
REMARK    5  A    between atoms: O3_21  and  C15_22 
REMARK    6  A    between atoms: C15_22  and  C16_23 
REMARK    7  A    between atoms: C16_23  and  N4_24 
ROOT
HETATM    1  C2  UNL     1      22.477  -0.159  52.758  1.00  0.00     0.103 A 
HETATM    2  C3  UNL     1      21.660   0.260  51.720  1.00  0.00     0.072 A 
HETATM    3  C4  UNL     1      21.900   1.481  51.115  1.00  0.00     0.075 A 
HETATM    4  N1  UNL     1      21.127   1.925  50.100  1.00  0.00    -0.241 NA
HETATM    5  C5  UNL     1      21.383   3.132  49.517  1.00  0.00     0.236 A 
HETATM    6  N2  UNL     1      22.431   3.871  49.983  1.00  0.00    -0.224 NA
HETATM    7  C6  UNL     1      23.210   3.449  50.989  1.00  0.00     0.141 A 
HETATM    8  C12 UNL     1      22.957   2.230  51.583  1.00  0.00     0.042 A 
HETATM    9  C13 UNL     1      23.758   1.813  52.605  1.00  0.00     0.057 A 
HETATM   10  C14 UNL     1      23.531   0.599  53.218  1.00  0.00     0.103 A 
ENDROOT
BRANCH   7  11
HETATM   11  N3  UNL     1      24.280   4.311  51.388  1.00  0.00    -0.342 N 
HETATM   12  H6  UNL     1      24.389   4.864  52.238  1.00  0.00     0.167 HD
BRANCH  11  13
HETATM   13  C7  UNL     1      25.379   4.446  50.495  1.00  0.00     0.035 A 
HETATM   14  C8  UNL     1      25.561   5.602  49.862  1.00  0.00     0.032 A 
HETATM   15  C9  UNL     1      26.654   5.843  48.928  1.00  0.00     0.071 A 
HETATM   16  C10 UNL     1      27.485   4.860  48.715  1.00  0.00     0.225 A 
HETATM   17  F1  UNL     1      28.515   5.084  47.836  1.00  0.00    -0.178 F 
HETATM   18  O2  UNL     1      27.330   3.645  49.351  1.00  0.00    -0.321 OA
HETATM   19  C11 UNL     1      26.317   3.335  50.255  1.00  0.00     0.235 A 
ENDBRANCH  11  13
ENDBRANCH   7  11
BRANCH  10  20
HETATM   20  O3  UNL     1      24.234   0.039  54.246  1.00  0.00    -0.347 OA
BRANCH  20  21
HETATM   21  C15 UNL     1      25.441  -0.690  54.109  1.00  0.00     0.206 C 
BRANCH  21  22
HETATM   22  C16 UNL     1      26.581   0.201  54.506  1.00  0.00     0.299 C 
BRANCH  22  23
HETATM   23  N4  UNL     1      27.696   0.197  53.606  1.00  0.00     0.090 N 
HETATM   24  C17 UNL     1      27.932  -1.018  52.903  1.00  0.00     0.272 C 
HETATM   25  C18 UNL     1      29.288  -1.529  53.337  1.00  0.00     0.032 C 
HETATM   26  C19 UNL     1      30.023  -0.271  53.712  1.00  0.00     0.032 C 
HETATM   27  C20 UNL     1      28.920   0.632  54.198  1.00  0.00     0.272 C 
ENDBRANCH  22  23
ENDBRANCH  21  22
ENDBRANCH  20  21
ENDBRANCH  10  20
BRANCH   1  28
HETATM   28  O1  UNL     1      22.153  -1.405  53.304  1.00  0.00    -0.353 OA
HETATM   29  C1  UNL     1      21.146  -1.524  54.262  1.00  0.00     0.210 C 
ENDBRANCH   1  28
TORSDOF 7
ENDMDL
MODEL 4
REMARK VINA RESULT:      -7.7      3.092      5.870
REMARK  7 active torsions:
REMARK  status: ('A' for Active; 'I' for Inactive)
REMARK    1  A    between atoms: O1_2  and  C2_3 
REMARK    2  A    between atoms: C6_9  and  N3_10 
REMARK    3  A    between atoms: N3_10  and  C7_11 
REMARK    4  A    between atoms: C14_20  and  O3_21 
REMARK    5  A    between atoms: O3_21  and  C15_22 
REMARK    6  A    between atoms: C15_22  and  C16_23 
REMARK    7  A    between atoms: C16_23  and  N4_24 
ROOT
HETATM    1  C2  UNL     1      22.432  -0.075  52.737  1.00  0.00     0.103 A 
HETATM    2  C3  UNL     1      21.820   0.374  51.577  1.00  0.00     0.072 A 
HETATM    3  C4  UNL     1      22.440   1.347  50.813  1.00  0.00     0.075 A 
HETATM    4  N1  UNL     1      21.877   1.811  49.677  1.00  0.00    -0.241 NA
HETATM    5  C5  UNL     1      22.507   2.770  48.938  1.00  0.00     0.236 A 
HETATM    6  N2  UNL     1      23.710   3.242  49.375  1.00  0.00    -0.224 NA
HETATM    7  C6  UNL     1      24.287   2.796  50.500  1.00  0.00     0.141 A 
HETATM    8  C12 UNL     1      23.655   1.827  51.252  1.00  0.00     0.042 A 
HETATM    9  C13 UNL     1      24.252   1.381  52.394  1.00  0.00     0.057 A 
HETATM   10  C14 UNL     1      23.646   0.412  53.165  1.00  0.00     0.103 A 
ENDROOT
BRANCH   7  11
HETATM   11  N3  UNL     1      25.550   3.365  50.854  1.00  0.00    -0.342 N 
HETATM   12  H6  UNL     1      26.188   3.117  51.610  1.00  0.00     0.167 HD
BRANCH  11  13
HETATM   13  C7  UNL     1      26.027   4.444  50.059  1.00  0.00     0.035 A 
HETATM   14  C8  UNL     1      27.065   4.246  49.251  1.00  0.00     0.032 A 
HETATM   15  C9  UNL     1      27.628   5.284  48.398  1.00  0.00     0.071 A 
HETATM   16  C10 UNL     1      27.071   6.463  48.444  1.00  0.00     0.225 A 
HETATM   17  F1  UNL     1      27.600   7.442  47.641  1.00  0.00    -0.178 F 
HETATM   18  O2  UNL     1      25.993   6.710  49.268  1.00  0.00    -0.321 OA
HETATM   19  C11 UNL     1      25.397   5.776  50.112  1.00  0.00     0.235 A 
ENDBRANCH  11  13
ENDBRANCH   7  11
BRANCH  10  20
HETATM   20  O3  UNL     1      24.108  -0.138  54.327  1.00  0.00    -0.347 OA
BRANCH  20  21
HETATM   21  C15 UNL     1      25.317  -0.863  54.463  1.00  0.00     0.206 C 
BRANCH  21  22
HETATM   22  C16 UNL     1      26.381   0.077  54.948  1.00  0.00     0.299 C 
BRANCH  22  23
HETATM   23  N4  UNL     1      27.478   0.269  54.047  1.00  0.00     0.090 N 
HETATM   24  C17 UNL     1      27.593  -0.675  52.987  1.00  0.00     0.272 C 
HETATM   25  C18 UNL     1      28.902  -1.407  53.180  1.00  0.00     0.032 C 
HETATM   26  C19 UNL     1      29.754  -0.398  53.902  1.00  0.00     0.032 C 
HETATM   27  C20 UNL     1      28.745   0.391  54.694  1.00  0.00     0.272 C 
ENDBRANCH  22  23
ENDBRANCH  21  22
ENDBRANCH  20  21
ENDBRANCH  10  20
BRANCH   1  28
HETATM   28  O1  UNL     1      21.726  -1.057  53.439  1.00  0.00    -0.353 OA
HETATM   29  C1  UNL     1      20.391  -0.862  53.793  1.00  0.00     0.210 C 
ENDBRANCH   1  28
TORSDOF 7
ENDMDL
MODEL 5
REMARK VINA RESULT:      -7.6      1.999      2.593
REMARK  7 active torsions:
REMARK  status: ('A' for Active; 'I' for Inactive)
REMARK    1  A    between atoms: O1_2  and  C2_3 
REMARK    2  A    between atoms: C6_9  and  N3_10 
REMARK    3  A    between atoms: N3_10  and  C7_11 
REMARK    4  A    between atoms: C14_20  and  O3_21 
REMARK    5  A    between atoms: O3_21  and  C15_22 
REMARK    6  A    between atoms: C15_22  and  C16_23 
REMARK    7  A    between atoms: C16_23  and  N4_24 
ROOT
HETATM    1  C2  UNL     1      21.555   2.056  51.901  1.00  0.00     0.103 A 
HETATM    2  C3  UNL     1      21.442   1.187  52.975  1.00  0.00     0.072 A 
HETATM    3  C4  UNL     1      22.546   0.457  53.379  1.00  0.00     0.075 A 
HETATM    4  N1  UNL     1      22.478  -0.400  54.421  1.00  0.00    -0.241 NA
HETATM    5  C5  UNL     1      23.580  -1.107  54.803  1.00  0.00     0.236 A 
HETATM    6  N2  UNL     1      24.741  -0.928  54.111  1.00  0.00    -0.224 NA
HETATM    7  C6  UNL     1      24.831  -0.082  53.074  1.00  0.00     0.141 A 
HETATM    8  C12 UNL     1      23.721   0.637  52.682  1.00  0.00     0.042 A 
HETATM    9  C13 UNL     1      23.826   1.493  51.626  1.00  0.00     0.057 A 
HETATM   10  C14 UNL     1      22.734   2.226  51.212  1.00  0.00     0.103 A 
ENDROOT
BRANCH   7  11
HETATM   11  N3  UNL     1      26.103   0.023  52.429  1.00  0.00    -0.342 N 
HETATM   12  H6  UNL     1      26.403  -0.327  51.518  1.00  0.00     0.167 HD
BRANCH  11  13
HETATM   13  C7  UNL     1      27.136   0.710  53.126  1.00  0.00     0.035 A 
HETATM   14  C8  UNL     1      28.232   0.046  53.480  1.00  0.00     0.032 A 
HETATM   15  C9  UNL     1      29.345   0.657  54.196  1.00  0.00     0.071 A 
HETATM   16  C10 UNL     1      29.240   1.922  54.496  1.00  0.00     0.225 A 
HETATM   17  F1  UNL     1      30.286   2.500  55.169  1.00  0.00    -0.178 F 
HETATM   18  O2  UNL     1      28.119   2.646  54.146  1.00  0.00    -0.321 OA
HETATM   19  C11 UNL     1      27.015   2.139  53.464  1.00  0.00     0.235 A 
ENDBRANCH  11  13
ENDBRANCH   7  11
BRANCH  10  20
HETATM   20  O3  UNL     1      22.673   3.120  50.181  1.00  0.00    -0.347 OA
BRANCH  20  21
HETATM   21  C15 UNL     1      22.876   4.517  50.298  1.00  0.00     0.206 C 
BRANCH  21  22
HETATM   22  C16 UNL     1      23.877   4.939  49.263  1.00  0.00     0.299 C 
BRANCH  22  23
HETATM   23  N4  UNL     1      25.230   5.024  49.727  1.00  0.00     0.090 N 
HETATM   24  C17 UNL     1      25.883   6.274  49.535  1.00  0.00     0.272 C 
HETATM   25  C18 UNL     1      27.047   6.032  48.601  1.00  0.00     0.032 C 
HETATM   26  C19 UNL     1      27.400   4.593  48.862  1.00  0.00     0.032 C 
HETATM   27  C20 UNL     1      26.076   3.983  49.238  1.00  0.00     0.272 C 
ENDBRANCH  22  23
ENDBRANCH  21  22
ENDBRANCH  20  21
ENDBRANCH  10  20
BRANCH   1  28
HETATM   28  O1  UNL     1      20.384   2.746  51.569  1.00  0.00    -0.353 OA
HETATM   29  C1  UNL     1      19.423   2.164  50.742  1.00  0.00     0.210 C 
ENDBRANCH   1  28
TORSDOF 7
ENDMDL
MODEL 6
REMARK VINA RESULT:      -7.5      2.121      2.544
REMARK  7 active torsions:
REMARK  status: ('A' for Active; 'I' for Inactive)
REMARK    1  A    between atoms: O1_2  and  C2_3 
REMARK    2  A    between atoms: C6_9  and  N3_10 
REMARK    3  A    between atoms: N3_10  and  C7_11 
REMARK    4  A    between atoms: C14_20  and  O3_21 
REMARK    5  A    between atoms: O3_21  and  C15_22 
REMARK    6  A    between atoms: C15_22  and  C16_23 
REMARK    7  A    between atoms: C16_23  and  N4_24 
ROOT
HETATM    1  C2  UNL     1      20.766   1.723  52.501  1.00  0.00     0.103 A 
HETATM    2  C3  UNL     1      20.880   0.715  53.446  1.00  0.00     0.072 A 
HETATM    3  C4  UNL     1      22.133   0.231  53.777  1.00  0.00     0.075 A 
HETATM    4  N1  UNL     1      22.288  -0.750  54.692  1.00  0.00    -0.241 NA
HETATM    5  C5  UNL     1      23.534  -1.210  55.004  1.00  0.00     0.236 A 
HETATM    6  N2  UNL     1      24.609  -0.658  54.372  1.00  0.00    -0.224 NA
HETATM    7  C6  UNL     1      24.479   0.317  53.460  1.00  0.00     0.141 A 
HETATM    8  C12 UNL     1      23.222   0.787  53.140  1.00  0.00     0.042 A 
HETATM    9  C13 UNL     1      23.104   1.779  52.211  1.00  0.00     0.057 A 
HETATM   10  C14 UNL     1      21.861   2.270  51.871  1.00  0.00     0.103 A 
ENDROOT
BRANCH   7  11
HETATM   11  N3  UNL     1      25.680   0.818  52.867  1.00  0.00    -0.342 N 
HETATM   12  H6  UNL     1      25.816   1.609  52.238  1.00  0.00     0.167 HD
BRANCH  11  13
HETATM   13  C7  UNL     1      26.893   0.141  53.174  1.00  0.00     0.035 A 
HETATM   14  C8  UNL     1      27.818   0.763  53.900  1.00  0.00     0.032 A 
HETATM   15  C9  UNL     1      29.092   0.157  54.268  1.00  0.00     0.071 A 
HETATM   16  C10 UNL     1      29.317  -1.059  53.853  1.00  0.00     0.225 A 
HETATM   17  F1  UNL     1      30.515  -1.630  54.198  1.00  0.00    -0.178 F 
HETATM   18  O2  UNL     1      28.384  -1.738  53.098  1.00  0.00    -0.321 OA
HETATM   19  C11 UNL     1      27.147  -1.233  52.704  1.00  0.00     0.235 A 
ENDBRANCH  11  13
ENDBRANCH   7  11
BRANCH  10  20
HETATM   20  O3  UNL     1      21.572   3.253  50.968  1.00  0.00    -0.347 OA
BRANCH  20  21
HETATM   21  C15 UNL     1      22.233   4.503  50.882  1.00  0.00     0.206 C 
BRANCH  21  22
HETATM   22  C16 UNL     1      23.244   4.430  49.775  1.00  0.00     0.299 C 
BRANCH  22  23
HETATM   23  N4  UNL     1      24.612   4.440  50.202  1.00  0.00     0.090 N 
HETATM   24  C17 UNL     1      25.339   5.637  49.954  1.00  0.00     0.272 C 
HETATM   25  C18 UNL     1      26.459   5.292  48.999  1.00  0.00     0.032 C 
HETATM   26  C19 UNL     1      26.725   3.841  49.298  1.00  0.00     0.032 C 
HETATM   27  C20 UNL     1      25.375   3.330  49.725  1.00  0.00     0.272 C 
ENDBRANCH  22  23
ENDBRANCH  21  22
ENDBRANCH  20  21
ENDBRANCH  10  20
BRANCH   1  28
HETATM   28  O1  UNL     1      19.459   2.143  52.235  1.00  0.00    -0.353 OA
HETATM   29  C1  UNL     1      18.547   1.288  51.613  1.00  0.00     0.210 C 
ENDBRANCH   1  28
TORSDOF 7
ENDMDL
MODEL 7
REMARK VINA RESULT:      -7.4      2.128      4.881
REMARK  7 active torsions:
REMARK  status: ('A' for Active; 'I' for Inactive)
REMARK    1  A    between atoms: O1_2  and  C2_3 
REMARK    2  A    between atoms: C6_9  and  N3_10 
REMARK    3  A    between atoms: N3_10  and  C7_11 
REMARK    4  A    between atoms: C14_20  and  O3_21 
REMARK    5  A    between atoms: O3_21  and  C15_22 
REMARK    6  A    between atoms: C15_22  and  C16_23 
REMARK    7  A    between atoms: C16_23  and  N4_24 
ROOT
HETATM    1  C2  UNL     1      21.981   3.514  50.338  1.00  0.00     0.103 A 
HETATM    2  C3  UNL     1      23.040   3.705  49.464  1.00  0.00     0.072 A 
HETATM    3  C4  UNL     1      24.333   3.494  49.907  1.00  0.00     0.075 A 
HETATM    4  N1  UNL     1      25.393   3.669  49.088  1.00  0.00    -0.241 NA
HETATM    5  C5  UNL     1      26.660   3.453  49.545  1.00  0.00     0.236 A 
HETATM    6  N2  UNL     1      26.826   3.061  50.841  1.00  0.00    -0.224 NA
HETATM    7  C6  UNL     1      25.789   2.882  51.671  1.00  0.00     0.141 A 
HETATM    8  C12 UNL     1      24.505   3.098  51.216  1.00  0.00     0.042 A 
HETATM    9  C13 UNL     1      23.459   2.911  52.071  1.00  0.00     0.057 A 
HETATM   10  C14 UNL     1      22.165   3.118  51.644  1.00  0.00     0.103 A 
ENDROOT
BRANCH   7  11
HETATM   11  N3  UNL     1      26.089   2.466  53.007  1.00  0.00    -0.342 N 
HETATM   12  H6  UNL     1      25.707   2.795  53.894  1.00  0.00     0.167 HD
BRANCH  11  13
HETATM   13  C7  UNL     1      27.063   1.442  53.170  1.00  0.00     0.035 A 
HETATM   14  C8  UNL     1      28.241   1.747  53.709  1.00  0.00     0.032 A 
HETATM   15  C9  UNL     1      29.304   0.772  53.919  1.00  0.00     0.071 A 
HETATM   16  C10 UNL     1      29.069  -0.457  53.551  1.00  0.00     0.225 A 
HETATM   17  F1  UNL     1      30.069  -1.376  53.747  1.00  0.00    -0.178 F 
HETATM   18  O2  UNL     1      27.861  -0.813  52.988  1.00  0.00    -0.321 OA
HETATM   19  C11 UNL     1      26.797   0.054  52.754  1.00  0.00     0.235 A 
ENDBRANCH  11  13
ENDBRANCH   7  11
BRANCH  10  20
HETATM   20  O3  UNL     1      21.015   2.977  52.368  1.00  0.00    -0.347 OA
BRANCH  20  21
HETATM   21  C15 UNL     1      20.636   1.811  53.078  1.00  0.00     0.206 C 
BRANCH  21  22
HETATM   22  C16 UNL     1      20.770   0.632  52.161  1.00  0.00     0.299 C 
BRANCH  22  23
HETATM   23  N4  UNL     1      21.426  -0.507  52.731  1.00  0.00     0.090 N 
HETATM   24  C17 UNL     1      20.856  -1.028  53.926  1.00  0.00     0.272 C 
HETATM   25  C18 UNL     1      21.889  -0.871  55.020  1.00  0.00     0.032 C 
HETATM   26  C19 UNL     1      23.191  -0.916  54.268  1.00  0.00     0.032 C 
HETATM   27  C20 UNL     1      22.829  -0.328  52.930  1.00  0.00     0.272 C 
ENDBRANCH  22  23
ENDBRANCH  21  22
ENDBRANCH  20  21
ENDBRANCH  10  20
BRANCH   1  28
HETATM   28  O1  UNL     1      20.713   3.753  49.797  1.00  0.00    -0.353 OA
HETATM   29  C1  UNL     1      20.512   3.741  48.416  1.00  0.00     0.210 C 
ENDBRANCH   1  28
TORSDOF 7
ENDMDL
MODEL 8
REMARK VINA RESULT:      -7.3      3.125      6.321
REMARK  7 active torsions:
REMARK  status: ('A' for Active; 'I' for Inactive)
REMARK    1  A    between atoms: O1_2  and  C2_3 
REMARK    2  A    between atoms: C6_9  and  N3_10 
REMARK    3  A    between atoms: N3_10  and  C7_11 
REMARK    4  A    between atoms: C14_20  and  O3_21 
REMARK    5  A    between atoms: O3_21  and  C15_22 
REMARK    6  A    between atoms: C15_22  and  C16_23 
REMARK    7  A    between atoms: C16_23  and  N4_24 
ROOT
HETATM    1  C2  UNL     1      22.135   1.213  52.336  1.00  0.00     0.103 A 
HETATM    2  C3  UNL     1      21.145   1.978  51.741  1.00  0.00     0.072 A 
HETATM    3  C4  UNL     1      21.391   3.310  51.458  1.00  0.00     0.075 A 
HETATM    4  N1  UNL     1      20.454   4.090  50.878  1.00  0.00    -0.241 NA
HETATM    5  C5  UNL     1      20.720   5.400  50.607  1.00  0.00     0.236 A 
HETATM    6  N2  UNL     1      21.948   5.896  50.934  1.00  0.00    -0.224 NA
HETATM    7  C6  UNL     1      22.893   5.140  51.510  1.00  0.00     0.141 A 
HETATM    8  C12 UNL     1      22.631   3.814  51.788  1.00  0.00     0.042 A 
HETATM    9  C13 UNL     1      23.602   3.056  52.373  1.00  0.00     0.057 A 
HETATM   10  C14 UNL     1      23.369   1.728  52.662  1.00  0.00     0.103 A 
ENDROOT
BRANCH   7  11
HETATM   11  N3  UNL     1      24.142   5.772  51.804  1.00  0.00    -0.342 N 
HETATM   12  H6  UNL     1      24.534   6.055  52.703  1.00  0.00     0.167 HD
BRANCH  11  13
HETATM   13  C7  UNL     1      24.999   6.070  50.708  1.00  0.00     0.035 A 
HETATM   14  C8  UNL     1      25.574   5.070  50.044  1.00  0.00     0.032 A 
HETATM   15  C9  UNL     1      26.466   5.269  48.909  1.00  0.00     0.071 A 
HETATM   16  C10 UNL     1      26.701   6.498  48.542  1.00  0.00     0.225 A 
HETATM   17  F1  UNL     1      27.541   6.688  47.473  1.00  0.00    -0.178 F 
HETATM   18  O2  UNL     1      26.125   7.562  49.204  1.00  0.00    -0.321 OA
HETATM   19  C11 UNL     1      25.263   7.459  50.294  1.00  0.00     0.235 A 
ENDBRANCH  11  13
ENDBRANCH   7  11
BRANCH  10  20
HETATM   20  O3  UNL     1      24.228   0.838  53.242  1.00  0.00    -0.347 OA
BRANCH  20  21
HETATM   21  C15 UNL     1      25.558   0.594  52.820  1.00  0.00     0.206 C 
BRANCH  21  22
HETATM   22  C16 UNL     1      26.484   0.924  53.954  1.00  0.00     0.299 C 
BRANCH  22  23
HETATM   23  N4  UNL     1      27.409  -0.113  54.303  1.00  0.00     0.090 N 
HETATM   24  C17 UNL     1      28.661   0.312  54.828  1.00  0.00     0.272 C 
HETATM   25  C18 UNL     1      29.730  -0.142  53.859  1.00  0.00     0.032 C 
HETATM   26  C19 UNL     1      29.118  -1.361  53.223  1.00  0.00     0.032 C 
HETATM   27  C20 UNL     1      27.644  -1.055  53.255  1.00  0.00     0.272 C 
ENDBRANCH  22  23
ENDBRANCH  21  22
ENDBRANCH  20  21
ENDBRANCH  10  20
BRANCH   1  28
HETATM   28  O1  UNL     1      21.789  -0.120  52.583  1.00  0.00    -0.353 OA
HETATM   29  C1  UNL     1      21.176  -0.488  53.781  1.00  0.00     0.210 C 
ENDBRANCH   1  28
TORSDOF 7
ENDMDL
MODEL 9
REMARK VINA RESULT:      -7.2      3.381      6.256
REMARK  7 active torsions:
REMARK  status: ('A' for Active; 'I' for Inactive)
REMARK    1  A    between atoms: O1_2  and  C2_3 
REMARK    2  A    between atoms: C6_9  and  N3_10 
REMARK    3  A    between atoms: N3_10  and  C7_11 
REMARK    4  A    between atoms: C14_20  and  O3_21 
REMARK    5  A    between atoms: O3_21  and  C15_22 
REMARK    6  A    between atoms: C15_22  and  C16_23 
REMARK    7  A    between atoms: C16_23  and  N4_24 
ROOT
HETATM    1  C2  UNL     1      25.812  -0.435  53.924  1.00  0.00     0.103 A 
HETATM    2  C3  UNL     1      24.818  -0.973  54.727  1.00  0.00     0.072 A 
HETATM    3  C4  UNL     1      23.495  -0.863  54.339  1.00  0.00     0.075 A 
HETATM    4  N1  UNL     1      22.498  -1.374  55.092  1.00  0.00    -0.241 NA
HETATM    5  C5  UNL     1      21.200  -1.254  54.689  1.00  0.00     0.236 A 
HETATM    6  N2  UNL     1      20.939  -0.611  53.515  1.00  0.00    -0.224 NA
HETATM    7  C6  UNL     1      21.914  -0.096  52.751  1.00  0.00     0.141 A 
HETATM    8  C12 UNL     1      23.229  -0.213  53.153  1.00  0.00     0.042 A 
HETATM    9  C13 UNL     1      24.210   0.315  52.367  1.00  0.00     0.057 A 
HETATM   10  C14 UNL     1      25.533   0.213  52.742  1.00  0.00     0.103 A 
ENDROOT
BRANCH   7  11
HETATM   11  N3  UNL     1      21.517   0.555  51.541  1.00  0.00    -0.342 N 
HETATM   12  H6  UNL     1      21.895   0.463  50.597  1.00  0.00     0.167 HD
BRANCH  11  13
HETATM   13  C7  UNL     1      20.437   1.478  51.618  1.00  0.00     0.035 A 
HETATM   14  C8  UNL     1      19.301   1.201  50.984  1.00  0.00     0.032 A 
HETATM   15  C9  UNL     1      18.138   2.080  51.000  1.00  0.00     0.071 A 
HETATM   16  C10 UNL     1      18.238   3.190  51.677  1.00  0.00     0.225 A 
HETATM   17  F1  UNL     1      17.144   4.018  51.694  1.00  0.00    -0.178 F 
HETATM   18  O2  UNL     1      19.399   3.514  52.348  1.00  0.00    -0.321 OA
HETATM   19  C11 UNL     1      20.551   2.732  52.383  1.00  0.00     0.235 A 
ENDBRANCH  11  13
ENDBRANCH   7  11
BRANCH  10  20
HETATM   20  O3  UNL     1      26.628   0.683  52.073  1.00  0.00    -0.347 OA
BRANCH  20  21
HETATM   21  C15 UNL     1      26.992   2.047  51.960  1.00  0.00     0.206 C 
BRANCH  21  22
HETATM   22  C16 UNL     1      26.589   2.535  50.600  1.00  0.00     0.299 C 
BRANCH  22  23
HETATM   23  N4  UNL     1      25.772   3.712  50.596  1.00  0.00     0.090 N 
HETATM   24  C17 UNL     1      24.365   3.501  50.613  1.00  0.00     0.272 C 
HETATM   25  C18 UNL     1      23.811   4.065  49.323  1.00  0.00     0.032 C 
HETATM   26  C19 UNL     1      24.794   5.151  48.977  1.00  0.00     0.032 C 
HETATM   27  C20 UNL     1      26.087   4.632  49.549  1.00  0.00     0.272 C 
ENDBRANCH  22  23
ENDBRANCH  21  22
ENDBRANCH  20  21
ENDBRANCH  10  20
BRANCH   1  28
HETATM   28  O1  UNL     1      27.116  -0.597  54.402  1.00  0.00    -0.353 OA
HETATM   29  C1  UNL     1      27.775   0.450  55.046  1.00  0.00     0.210 C 
ENDBRANCH   1  28
TORSDOF 7
ENDMDL
