MODEL 1
REMARK VINA RESULT:      -8.2      0.000      0.000
REMARK  2 active torsions:
REMARK  status: ('A' for Active; 'I' for Inactive)
REMARK    1  A    between atoms: C15_20  and  C16_21 
REMARK    2  A    between atoms: C17_22  and  C18_23 
ROOT
HETATM    1  C1  UNL     1      21.850   6.046  51.260  1.00  0.00     0.039 C 
HETATM    2  C2  UNL     1      23.143   5.387  51.554  1.00  0.00     0.133 C 
HETATM    3  C3  UNL     1      24.225   5.824  50.542  1.00  0.00     0.032 C 
HETATM    4  C4  UNL     1      24.909   6.903  50.864  1.00  0.00     0.001 C 
HETATM    5  C5  UNL     1      25.972   7.492  50.082  1.00  0.00     0.029 C 
HETATM    6  C6  UNL     1      25.779   8.847  49.509  1.00  0.00     0.009 C 
HETATM    7  C7  UNL     1      24.703   8.844  48.505  1.00  0.00    -0.001 C 
HETATM    8  C8  UNL     1      24.343   7.543  48.606  1.00  0.00     0.022 C 
HETATM    9  C9  UNL     1      23.324   6.716  47.920  1.00  0.00    -0.004 C 
HETATM   10  C10 UNL     1      23.435   5.538  48.456  1.00  0.00     0.090 C 
HETATM   11  N1  UNL     1      24.187   4.867  49.431  1.00  0.00    -0.332 N 
HETATM   12  C11 UNL     1      24.737   3.485  49.293  1.00  0.00     0.237 C 
HETATM   13  N2  UNL     1      23.441   2.771  49.039  1.00  0.00    -0.285 N 
HETATM   14  N3  UNL     1      22.216   2.674  49.786  1.00  0.00    -0.172 NA
HETATM   15  C12 UNL     1      21.992   3.583  50.743  1.00  0.00     0.229 C 
HETATM   16  N4  UNL     1      23.141   3.936  51.576  1.00  0.00    -0.339 N 
HETATM   17  C13 UNL     1      24.045   3.011  52.101  1.00  0.00     0.217 C 
HETATM   18  N5  UNL     1      24.899   3.131  53.162  1.00  0.00    -0.368 N 
HETATM   19  C14 UNL     1      25.927   2.106  53.043  1.00  0.00     0.011 C 
HETATM   20  C15 UNL     1      26.521   1.381  54.011  1.00  0.00     0.025 C 
HETATM   21  C19 UNL     1      26.331   1.891  51.578  1.00  0.00     0.098 C 
HETATM   22  P1  UNL     1      25.500   3.215  50.844  1.00  0.00    -0.020 P 
HETATM   23  H15 UNL     1      23.412   2.223  48.116  1.00  0.00     0.185 HD
HETATM   24  H18 UNL     1      24.933   3.784  53.977  1.00  0.00     0.161 HD
ENDROOT
BRANCH  20  25
HETATM   25  C16 UNL     1      27.544   0.380  53.733  1.00  0.00    -0.001 C 
HETATM   26  C17 UNL     1      28.787   0.544  54.151  1.00  0.00    -0.012 C 
BRANCH  26  27
HETATM   27  C18 UNL     1      29.762  -0.516  53.828  1.00  0.00     0.141 C 
HETATM   28 CL1  UNL     1      28.936  -1.921  53.118  1.00  0.00    -0.126 Cl
ENDBRANCH  26  27
ENDBRANCH  20  25
TORSDOF 2
ENDMDL
MODEL 2
REMARK VINA RESULT:      -8.0      3.429      6.770
REMARK  2 active torsions:
REMARK  status: ('A' for Active; 'I' for Inactive)
REMARK    1  A    between atoms: C15_20  and  C16_21 
REMARK    2  A    between atoms: C17_22  and  C18_23 
ROOT
HETATM    1  C1  UNL     1      21.282   0.996  49.467  1.00  0.00     0.039 C 
HETATM    2  C2  UNL     1      22.388   1.913  49.827  1.00  0.00     0.133 C 
HETATM    3  C3  UNL     1      22.637   1.899  51.351  1.00  0.00     0.032 C 
HETATM    4  C4  UNL     1      23.489   0.993  51.785  1.00  0.00     0.001 C 
HETATM    5  C5  UNL     1      23.885   0.798  53.162  1.00  0.00     0.029 C 
HETATM    6  C6  UNL     1      23.532  -0.472  53.841  1.00  0.00     0.009 C 
HETATM    7  C7  UNL     1      22.073  -0.605  53.979  1.00  0.00    -0.001 C 
HETATM    8  C8  UNL     1      21.711   0.539  53.353  1.00  0.00     0.022 C 
HETATM    9  C9  UNL     1      20.400   1.168  53.067  1.00  0.00    -0.004 C 
HETATM   10  C10 UNL     1      20.688   2.254  52.415  1.00  0.00     0.090 C 
HETATM   11  N1  UNL     1      21.803   2.956  51.933  1.00  0.00    -0.332 N 
HETATM   12  C11 UNL     1      21.982   4.437  52.002  1.00  0.00     0.237 C 
HETATM   13  N2  UNL     1      20.742   4.831  51.253  1.00  0.00    -0.285 N 
HETATM   14  N3  UNL     1      20.255   4.518  49.936  1.00  0.00    -0.172 NA
HETATM   15  C12 UNL     1      20.787   3.463  49.306  1.00  0.00     0.229 C 
HETATM   16  N4  UNL     1      22.234   3.300  49.432  1.00  0.00    -0.339 N 
HETATM   17  C13 UNL     1      23.155   4.344  49.318  1.00  0.00     0.217 C 
HETATM   18  N5  UNL     1      24.492   4.301  49.036  1.00  0.00    -0.368 N 
HETATM   19  C14 UNL     1      25.093   5.558  49.463  1.00  0.00     0.011 C 
HETATM   20  C15 UNL     1      26.074   6.272  48.880  1.00  0.00     0.025 C 
HETATM   21  C19 UNL     1      24.461   6.060  50.768  1.00  0.00     0.098 C 
HETATM   22  P1  UNL     1      23.511   4.680  51.189  1.00  0.00    -0.020 P 
HETATM   23  H15 UNL     1      20.079   5.472  51.801  1.00  0.00     0.185 HD
HETATM   24  H18 UNL     1      25.103   3.575  48.599  1.00  0.00     0.161 HD
ENDROOT
BRANCH  20  25
HETATM   25  C16 UNL     1      26.574   7.525  49.433  1.00  0.00    -0.001 C 
HETATM   26  C17 UNL     1      27.651   8.107  48.933  1.00  0.00    -0.012 C 
BRANCH  26  27
HETATM   27  C18 UNL     1      28.091   9.374  49.550  1.00  0.00     0.141 C 
HETATM   28 CL1  UNL     1      29.862   9.514  49.477  1.00  0.00    -0.126 Cl
ENDBRANCH  26  27
ENDBRANCH  20  25
TORSDOF 2
ENDMDL
MODEL 3
REMARK VINA RESULT:      -7.5      7.301      9.981
REMARK  2 active torsions:
REMARK  status: ('A' for Active; 'I' for Inactive)
REMARK    1  A    between atoms: C15_20  and  C16_21 
REMARK    2  A    between atoms: C17_22  and  C18_23 
ROOT
HETATM    1  C1  UNL     1      34.324   7.934  48.329  1.00  0.00     0.039 C 
HETATM    2  C2  UNL     1      32.871   7.716  48.511  1.00  0.00     0.133 C 
HETATM    3  C3  UNL     1      32.383   6.528  47.654  1.00  0.00     0.032 C 
HETATM    4  C4  UNL     1      32.449   5.342  48.225  1.00  0.00     0.001 C 
HETATM    5  C5  UNL     1      32.041   4.092  47.625  1.00  0.00     0.029 C 
HETATM    6  C6  UNL     1      33.065   3.054  47.356  1.00  0.00     0.009 C 
HETATM    7  C7  UNL     1      34.028   3.515  46.343  1.00  0.00    -0.001 C 
HETATM    8  C8  UNL     1      33.526   4.756  46.146  1.00  0.00     0.022 C 
HETATM    9  C9  UNL     1      33.917   5.881  45.264  1.00  0.00    -0.004 C 
HETATM   10  C10 UNL     1      33.067   6.826  45.532  1.00  0.00     0.090 C 
HETATM   11  N1  UNL     1      31.962   7.075  46.360  1.00  0.00    -0.332 N 
HETATM   12  C11 UNL     1      30.715   7.781  45.939  1.00  0.00     0.237 C 
HETATM   13  N2  UNL     1      31.346   9.068  45.495  1.00  0.00    -0.285 N 
HETATM   14  N3  UNL     1      32.180  10.030  46.164  1.00  0.00    -0.172 NA
HETATM   15  C12 UNL     1      32.796   9.649  47.290  1.00  0.00     0.229 C 
HETATM   16  N4  UNL     1      32.004   8.841  48.214  1.00  0.00    -0.339 N 
HETATM   17  C13 UNL     1      30.676   9.108  48.553  1.00  0.00     0.217 C 
HETATM   18  N5  UNL     1      29.953   8.701  49.640  1.00  0.00    -0.368 N 
HETATM   19  C14 UNL     1      28.537   8.846  49.331  1.00  0.00     0.011 C 
HETATM   20  C15 UNL     1      27.527   9.231  50.135  1.00  0.00     0.025 C 
HETATM   21  C19 UNL     1      28.247   8.484  47.868  1.00  0.00     0.098 C 
HETATM   22  P1  UNL     1      29.779   7.825  47.416  1.00  0.00    -0.020 P 
HETATM   23  H15 UNL     1      31.142   9.331  44.474  1.00  0.00     0.185 HD
HETATM   24  H18 UNL     1      30.228   8.334  50.579  1.00  0.00     0.161 HD
ENDROOT
BRANCH  20  25
HETATM   25  C16 UNL     1      26.146   9.330  49.676  1.00  0.00    -0.001 C 
HETATM   26  C17 UNL     1      25.236   8.457  50.070  1.00  0.00    -0.012 C 
BRANCH  26  27
HETATM   27  C18 UNL     1      23.861   8.627  49.560  1.00  0.00     0.141 C 
HETATM   28 CL1  UNL     1      22.711   7.724  50.571  1.00  0.00    -0.126 Cl
ENDBRANCH  26  27
ENDBRANCH  20  25
TORSDOF 2
ENDMDL
MODEL 4
REMARK VINA RESULT:      -7.4      3.715      7.248
REMARK  2 active torsions:
REMARK  status: ('A' for Active; 'I' for Inactive)
REMARK    1  A    between atoms: C15_20  and  C16_21 
REMARK    2  A    between atoms: C17_22  and  C18_23 
ROOT
HETATM    1  C1  UNL     1      22.680   2.823  48.842  1.00  0.00     0.039 C 
HETATM    2  C2  UNL     1      23.680   3.907  48.974  1.00  0.00     0.133 C 
HETATM    3  C3  UNL     1      24.524   3.722  50.253  1.00  0.00     0.032 C 
HETATM    4  C4  UNL     1      25.609   2.985  50.124  1.00  0.00     0.001 C 
HETATM    5  C5  UNL     1      26.553   2.683  51.175  1.00  0.00     0.029 C 
HETATM    6  C6  UNL     1      26.707   1.278  51.624  1.00  0.00     0.009 C 
HETATM    7  C7  UNL     1      25.470   0.788  52.252  1.00  0.00    -0.001 C 
HETATM    8  C8  UNL     1      24.712   1.897  52.083  1.00  0.00     0.022 C 
HETATM    9  C9  UNL     1      23.318   2.238  52.450  1.00  0.00    -0.004 C 
HETATM   10  C10 UNL     1      23.144   3.447  52.008  1.00  0.00     0.090 C 
HETATM   11  N1  UNL     1      23.844   4.455  51.327  1.00  0.00    -0.332 N 
HETATM   12  C11 UNL     1      23.804   5.909  51.666  1.00  0.00     0.237 C 
HETATM   13  N2  UNL     1      22.323   6.111  51.534  1.00  0.00    -0.285 N 
HETATM   14  N3  UNL     1      21.399   5.895  50.453  1.00  0.00    -0.172 NA
HETATM   15  C12 UNL     1      21.786   5.101  49.447  1.00  0.00     0.229 C 
HETATM   16  N4  UNL     1      23.166   5.264  48.994  1.00  0.00    -0.339 N 
HETATM   17  C13 UNL     1      23.787   6.498  48.794  1.00  0.00     0.217 C 
HETATM   18  N5  UNL     1      24.884   6.812  48.041  1.00  0.00    -0.368 N 
HETATM   19  C14 UNL     1      25.404   8.095  48.496  1.00  0.00     0.011 C 
HETATM   20  C15 UNL     1      25.941   9.098  47.776  1.00  0.00     0.025 C 
HETATM   21  C19 UNL     1      25.286   8.232  50.020  1.00  0.00     0.098 C 
HETATM   22  P1  UNL     1      24.814   6.622  50.428  1.00  0.00    -0.020 P 
HETATM   23  H15 UNL     1      21.848   6.489  52.419  1.00  0.00     0.185 HD
HETATM   24  H18 UNL     1      25.371   6.323  47.256  1.00  0.00     0.161 HD
ENDROOT
BRANCH  20  25
HETATM   25  C16 UNL     1      26.421  10.335  48.380  1.00  0.00    -0.001 C 
HETATM   26  C17 UNL     1      27.652  10.764  48.164  1.00  0.00    -0.012 C 
BRANCH  26  27
HETATM   27  C18 UNL     1      28.060  12.026  48.813  1.00  0.00     0.141 C 
HETATM   28 CL1  UNL     1      27.044  13.370  48.244  1.00  0.00    -0.126 Cl
ENDBRANCH  26  27
ENDBRANCH  20  25
TORSDOF 2
ENDMDL
MODEL 5
REMARK VINA RESULT:      -7.3      4.299      7.184
REMARK  2 active torsions:
REMARK  status: ('A' for Active; 'I' for Inactive)
REMARK    1  A    between atoms: C15_20  and  C16_21 
REMARK    2  A    between atoms: C17_22  and  C18_23 
ROOT
HETATM    1  C1  UNL     1      23.767   4.517  52.957  1.00  0.00     0.039 C 
HETATM    2  C2  UNL     1      22.913   3.348  52.647  1.00  0.00     0.133 C 
HETATM    3  C3  UNL     1      23.746   2.214  52.009  1.00  0.00     0.032 C 
HETATM    4  C4  UNL     1      24.294   1.362  52.851  1.00  0.00     0.001 C 
HETATM    5  C5  UNL     1      25.104   0.221  52.488  1.00  0.00     0.029 C 
HETATM    6  C6  UNL     1      26.531   0.193  52.890  1.00  0.00     0.009 C 
HETATM    7  C7  UNL     1      27.287   1.260  52.216  1.00  0.00    -0.001 C 
HETATM    8  C8  UNL     1      26.264   1.827  51.536  1.00  0.00     0.022 C 
HETATM    9  C9  UNL     1      26.179   2.971  50.598  1.00  0.00    -0.004 C 
HETATM   10  C10 UNL     1      24.921   3.051  50.284  1.00  0.00     0.090 C 
HETATM   11  N1  UNL     1      23.702   2.412  50.557  1.00  0.00    -0.332 N 
HETATM   12  C11 UNL     1      22.651   2.096  49.543  1.00  0.00     0.237 C 
HETATM   13  N2  UNL     1      22.419   3.492  49.043  1.00  0.00    -0.285 N 
HETATM   14  N3  UNL     1      22.032   4.713  49.697  1.00  0.00    -0.172 NA
HETATM   15  C12 UNL     1      22.166   4.781  51.027  1.00  0.00     0.229 C 
HETATM   16  N4  UNL     1      21.778   3.586  51.774  1.00  0.00    -0.339 N 
HETATM   17  C13 UNL     1      20.624   2.843  51.524  1.00  0.00     0.217 C 
HETATM   18  N5  UNL     1      19.950   1.974  52.338  1.00  0.00    -0.368 N 
HETATM   19  C14 UNL     1      19.104   1.128  51.508  1.00  0.00     0.011 C 
HETATM   20  C15 UNL     1      17.868   0.655  51.759  1.00  0.00     0.025 C 
HETATM   21  C19 UNL     1      19.799   0.772  50.187  1.00  0.00     0.098 C 
HETATM   22  P1  UNL     1      21.383   1.380  50.512  1.00  0.00    -0.020 P 
HETATM   23  H15 UNL     1      22.573   3.615  47.988  1.00  0.00     0.185 HD
HETATM   24  H18 UNL     1      19.944   1.831  53.373  1.00  0.00     0.161 HD
ENDROOT
BRANCH  20  25
HETATM   25  C16 UNL     1      17.140  -0.190  50.820  1.00  0.00    -0.001 C 
HETATM   26  C17 UNL     1      15.934  -0.646  51.110  1.00  0.00    -0.012 C 
BRANCH  26  27
HETATM   27  C18 UNL     1      15.264  -1.495  50.105  1.00  0.00     0.141 C 
HETATM   28 CL1  UNL     1      15.951  -1.201  48.491  1.00  0.00    -0.126 Cl
ENDBRANCH  26  27
ENDBRANCH  20  25
TORSDOF 2
ENDMDL
MODEL 6
REMARK VINA RESULT:      -7.3      6.785      9.836
REMARK  2 active torsions:
REMARK  status: ('A' for Active; 'I' for Inactive)
REMARK    1  A    between atoms: C15_20  and  C16_21 
REMARK    2  A    between atoms: C17_22  and  C18_23 
ROOT
HETATM    1  C1  UNL     1      20.604   4.428  50.348  1.00  0.00     0.039 C 
HETATM    2  C2  UNL     1      19.461   3.942  51.154  1.00  0.00     0.133 C 
HETATM    3  C3  UNL     1      19.672   2.471  51.575  1.00  0.00     0.032 C 
HETATM    4  C4  UNL     1      20.317   2.285  52.709  1.00  0.00     0.001 C 
HETATM    5  C5  UNL     1      20.621   1.005  53.306  1.00  0.00     0.029 C 
HETATM    6  C6  UNL     1      22.039   0.592  53.442  1.00  0.00     0.009 C 
HETATM    7  C7  UNL     1      22.661   0.406  52.121  1.00  0.00    -0.001 C 
HETATM    8  C8  UNL     1      21.602   0.755  51.355  1.00  0.00     0.022 C 
HETATM    9  C9  UNL     1      21.390   0.830  49.890  1.00  0.00    -0.004 C 
HETATM   10  C10 UNL     1      20.169   1.252  49.751  1.00  0.00     0.090 C 
HETATM   11  N1  UNL     1      19.069   1.634  50.532  1.00  0.00    -0.332 N 
HETATM   12  C11 UNL     1      17.649   1.263  50.256  1.00  0.00     0.237 C 
HETATM   13  N2  UNL     1      17.547   1.844  48.876  1.00  0.00    -0.285 N 
HETATM   14  N3  UNL     1      17.754   3.168  48.355  1.00  0.00    -0.172 NA
HETATM   15  C12 UNL     1      18.445   4.035  49.106  1.00  0.00     0.229 C 
HETATM   16  N4  UNL     1      18.150   4.025  50.537  1.00  0.00    -0.339 N 
HETATM   17  C13 UNL     1      16.863   3.966  51.073  1.00  0.00     0.217 C 
HETATM   18  N5  UNL     1      16.417   4.322  52.316  1.00  0.00    -0.368 N 
HETATM   19  C14 UNL     1      15.135   3.672  52.549  1.00  0.00     0.011 C 
HETATM   20  C15 UNL     1      14.047   4.143  53.189  1.00  0.00     0.025 C 
HETATM   21  C19 UNL     1      15.113   2.258  51.954  1.00  0.00     0.098 C 
HETATM   22  P1  UNL     1      16.779   2.088  51.530  1.00  0.00    -0.020 P 
HETATM   23  H15 UNL     1      17.268   1.137  48.118  1.00  0.00     0.185 HD
HETATM   24  H18 UNL     1      16.813   4.935  53.064  1.00  0.00     0.161 HD
ENDROOT
BRANCH  20  25
HETATM   25  C16 UNL     1      12.823   3.365  53.343  1.00  0.00    -0.001 C 
HETATM   26  C17 UNL     1      12.272   3.194  54.532  1.00  0.00    -0.012 C 
BRANCH  26  27
HETATM   27  C18 UNL     1      11.034   2.393  54.602  1.00  0.00     0.141 C 
HETATM   28 CL1  UNL     1      11.017   1.409  56.083  1.00  0.00    -0.126 Cl
ENDBRANCH  26  27
ENDBRANCH  20  25
TORSDOF 2
ENDMDL
MODEL 7
REMARK VINA RESULT:      -7.2      5.060      7.691
REMARK  2 active torsions:
REMARK  status: ('A' for Active; 'I' for Inactive)
REMARK    1  A    between atoms: C15_20  and  C16_21 
REMARK    2  A    between atoms: C17_22  and  C18_23 
ROOT
HETATM    1  C1  UNL     1      30.630   9.815  49.088  1.00  0.00     0.039 C 
HETATM    2  C2  UNL     1      29.514   8.858  49.260  1.00  0.00     0.133 C 
HETATM    3  C3  UNL     1      29.617   7.705  48.237  1.00  0.00     0.032 C 
HETATM    4  C4  UNL     1      30.329   6.663  48.616  1.00  0.00     0.001 C 
HETATM    5  C5  UNL     1      30.557   5.468  47.836  1.00  0.00     0.029 C 
HETATM    6  C6  UNL     1      31.935   5.150  47.391  1.00  0.00     0.009 C 
HETATM    7  C7  UNL     1      32.428   6.163  46.445  1.00  0.00    -0.001 C 
HETATM    8  C8  UNL     1      31.350   6.981  46.452  1.00  0.00     0.022 C 
HETATM    9  C9  UNL     1      31.031   8.245  45.749  1.00  0.00    -0.004 C 
HETATM   10  C10 UNL     1      29.848   8.574  46.176  1.00  0.00     0.090 C 
HETATM   11  N1  UNL     1      28.855   8.112  47.052  1.00  0.00    -0.332 N 
HETATM   12  C11 UNL     1      27.388   8.120  46.769  1.00  0.00     0.237 C 
HETATM   13  N2  UNL     1      27.233   9.592  46.519  1.00  0.00    -0.285 N 
HETATM   14  N3  UNL     1      27.524  10.754  47.314  1.00  0.00    -0.172 NA
HETATM   15  C12 UNL     1      28.352  10.609  48.356  1.00  0.00     0.229 C 
HETATM   16  N4  UNL     1      28.172   9.401  49.158  1.00  0.00    -0.339 N 
HETATM   17  C13 UNL     1      26.932   8.900  49.557  1.00  0.00     0.217 C 
HETATM   18  N5  UNL     1      26.623   8.047  50.581  1.00  0.00    -0.368 N 
HETATM   19  C14 UNL     1      25.307   7.478  50.324  1.00  0.00     0.011 C 
HETATM   20  C15 UNL     1      24.323   7.184  51.196  1.00  0.00     0.025 C 
HETATM   21  C19 UNL     1      25.103   7.204  48.828  1.00  0.00     0.098 C 
HETATM   22  P1  UNL     1      26.705   7.491  48.251  1.00  0.00    -0.020 P 
HETATM   23  H15 UNL     1      26.828   9.836  45.556  1.00  0.00     0.185 HD
HETATM   24  H18 UNL     1      27.134   7.762  51.446  1.00  0.00     0.161 HD
ENDROOT
BRANCH  20  25
HETATM   25  C16 UNL     1      23.047   6.612  50.783  1.00  0.00    -0.001 C 
HETATM   26  C17 UNL     1      22.629   5.458  51.273  1.00  0.00    -0.012 C 
BRANCH  26  27
HETATM   27  C18 UNL     1      21.326   4.948  50.804  1.00  0.00     0.141 C 
HETATM   28 CL1  UNL     1      20.623   3.846  52.009  1.00  0.00    -0.126 Cl
ENDBRANCH  26  27
ENDBRANCH  20  25
TORSDOF 2
ENDMDL
MODEL 8
REMARK VINA RESULT:      -7.1      6.523      8.671
REMARK  2 active torsions:
REMARK  status: ('A' for Active; 'I' for Inactive)
REMARK    1  A    between atoms: C15_20  and  C16_21 
REMARK    2  A    between atoms: C17_22  and  C18_23 
ROOT
HETATM    1  C1  UNL     1      27.183  10.369  46.909  1.00  0.00     0.039 C 
HETATM    2  C2  UNL     1      28.107   9.223  46.751  1.00  0.00     0.133 C 
HETATM    3  C3  UNL     1      27.935   8.215  47.908  1.00  0.00     0.032 C 
HETATM    4  C4  UNL     1      27.028   7.276  47.722  1.00  0.00     0.001 C 
HETATM    5  C5  UNL     1      26.701   6.224  48.657  1.00  0.00     0.029 C 
HETATM    6  C6  UNL     1      25.346   6.192  49.260  1.00  0.00     0.009 C 
HETATM    7  C7  UNL     1      25.127   7.366  50.120  1.00  0.00    -0.001 C 
HETATM    8  C8  UNL     1      26.314   7.983  49.917  1.00  0.00     0.022 C 
HETATM    9  C9  UNL     1      26.905   9.239  50.433  1.00  0.00    -0.004 C 
HETATM   10  C10 UNL     1      28.071   9.317  49.864  1.00  0.00     0.090 C 
HETATM   11  N1  UNL     1      28.877   8.606  48.962  1.00  0.00    -0.332 N 
HETATM   12  C11 UNL     1      30.348   8.392  49.108  1.00  0.00     0.237 C 
HETATM   13  N2  UNL     1      30.761   9.834  49.166  1.00  0.00    -0.285 N 
HETATM   14  N3  UNL     1      30.574  10.941  48.268  1.00  0.00    -0.172 NA
HETATM   15  C12 UNL     1      29.624  10.834  47.330  1.00  0.00     0.229 C 
HETATM   16  N4  UNL     1      29.521   9.537  46.665  1.00  0.00    -0.339 N 
HETATM   17  C13 UNL     1      30.615   8.794  46.217  1.00  0.00     0.217 C 
HETATM   18  N5  UNL     1      30.670   7.801  45.278  1.00  0.00    -0.368 N 
HETATM   19  C14 UNL     1      31.899   7.045  45.480  1.00  0.00     0.011 C 
HETATM   20  C15 UNL     1      32.722   6.501  44.563  1.00  0.00     0.025 C 
HETATM   21  C19 UNL     1      32.219   6.895  46.972  1.00  0.00     0.098 C 
HETATM   22  P1  UNL     1      30.756   7.508  47.655  1.00  0.00    -0.020 P 
HETATM   23  H15 UNL     1      31.303  10.103  50.052  1.00  0.00     0.185 HD
HETATM   24  H18 UNL     1      30.028   7.520  44.503  1.00  0.00     0.161 HD
ENDROOT
BRANCH  20  25
HETATM   25  C16 UNL     1      33.928   5.765  44.923  1.00  0.00    -0.001 C 
HETATM   26  C17 UNL     1      34.003   4.457  44.752  1.00  0.00    -0.012 C 
BRANCH  26  27
HETATM   27  C18 UNL     1      35.259   3.788  45.142  1.00  0.00     0.141 C 
HETATM   28 CL1  UNL     1      35.214   3.341  46.862  1.00  0.00    -0.126 Cl
ENDBRANCH  26  27
ENDBRANCH  20  25
TORSDOF 2
ENDMDL
MODEL 9
REMARK VINA RESULT:      -6.9      5.907      7.373
REMARK  2 active torsions:
REMARK  status: ('A' for Active; 'I' for Inactive)
REMARK    1  A    between atoms: C15_20  and  C16_21 
REMARK    2  A    between atoms: C17_22  and  C18_23 
ROOT
HETATM    1  C1  UNL     1      26.896  11.218  47.885  1.00  0.00     0.039 C 
HETATM    2  C2  UNL     1      27.920  10.189  47.594  1.00  0.00     0.133 C 
HETATM    3  C3  UNL     1      27.355   9.103  46.653  1.00  0.00     0.032 C 
HETATM    4  C4  UNL     1      27.484   9.337  45.362  1.00  0.00     0.001 C 
HETATM    5  C5  UNL     1      27.043   8.464  44.299  1.00  0.00     0.029 C 
HETATM    6  C6  UNL     1      25.968   8.926  43.387  1.00  0.00     0.009 C 
HETATM    7  C7  UNL     1      24.700   9.095  44.114  1.00  0.00    -0.001 C 
HETATM    8  C8  UNL     1      25.138   8.770  45.352  1.00  0.00     0.022 C 
HETATM    9  C9  UNL     1      24.473   8.681  46.673  1.00  0.00    -0.004 C 
HETATM   10  C10 UNL     1      25.416   8.339  47.498  1.00  0.00     0.090 C 
HETATM   11  N1  UNL     1      26.789   8.049  47.502  1.00  0.00    -0.332 N 
HETATM   12  C11 UNL     1      27.430   6.936  48.263  1.00  0.00     0.237 C 
HETATM   13  N2  UNL     1      26.967   7.329  49.636  1.00  0.00    -0.285 N 
HETATM   14  N3  UNL     1      27.124   8.529  50.414  1.00  0.00    -0.172 NA
HETATM   15  C12 UNL     1      27.475   9.650  49.773  1.00  0.00     0.229 C 
HETATM   16  N4  UNL     1      28.496   9.506  48.737  1.00  0.00    -0.339 N 
HETATM   17  C13 UNL     1      29.656   8.741  48.878  1.00  0.00     0.217 C 
HETATM   18  N5  UNL     1      30.837   8.811  48.191  1.00  0.00    -0.368 N 
HETATM   19  C14 UNL     1      31.552   7.555  48.377  1.00  0.00     0.011 C 
HETATM   20  C15 UNL     1      32.874   7.344  48.521  1.00  0.00     0.025 C 
HETATM   21  C19 UNL     1      30.586   6.363  48.394  1.00  0.00     0.098 C 
HETATM   22  P1  UNL     1      29.129   7.154  47.908  1.00  0.00    -0.020 P 
HETATM   23  H15 UNL     1      26.402   6.572  50.146  1.00  0.00     0.185 HD
HETATM   24  H18 UNL     1      31.273   9.556  47.603  1.00  0.00     0.161 HD
ENDROOT
BRANCH  20  25
HETATM   25  C16 UNL     1      33.447   6.015  48.701  1.00  0.00    -0.001 C 
HETATM   26  C17 UNL     1      34.134   5.435  47.733  1.00  0.00    -0.012 C 
BRANCH  26  27
HETATM   27  C18 UNL     1      34.680   4.089  47.996  1.00  0.00     0.141 C 
HETATM   28 CL1  UNL     1      35.138   3.299  46.470  1.00  0.00    -0.126 Cl
ENDBRANCH  26  27
ENDBRANCH  20  25
TORSDOF 2
ENDMDL
