MODEL 1
REMARK VINA RESULT:      -7.4      0.000      0.000
REMARK  8 active torsions:
REMARK  status: ('A' for Active; 'I' for Inactive)
REMARK    1  A    between atoms: O1_2  and  C2_3 
REMARK    2  A    between atoms: C5_6  and  C6_7 
REMARK       I    between atoms: C6_7  and  N1_9 
REMARK    3  A    between atoms: N1_9  and  C7_10 
REMARK    4  A    between atoms: C7_10  and  C8_11 
REMARK    5  A    between atoms: C8_11  and  C9_12 
REMARK    6  A    between atoms: C9_12  and  O3_13 
REMARK    7  A    between atoms: S1_15  and  C11_16 
REMARK    8  A    between atoms: C12_17  and  C13_18 
ROOT
HETATM    1  C2  UNL     1      23.106   2.635  51.766  1.00  0.00     0.103 A 
HETATM    2  C3  UNL     1      22.878   1.628  52.625  1.00  0.00     0.045 A 
HETATM    3  C4  UNL     1      23.808   0.604  53.085  1.00  0.00     0.021 A 
HETATM    4  C5  UNL     1      25.071   0.406  52.788  1.00  0.00     0.038 A 
HETATM    5  C10 UNL     1      25.683   1.356  51.834  1.00  0.00     0.062 A 
HETATM    6  S1  UNL     1      24.833   2.588  51.184  1.00  0.00    -0.115 SA
ENDROOT
BRANCH   4   7
HETATM    7  C6  UNL     1      25.942  -0.646  53.291  1.00  0.00     0.252 C 
HETATM    8  O2  UNL     1      25.663  -1.207  54.398  1.00  0.00    -0.268 OA
HETATM    9  N1  UNL     1      27.102  -1.147  52.690  1.00  0.00    -0.357 N 
HETATM   10  H6  UNL     1      27.244  -0.596  51.780  1.00  0.00     0.162 HD
BRANCH   9  11
HETATM   11  C7  UNL     1      28.086  -2.143  52.949  1.00  0.00     0.125 C 
BRANCH  11  12
HETATM   12  C8  UNL     1      29.431  -1.754  53.403  1.00  0.00     0.046 C 
BRANCH  12  13
HETATM   13  C9  UNL     1      29.756  -0.332  53.648  1.00  0.00     0.165 C 
BRANCH  13  14
HETATM   14  O3  UNL     1      28.974   0.056  54.787  1.00  0.00    -0.401 OA
HETATM   15  H13 UNL     1      29.247   0.981  55.026  1.00  0.00     0.209 HD
ENDBRANCH  13  14
ENDBRANCH  12  13
ENDBRANCH  11  12
ENDBRANCH   9  11
ENDBRANCH   4   7
BRANCH   6  16
HETATM   16  C11 UNL     1      25.584   4.018  50.419  1.00  0.00     0.046 C 
HETATM   17  C12 UNL     1      26.498   3.869  49.474  1.00  0.00     0.014 C 
BRANCH  17  18
HETATM   18  C13 UNL     1      27.123   5.034  48.838  1.00  0.00    -0.053 A 
HETATM   19  C14 UNL     1      28.370   5.135  48.427  1.00  0.00     0.009 A 
HETATM   20  C15 UNL     1      28.610   6.456  47.846  1.00  0.00     0.020 A 
HETATM   21  C16 UNL     1      27.475   7.138  47.922  1.00  0.00     0.016 A 
HETATM   22 CL1  UNL     1      27.316   8.789  47.332  1.00  0.00    -0.089 Cl
HETATM   23  C17 UNL     1      26.426   6.315  48.551  1.00  0.00     0.089 A 
ENDBRANCH  17  18
ENDBRANCH   6  16
BRANCH   1  24
HETATM   24  O1  UNL     1      22.248   3.620  51.309  1.00  0.00    -0.349 OA
HETATM   25  C1  UNL     1      22.251   4.856  52.001  1.00  0.00     0.211 C 
ENDBRANCH   1  24
TORSDOF 8
ENDMDL
MODEL 2
REMARK VINA RESULT:      -7.1      1.465      1.971
REMARK  8 active torsions:
REMARK  status: ('A' for Active; 'I' for Inactive)
REMARK    1  A    between atoms: O1_2  and  C2_3 
REMARK    2  A    between atoms: C5_6  and  C6_7 
REMARK       I    between atoms: C6_7  and  N1_9 
REMARK    3  A    between atoms: N1_9  and  C7_10 
REMARK    4  A    between atoms: C7_10  and  C8_11 
REMARK    5  A    between atoms: C8_11  and  C9_12 
REMARK    6  A    between atoms: C9_12  and  O3_13 
REMARK    7  A    between atoms: S1_15  and  C11_16 
REMARK    8  A    between atoms: C12_17  and  C13_18 
ROOT
HETATM    1  C2  UNL     1      22.666   1.402  51.553  1.00  0.00     0.103 A 
HETATM    2  C3  UNL     1      22.737   0.552  52.591  1.00  0.00     0.045 A 
HETATM    3  C4  UNL     1      23.912   0.158  53.359  1.00  0.00     0.021 A 
HETATM    4  C5  UNL     1      25.167   0.522  53.240  1.00  0.00     0.038 A 
HETATM    5  C10 UNL     1      25.478   1.485  52.162  1.00  0.00     0.062 A 
HETATM    6  S1  UNL     1      24.320   2.068  51.170  1.00  0.00    -0.115 SA
ENDROOT
BRANCH   4   7
HETATM    7  C6  UNL     1      26.294   0.083  54.051  1.00  0.00     0.252 C 
HETATM    8  O2  UNL     1      26.072  -0.511  55.153  1.00  0.00    -0.268 OA
HETATM    9  N1  UNL     1      27.655   0.236  53.765  1.00  0.00    -0.357 N 
HETATM   10  H6  UNL     1      27.721   0.758  52.829  1.00  0.00     0.162 HD
BRANCH   9  11
HETATM   11  C7  UNL     1      28.908  -0.101  54.353  1.00  0.00     0.125 C 
BRANCH  11  12
HETATM   12  C8  UNL     1      29.615  -1.323  53.939  1.00  0.00     0.046 C 
BRANCH  12  13
HETATM   13  C9  UNL     1      29.049  -2.196  52.889  1.00  0.00     0.165 C 
BRANCH  13  14
HETATM   14  O3  UNL     1      28.863  -3.478  53.507  1.00  0.00    -0.401 OA
HETATM   15  H13 UNL     1      28.300  -4.019  52.892  1.00  0.00     0.209 HD
ENDBRANCH  13  14
ENDBRANCH  12  13
ENDBRANCH  11  12
ENDBRANCH   9  11
ENDBRANCH   4   7
BRANCH   6  16
HETATM   16  C11 UNL     1      24.510   3.544  50.181  1.00  0.00     0.046 C 
HETATM   17  C12 UNL     1      25.713   4.038  49.940  1.00  0.00     0.014 C 
BRANCH  17  18
HETATM   18  C13 UNL     1      25.883   5.249  49.130  1.00  0.00    -0.053 A 
HETATM   19  C14 UNL     1      24.931   6.048  48.695  1.00  0.00     0.009 A 
HETATM   20  C15 UNL     1      25.504   7.148  47.919  1.00  0.00     0.020 A 
HETATM   21  C16 UNL     1      26.820   6.984  47.905  1.00  0.00     0.016 A 
HETATM   22 CL1  UNL     1      27.909   8.092  47.077  1.00  0.00    -0.089 Cl
HETATM   23  C17 UNL     1      27.193   5.775  48.664  1.00  0.00     0.089 A 
ENDBRANCH  17  18
ENDBRANCH   6  16
BRANCH   1  24
HETATM   24  O1  UNL     1      21.571   1.795  50.804  1.00  0.00    -0.349 OA
HETATM   25  C1  UNL     1      20.459   0.919  50.771  1.00  0.00     0.211 C 
ENDBRANCH   1  24
TORSDOF 8
ENDMDL
MODEL 3
REMARK VINA RESULT:      -7.1      1.406      1.715
REMARK  8 active torsions:
REMARK  status: ('A' for Active; 'I' for Inactive)
REMARK    1  A    between atoms: O1_2  and  C2_3 
REMARK    2  A    between atoms: C5_6  and  C6_7 
REMARK       I    between atoms: C6_7  and  N1_9 
REMARK    3  A    between atoms: N1_9  and  C7_10 
REMARK    4  A    between atoms: C7_10  and  C8_11 
REMARK    5  A    between atoms: C8_11  and  C9_12 
REMARK    6  A    between atoms: C9_12  and  O3_13 
REMARK    7  A    between atoms: S1_15  and  C11_16 
REMARK    8  A    between atoms: C12_17  and  C13_18 
ROOT
HETATM    1  C2  UNL     1      23.063   2.953  50.648  1.00  0.00     0.103 A 
HETATM    2  C3  UNL     1      22.739   2.056  51.594  1.00  0.00     0.045 A 
HETATM    3  C4  UNL     1      23.629   1.246  52.414  1.00  0.00     0.021 A 
HETATM    4  C5  UNL     1      24.940   1.184  52.442  1.00  0.00     0.038 A 
HETATM    5  C10 UNL     1      25.664   2.065  51.500  1.00  0.00     0.062 A 
HETATM    6  S1  UNL     1      24.875   3.064  50.479  1.00  0.00    -0.115 SA
ENDROOT
BRANCH   4   7
HETATM    7  C6  UNL     1      25.767   0.343  53.296  1.00  0.00     0.252 C 
HETATM    8  O2  UNL     1      25.408  -0.856  53.522  1.00  0.00    -0.268 OA
HETATM    9  N1  UNL     1      26.962   0.697  53.933  1.00  0.00    -0.357 N 
HETATM   10  H6  UNL     1      27.156   1.723  53.685  1.00  0.00     0.162 HD
BRANCH   9  11
HETATM   11  C7  UNL     1      27.937   0.088  54.774  1.00  0.00     0.125 C 
BRANCH  11  12
HETATM   12  C8  UNL     1      29.231  -0.337  54.219  1.00  0.00     0.046 C 
BRANCH  12  13
HETATM   13  C9  UNL     1      29.302  -1.457  53.256  1.00  0.00     0.165 C 
BRANCH  13  14
HETATM   14  O3  UNL     1      28.086  -2.199  53.430  1.00  0.00    -0.401 OA
HETATM   15  H13 UNL     1      27.684  -2.315  52.529  1.00  0.00     0.209 HD
ENDBRANCH  13  14
ENDBRANCH  12  13
ENDBRANCH  11  12
ENDBRANCH   9  11
ENDBRANCH   4   7
BRANCH   6  16
HETATM   16  C11 UNL     1      25.639   4.461  49.668  1.00  0.00     0.046 C 
HETATM   17  C12 UNL     1      26.873   4.372  49.202  1.00  0.00     0.014 C 
BRANCH  17  18
HETATM   18  C13 UNL     1      27.513   5.511  48.535  1.00  0.00    -0.053 A 
HETATM   19  C14 UNL     1      26.936   6.638  48.169  1.00  0.00     0.009 A 
HETATM   20  C15 UNL     1      27.909   7.525  47.533  1.00  0.00     0.020 A 
HETATM   21  C16 UNL     1      29.079   6.899  47.530  1.00  0.00     0.016 A 
HETATM   22 CL1  UNL     1      30.539   7.613  46.854  1.00  0.00    -0.089 Cl
HETATM   23  C17 UNL     1      28.949   5.571  48.158  1.00  0.00     0.089 A 
ENDBRANCH  17  18
ENDBRANCH   6  16
BRANCH   1  24
HETATM   24  O1  UNL     1      22.244   3.736  49.853  1.00  0.00    -0.349 OA
HETATM   25  C1  UNL     1      21.925   5.032  50.327  1.00  0.00     0.211 C 
ENDBRANCH   1  24
TORSDOF 8
ENDMDL
MODEL 4
REMARK VINA RESULT:      -6.7      2.508      3.130
REMARK  8 active torsions:
REMARK  status: ('A' for Active; 'I' for Inactive)
REMARK    1  A    between atoms: O1_2  and  C2_3 
REMARK    2  A    between atoms: C5_6  and  C6_7 
REMARK       I    between atoms: C6_7  and  N1_9 
REMARK    3  A    between atoms: N1_9  and  C7_10 
REMARK    4  A    between atoms: C7_10  and  C8_11 
REMARK    5  A    between atoms: C8_11  and  C9_12 
REMARK    6  A    between atoms: C9_12  and  O3_13 
REMARK    7  A    between atoms: S1_15  and  C11_16 
REMARK    8  A    between atoms: C12_17  and  C13_18 
ROOT
HETATM    1  C2  UNL     1      21.854   0.530  52.267  1.00  0.00     0.103 A 
HETATM    2  C3  UNL     1      22.224  -0.330  53.231  1.00  0.00     0.045 A 
HETATM    3  C4  UNL     1      23.568  -0.623  53.713  1.00  0.00     0.021 A 
HETATM    4  C5  UNL     1      24.730  -0.138  53.343  1.00  0.00     0.038 A 
HETATM    5  C10 UNL     1      24.711   0.871  52.263  1.00  0.00     0.062 A 
HETATM    6  S1  UNL     1      23.319   1.359  51.566  1.00  0.00    -0.115 SA
ENDROOT
BRANCH   4   7
HETATM    7  C6  UNL     1      26.040  -0.483  53.876  1.00  0.00     0.252 C 
HETATM    8  O2  UNL     1      26.195  -0.575  55.135  1.00  0.00    -0.268 OA
HETATM    9  N1  UNL     1      27.210  -0.738  53.151  1.00  0.00    -0.357 N 
HETATM   10  H6  UNL     1      26.966  -0.618  52.112  1.00  0.00     0.162 HD
BRANCH   9  11
HETATM   11  C7  UNL     1      28.563  -1.097  53.412  1.00  0.00     0.125 C 
BRANCH  11  12
HETATM   12  C8  UNL     1      29.610  -0.065  53.449  1.00  0.00     0.046 C 
BRANCH  12  13
HETATM   13  C9  UNL     1      29.342   1.252  54.065  1.00  0.00     0.165 C 
BRANCH  13  14
HETATM   14  O3  UNL     1      28.711   0.972  55.323  1.00  0.00    -0.401 OA
HETATM   15  H13 UNL     1      29.360   0.450  55.865  1.00  0.00     0.209 HD
ENDBRANCH  13  14
ENDBRANCH  12  13
ENDBRANCH  11  12
ENDBRANCH   9  11
ENDBRANCH   4   7
BRANCH   6  16
HETATM   16  C11 UNL     1      23.156   2.866  50.619  1.00  0.00     0.046 C 
HETATM   17  C12 UNL     1      23.170   2.831  49.297  1.00  0.00     0.014 C 
BRANCH  17  18
HETATM   18  C13 UNL     1      23.038   4.060  48.507  1.00  0.00    -0.053 A 
HETATM   19  C14 UNL     1      22.194   4.277  47.520  1.00  0.00     0.009 A 
HETATM   20  C15 UNL     1      22.372   5.627  46.985  1.00  0.00     0.020 A 
HETATM   21  C16 UNL     1      23.343   6.206  47.678  1.00  0.00     0.016 A 
HETATM   22 CL1  UNL     1      23.886   7.851  47.364  1.00  0.00    -0.089 Cl
HETATM   23  C17 UNL     1      23.860   5.282  48.704  1.00  0.00     0.089 A 
ENDBRANCH  17  18
ENDBRANCH   6  16
BRANCH   1  24
HETATM   24  O1  UNL     1      20.591   0.831  51.786  1.00  0.00    -0.349 OA
HETATM   25  C1  UNL     1      19.492   0.178  52.395  1.00  0.00     0.211 C 
ENDBRANCH   1  24
TORSDOF 8
ENDMDL
MODEL 5
REMARK VINA RESULT:      -6.7      4.205      6.658
REMARK  8 active torsions:
REMARK  status: ('A' for Active; 'I' for Inactive)
REMARK    1  A    between atoms: O1_2  and  C2_3 
REMARK    2  A    between atoms: C5_6  and  C6_7 
REMARK       I    between atoms: C6_7  and  N1_9 
REMARK    3  A    between atoms: N1_9  and  C7_10 
REMARK    4  A    between atoms: C7_10  and  C8_11 
REMARK    5  A    between atoms: C8_11  and  C9_12 
REMARK    6  A    between atoms: C9_12  and  O3_13 
REMARK    7  A    between atoms: S1_15  and  C11_16 
REMARK    8  A    between atoms: C12_17  and  C13_18 
ROOT
HETATM    1  C2  UNL     1      24.091   3.882  49.450  1.00  0.00     0.103 A 
HETATM    2  C3  UNL     1      25.433   3.846  49.424  1.00  0.00     0.045 A 
HETATM    3  C4  UNL     1      26.338   3.179  50.352  1.00  0.00     0.021 A 
HETATM    4  C5  UNL     1      26.083   2.460  51.421  1.00  0.00     0.038 A 
HETATM    5  C10 UNL     1      24.658   2.279  51.771  1.00  0.00     0.062 A 
HETATM    6  S1  UNL     1      23.462   2.937  50.876  1.00  0.00    -0.115 SA
ENDROOT
BRANCH   4   7
HETATM    7  C6  UNL     1      27.046   1.819  52.304  1.00  0.00     0.252 C 
HETATM    8  O2  UNL     1      28.169   2.380  52.509  1.00  0.00    -0.268 OA
HETATM    9  N1  UNL     1      26.893   0.610  52.992  1.00  0.00    -0.357 N 
HETATM   10  H6  UNL     1      25.925   0.225  52.735  1.00  0.00     0.162 HD
BRANCH   9  11
HETATM   11  C7  UNL     1      27.640  -0.198  53.895  1.00  0.00     0.125 C 
BRANCH  11  12
HETATM   12  C8  UNL     1      28.705  -1.080  53.393  1.00  0.00     0.046 C 
BRANCH  12  13
HETATM   13  C9  UNL     1      30.127  -0.732  53.603  1.00  0.00     0.165 C 
BRANCH  13  14
HETATM   14  O3  UNL     1      30.218   0.683  53.383  1.00  0.00    -0.401 OA
HETATM   15  H13 UNL     1      30.981   0.834  52.765  1.00  0.00     0.209 HD
ENDBRANCH  13  14
ENDBRANCH  12  13
ENDBRANCH  11  12
ENDBRANCH   9  11
ENDBRANCH   4   7
BRANCH   6  16
HETATM   16  C11 UNL     1      21.760   2.397  50.943  1.00  0.00     0.046 C 
HETATM   17  C12 UNL     1      21.468   1.110  51.033  1.00  0.00     0.014 C 
BRANCH  17  18
HETATM   18  C13 UNL     1      20.075   0.653  51.089  1.00  0.00    -0.053 A 
HETATM   19  C14 UNL     1      19.161   0.791  50.150  1.00  0.00     0.009 A 
HETATM   20  C15 UNL     1      17.894   0.204  50.584  1.00  0.00     0.020 A 
HETATM   21  C16 UNL     1      18.076  -0.285  51.803  1.00  0.00     0.016 A 
HETATM   22 CL1  UNL     1      16.797  -1.088  52.708  1.00  0.00    -0.089 Cl
HETATM   23  C17 UNL     1      19.464  -0.054  52.244  1.00  0.00     0.089 A 
ENDBRANCH  17  18
ENDBRANCH   6  16
BRANCH   1  24
HETATM   24  O1  UNL     1      23.205   4.506  48.588  1.00  0.00    -0.349 OA
HETATM   25  C1  UNL     1      22.951   5.882  48.802  1.00  0.00     0.211 C 
ENDBRANCH   1  24
TORSDOF 8
ENDMDL
MODEL 6
REMARK VINA RESULT:      -6.7      3.678      6.276
REMARK  8 active torsions:
REMARK  status: ('A' for Active; 'I' for Inactive)
REMARK    1  A    between atoms: O1_2  and  C2_3 
REMARK    2  A    between atoms: C5_6  and  C6_7 
REMARK       I    between atoms: C6_7  and  N1_9 
REMARK    3  A    between atoms: N1_9  and  C7_10 
REMARK    4  A    between atoms: C7_10  and  C8_11 
REMARK    5  A    between atoms: C8_11  and  C9_12 
REMARK    6  A    between atoms: C9_12  and  O3_13 
REMARK    7  A    between atoms: S1_15  and  C11_16 
REMARK    8  A    between atoms: C12_17  and  C13_18 
ROOT
HETATM    1  C2  UNL     1      24.256   0.498  52.994  1.00  0.00     0.103 A 
HETATM    2  C3  UNL     1      23.244  -0.372  53.152  1.00  0.00     0.045 A 
HETATM    3  C4  UNL     1      21.838  -0.197  52.809  1.00  0.00     0.021 A 
HETATM    4  C5  UNL     1      21.214   0.826  52.273  1.00  0.00     0.038 A 
HETATM    5  C10 UNL     1      22.040   2.010  51.952  1.00  0.00     0.062 A 
HETATM    6  S1  UNL     1      23.644   2.046  52.248  1.00  0.00    -0.115 SA
ENDROOT
BRANCH   4   7
HETATM    7  C6  UNL     1      19.797   0.929  51.957  1.00  0.00     0.252 C 
HETATM    8  O2  UNL     1      19.276   2.079  51.803  1.00  0.00    -0.268 OA
HETATM    9  N1  UNL     1      18.886  -0.121  51.793  1.00  0.00    -0.357 N 
HETATM   10  H6  UNL     1      19.428  -1.033  51.958  1.00  0.00     0.162 HD
BRANCH   9  11
HETATM   11  C7  UNL     1      17.508  -0.291  51.478  1.00  0.00     0.125 C 
BRANCH  11  12
HETATM   12  C8  UNL     1      16.738  -1.387  52.088  1.00  0.00     0.046 C 
BRANCH  12  13
HETATM   13  C9  UNL     1      17.343  -2.231  53.139  1.00  0.00     0.165 C 
BRANCH  13  14
HETATM   14  O3  UNL     1      17.668  -1.340  54.216  1.00  0.00    -0.401 OA
HETATM   15  H13 UNL     1      16.902  -1.355  54.848  1.00  0.00     0.209 HD
ENDBRANCH  13  14
ENDBRANCH  12  13
ENDBRANCH  11  12
ENDBRANCH   9  11
ENDBRANCH   4   7
BRANCH   6  16
HETATM   16  C11 UNL     1      24.769   3.206  51.486  1.00  0.00     0.046 C 
HETATM   17  C12 UNL     1      24.768   3.377  50.174  1.00  0.00     0.014 C 
BRANCH  17  18
HETATM   18  C13 UNL     1      25.686   4.326  49.535  1.00  0.00    -0.053 A 
HETATM   19  C14 UNL     1      25.410   5.556  49.153  1.00  0.00     0.009 A 
HETATM   20  C15 UNL     1      26.591   6.180  48.556  1.00  0.00     0.020 A 
HETATM   21  C16 UNL     1      27.575   5.291  48.593  1.00  0.00     0.016 A 
HETATM   22 CL1  UNL     1      29.187   5.630  47.974  1.00  0.00    -0.089 Cl
HETATM   23  C17 UNL     1      27.107   4.037  49.211  1.00  0.00     0.089 A 
ENDBRANCH  17  18
ENDBRANCH   6  16
BRANCH   1  24
HETATM   24  O1  UNL     1      25.596   0.364  53.308  1.00  0.00    -0.349 OA
HETATM   25  C1  UNL     1      26.350  -0.569  52.555  1.00  0.00     0.211 C 
ENDBRANCH   1  24
TORSDOF 8
ENDMDL
MODEL 7
REMARK VINA RESULT:      -6.7      3.095      3.674
REMARK  8 active torsions:
REMARK  status: ('A' for Active; 'I' for Inactive)
REMARK    1  A    between atoms: O1_2  and  C2_3 
REMARK    2  A    between atoms: C5_6  and  C6_7 
REMARK       I    between atoms: C6_7  and  N1_9 
REMARK    3  A    between atoms: N1_9  and  C7_10 
REMARK    4  A    between atoms: C7_10  and  C8_11 
REMARK    5  A    between atoms: C8_11  and  C9_12 
REMARK    6  A    between atoms: C9_12  and  O3_13 
REMARK    7  A    between atoms: S1_15  and  C11_16 
REMARK    8  A    between atoms: C12_17  and  C13_18 
ROOT
HETATM    1  C2  UNL     1      21.000   0.586  52.535  1.00  0.00     0.103 A 
HETATM    2  C3  UNL     1      21.403  -0.501  53.214  1.00  0.00     0.045 A 
HETATM    3  C4  UNL     1      22.760  -0.887  53.581  1.00  0.00     0.021 A 
HETATM    4  C5  UNL     1      23.906  -0.291  53.350  1.00  0.00     0.038 A 
HETATM    5  C10 UNL     1      23.850   0.981  52.598  1.00  0.00     0.062 A 
HETATM    6  S1  UNL     1      22.437   1.612  52.081  1.00  0.00    -0.115 SA
ENDROOT
BRANCH   4   7
HETATM    7  C6  UNL     1      25.232  -0.740  53.751  1.00  0.00     0.252 C 
HETATM    8  O2  UNL     1      25.453  -1.007  54.974  1.00  0.00    -0.268 OA
HETATM    9  N1  UNL     1      26.349  -0.924  52.929  1.00  0.00    -0.357 N 
HETATM   10  H6  UNL     1      26.051  -0.657  51.933  1.00  0.00     0.162 HD
BRANCH   9  11
HETATM   11  C7  UNL     1      27.701  -1.353  53.057  1.00  0.00     0.125 C 
BRANCH  11  12
HETATM   12  C8  UNL     1      28.741  -0.404  53.483  1.00  0.00     0.046 C 
BRANCH  12  13
HETATM   13  C9  UNL     1      28.701   0.194  54.834  1.00  0.00     0.165 C 
BRANCH  13  14
HETATM   14  O3  UNL     1      27.679   1.200  54.785  1.00  0.00    -0.401 OA
HETATM   15  H13 UNL     1      28.106   2.062  55.035  1.00  0.00     0.209 HD
ENDBRANCH  13  14
ENDBRANCH  12  13
ENDBRANCH  11  12
ENDBRANCH   9  11
ENDBRANCH   4   7
BRANCH   6  16
HETATM   16  C11 UNL     1      22.229   3.320  51.597  1.00  0.00     0.046 C 
HETATM   17  C12 UNL     1      23.272   4.132  51.545  1.00  0.00     0.014 C 
BRANCH  17  18
HETATM   18  C13 UNL     1      23.116   5.537  51.150  1.00  0.00    -0.053 A 
HETATM   19  C14 UNL     1      24.026   6.486  51.234  1.00  0.00     0.009 A 
HETATM   20  C15 UNL     1      23.487   7.753  50.741  1.00  0.00     0.020 A 
HETATM   21  C16 UNL     1      22.235   7.534  50.361  1.00  0.00     0.016 A 
HETATM   22 CL1  UNL     1      21.206   8.799  49.698  1.00  0.00    -0.089 Cl
HETATM   23  C17 UNL     1      21.875   6.121  50.579  1.00  0.00     0.089 A 
ENDBRANCH  17  18
ENDBRANCH   6  16
BRANCH   1  24
HETATM   24  O1  UNL     1      19.724   0.980  52.171  1.00  0.00    -0.349 OA
HETATM   25  C1  UNL     1      18.710  -0.008  52.191  1.00  0.00     0.211 C 
ENDBRANCH   1  24
TORSDOF 8
ENDMDL
MODEL 8
REMARK VINA RESULT:      -6.6      4.658      8.586
REMARK  8 active torsions:
REMARK  status: ('A' for Active; 'I' for Inactive)
REMARK    1  A    between atoms: O1_2  and  C2_3 
REMARK    2  A    between atoms: C5_6  and  C6_7 
REMARK       I    between atoms: C6_7  and  N1_9 
REMARK    3  A    between atoms: N1_9  and  C7_10 
REMARK    4  A    between atoms: C7_10  and  C8_11 
REMARK    5  A    between atoms: C8_11  and  C9_12 
REMARK    6  A    between atoms: C9_12  and  O3_13 
REMARK    7  A    between atoms: S1_15  and  C11_16 
REMARK    8  A    between atoms: C12_17  and  C13_18 
ROOT
HETATM    1  C2  UNL     1      25.615   0.746  52.211  1.00  0.00     0.103 A 
HETATM    2  C3  UNL     1      26.613   1.580  51.875  1.00  0.00     0.045 A 
HETATM    3  C4  UNL     1      26.538   2.818  51.110  1.00  0.00     0.021 A 
HETATM    4  C5  UNL     1      25.507   3.422  50.567  1.00  0.00     0.038 A 
HETATM    5  C10 UNL     1      24.192   2.768  50.738  1.00  0.00     0.062 A 
HETATM    6  S1  UNL     1      24.029   1.367  51.560  1.00  0.00    -0.115 SA
ENDROOT
BRANCH   4   7
HETATM    7  C6  UNL     1      25.509   4.667  49.812  1.00  0.00     0.252 C 
HETATM    8  O2  UNL     1      24.596   4.873  48.951  1.00  0.00    -0.268 OA
HETATM    9  N1  UNL     1      26.428   5.718  49.912  1.00  0.00    -0.357 N 
HETATM   10  H6  UNL     1      27.152   5.430  50.650  1.00  0.00     0.162 HD
BRANCH   9  11
HETATM   11  C7  UNL     1      26.642   6.999  49.328  1.00  0.00     0.125 C 
BRANCH  11  12
HETATM   12  C8  UNL     1      26.132   8.209  49.991  1.00  0.00     0.046 C 
BRANCH  12  13
HETATM   13  C9  UNL     1      26.919   9.460  49.975  1.00  0.00     0.165 C 
BRANCH  13  14
HETATM   14  O3  UNL     1      27.632   9.488  51.221  1.00  0.00    -0.401 OA
HETATM   15  H13 UNL     1      28.188  10.311  51.221  1.00  0.00     0.209 HD
ENDBRANCH  13  14
ENDBRANCH  12  13
ENDBRANCH  11  12
ENDBRANCH   9  11
ENDBRANCH   4   7
BRANCH   6  16
HETATM   16  C11 UNL     1      22.473   0.769  52.204  1.00  0.00     0.046 C 
HETATM   17  C12 UNL     1      21.420   0.656  51.413  1.00  0.00     0.014 C 
BRANCH  17  18
HETATM   18  C13 UNL     1      20.136   0.167  51.928  1.00  0.00    -0.053 A 
HETATM   19  C14 UNL     1      19.919  -0.397  53.099  1.00  0.00     0.009 A 
HETATM   20  C15 UNL     1      18.507  -0.747  53.241  1.00  0.00     0.020 A 
HETATM   21  C16 UNL     1      17.889  -0.379  52.127  1.00  0.00     0.016 A 
HETATM   22 CL1  UNL     1      16.163  -0.615  51.872  1.00  0.00    -0.089 Cl
HETATM   23  C17 UNL     1      18.849   0.233  51.189  1.00  0.00     0.089 A 
ENDBRANCH  17  18
ENDBRANCH   6  16
BRANCH   1  24
HETATM   24  O1  UNL     1      25.652  -0.434  52.933  1.00  0.00    -0.349 OA
HETATM   25  C1  UNL     1      25.625  -0.332  54.345  1.00  0.00     0.211 C 
ENDBRANCH   1  24
TORSDOF 8
ENDMDL
MODEL 9
REMARK VINA RESULT:      -6.5      5.247      8.009
REMARK  8 active torsions:
REMARK  status: ('A' for Active; 'I' for Inactive)
REMARK    1  A    between atoms: O1_2  and  C2_3 
REMARK    2  A    between atoms: C5_6  and  C6_7 
REMARK       I    between atoms: C6_7  and  N1_9 
REMARK    3  A    between atoms: N1_9  and  C7_10 
REMARK    4  A    between atoms: C7_10  and  C8_11 
REMARK    5  A    between atoms: C8_11  and  C9_12 
REMARK    6  A    between atoms: C9_12  and  O3_13 
REMARK    7  A    between atoms: S1_15  and  C11_16 
REMARK    8  A    between atoms: C12_17  and  C13_18 
ROOT
HETATM    1  C2  UNL     1      21.183   0.210  53.107  1.00  0.00     0.103 A 
HETATM    2  C3  UNL     1      20.188   0.081  52.214  1.00  0.00     0.045 A 
HETATM    3  C4  UNL     1      20.146   0.545  50.833  1.00  0.00     0.021 A 
HETATM    4  C5  UNL     1      21.043   1.190  50.124  1.00  0.00     0.038 A 
HETATM    5  C10 UNL     1      22.314   1.517  50.806  1.00  0.00     0.062 A 
HETATM    6  S1  UNL     1      22.590   1.097  52.358  1.00  0.00    -0.115 SA
ENDROOT
BRANCH   4   7
HETATM    7  C6  UNL     1      20.929   1.624  48.739  1.00  0.00     0.252 C 
HETATM    8  O2  UNL     1      21.783   1.217  47.889  1.00  0.00    -0.268 OA
HETATM    9  N1  UNL     1      19.958   2.469  48.192  1.00  0.00    -0.357 N 
HETATM   10  H6  UNL     1      19.307   2.757  48.995  1.00  0.00     0.162 HD
BRANCH   9  11
HETATM   11  C7  UNL     1      19.620   3.015  46.921  1.00  0.00     0.125 C 
BRANCH  11  12
HETATM   12  C8  UNL     1      20.303   4.222  46.428  1.00  0.00     0.046 C 
BRANCH  12  13
HETATM   13  C9  UNL     1      21.161   5.018  47.332  1.00  0.00     0.165 C 
BRANCH  13  14
HETATM   14  O3  UNL     1      22.397   4.295  47.433  1.00  0.00    -0.401 OA
HETATM   15  H13 UNL     1      23.089   4.942  47.733  1.00  0.00     0.209 HD
ENDBRANCH  13  14
ENDBRANCH  12  13
ENDBRANCH  11  12
ENDBRANCH   9  11
ENDBRANCH   4   7
BRANCH   6  16
HETATM   16  C11 UNL     1      24.216   1.029  53.095  1.00  0.00     0.046 C 
HETATM   17  C12 UNL     1      25.028   0.019  52.832  1.00  0.00     0.014 C 
BRANCH  17  18
HETATM   18  C13 UNL     1      26.366  -0.050  53.430  1.00  0.00    -0.053 A 
HETATM   19  C14 UNL     1      26.779   0.573  54.516  1.00  0.00     0.009 A 
HETATM   20  C15 UNL     1      28.179   0.248  54.787  1.00  0.00     0.020 A 
HETATM   21  C16 UNL     1      28.589  -0.582  53.837  1.00  0.00     0.016 A 
HETATM   22 CL1  UNL     1      30.225  -1.229  53.780  1.00  0.00    -0.089 Cl
HETATM   23  C17 UNL     1      27.493  -0.853  52.889  1.00  0.00     0.089 A 
ENDBRANCH  17  18
ENDBRANCH   6  16
BRANCH   1  24
HETATM   24  O1  UNL     1      21.254  -0.217  54.421  1.00  0.00    -0.349 OA
HETATM   25  C1  UNL     1      21.748  -1.523  54.653  1.00  0.00     0.211 C 
ENDBRANCH   1  24
TORSDOF 8
ENDMDL
