MODEL 1
REMARK VINA RESULT:      -8.4      0.000      0.000
REMARK  1 active torsions:
REMARK  status: ('A' for Active; 'I' for Inactive)
REMARK    1  A    between atoms: C1_2  and  N2_3 
ROOT
HETATM    1  N2  UNL     1      27.006   2.646  50.981  1.00  0.00    -0.246 NA
HETATM    2  C2  UNL     1      26.274   2.464  52.032  1.00  0.00     0.049 C 
HETATM    3  C3  UNL     1      24.919   3.052  52.202  1.00  0.00     0.066 C 
HETATM    4  C4  UNL     1      23.905   1.937  52.445  1.00  0.00    -0.033 C 
HETATM    5  C5  UNL     1      24.599   0.765  52.845  1.00  0.00     0.089 A 
HETATM    6  C6  UNL     1      23.391  -0.044  53.184  1.00  0.00     0.121 A 
HETATM    7  C7  UNL     1      24.366  -0.892  53.458  1.00  0.00     0.128 A 
HETATM    8  N3  UNL     1      25.697  -0.531  53.278  1.00  0.00    -0.381 N 
HETATM    9  C8  UNL     1      26.726   0.364  53.518  1.00  0.00     0.041 A 
HETATM   10  C9  UNL     1      27.614  -0.142  54.437  1.00  0.00     0.033 A 
HETATM   11  C10 UNL     1      28.763   0.483  54.921  1.00  0.00     0.044 A 
HETATM   12  C11 UNL     1      28.980   1.732  54.387  1.00  0.00     0.117 A 
HETATM   13  F1  UNL     1      30.083   2.393  54.820  1.00  0.00    -0.206 F 
HETATM   14  C12 UNL     1      28.107   2.273  53.457  1.00  0.00     0.058 A 
HETATM   15  C13 UNL     1      26.976   1.626  52.999  1.00  0.00     0.018 A 
HETATM   16  O1  UNL     1      22.000   0.152  53.162  1.00  0.00    -0.374 OA
HETATM   17  C14 UNL     1      21.467   1.395  52.707  1.00  0.00     0.169 C 
HETATM   18  C15 UNL     1      22.431   2.398  52.196  1.00  0.00     0.032 C 
HETATM   19  H7  UNL     1      26.086  -1.306  52.702  1.00  0.00     0.160 HD
ENDROOT
BRANCH   1  20
HETATM   20  C1  UNL     1      26.417   3.470  49.959  1.00  0.00     0.223 C 
HETATM   21  N1  UNL     1      27.157   4.357  49.381  1.00  0.00    -0.293 NA
HETATM   22  H1  UNL     1      28.146   4.421  49.695  1.00  0.00     0.187 HD
ENDBRANCH   1  20
TORSDOF 1
ENDMDL
MODEL 2
REMARK VINA RESULT:      -8.0      3.699      5.652
REMARK  1 active torsions:
REMARK  status: ('A' for Active; 'I' for Inactive)
REMARK    1  A    between atoms: C1_2  and  N2_3 
ROOT
HETATM    1  N2  UNL     1      22.701   2.972  52.618  1.00  0.00    -0.246 NA
HETATM    2  C2  UNL     1      23.118   1.771  52.377  1.00  0.00     0.049 C 
HETATM    3  C3  UNL     1      24.386   1.469  51.663  1.00  0.00     0.066 C 
HETATM    4  C4  UNL     1      25.278   0.602  52.548  1.00  0.00    -0.033 C 
HETATM    5  C5  UNL     1      24.482   0.016  53.567  1.00  0.00     0.089 A 
HETATM    6  C6  UNL     1      25.539  -0.882  54.118  1.00  0.00     0.121 A 
HETATM    7  C7  UNL     1      24.511  -1.170  54.898  1.00  0.00     0.128 A 
HETATM    8  N3  UNL     1      23.286  -0.537  54.723  1.00  0.00    -0.381 N 
HETATM    9  C8  UNL     1      22.245  -0.177  53.883  1.00  0.00     0.041 A 
HETATM   10  C9  UNL     1      21.133  -0.951  54.117  1.00  0.00     0.033 A 
HETATM   11  C10 UNL     1      19.907  -0.873  53.457  1.00  0.00     0.044 A 
HETATM   12  C11 UNL     1      19.864   0.096  52.481  1.00  0.00     0.117 A 
HETATM   13  F1  UNL     1      18.696   0.221  51.802  1.00  0.00    -0.206 F 
HETATM   14  C12 UNL     1      20.965   0.895  52.219  1.00  0.00     0.058 A 
HETATM   15  C13 UNL     1      22.167   0.791  52.893  1.00  0.00     0.018 A 
HETATM   16  O1  UNL     1      26.886  -1.156  53.833  1.00  0.00    -0.374 OA
HETATM   17  C14 UNL     1      27.544  -0.455  52.778  1.00  0.00     0.169 C 
HETATM   18  C15 UNL     1      26.772   0.603  52.085  1.00  0.00     0.032 C 
HETATM   19  H7  UNL     1      23.053  -0.184  55.675  1.00  0.00     0.160 HD
ENDROOT
BRANCH   1  20
HETATM   20  C1  UNL     1      23.558   4.025  52.142  1.00  0.00     0.223 C 
HETATM   21  N1  UNL     1      23.792   5.028  52.922  1.00  0.00    -0.293 NA
HETATM   22  H1  UNL     1      23.340   5.011  53.858  1.00  0.00     0.187 HD
ENDBRANCH   1  20
TORSDOF 1
ENDMDL
MODEL 3
REMARK VINA RESULT:      -7.9      2.554      4.532
REMARK  1 active torsions:
REMARK  status: ('A' for Active; 'I' for Inactive)
REMARK    1  A    between atoms: C1_2  and  N2_3 
ROOT
HETATM    1  N2  UNL     1      23.002  -0.522  53.852  1.00  0.00    -0.246 NA
HETATM    2  C2  UNL     1      23.220   0.311  52.886  1.00  0.00     0.049 C 
HETATM    3  C3  UNL     1      22.201   0.673  51.866  1.00  0.00     0.066 C 
HETATM    4  C4  UNL     1      21.980   2.183  51.876  1.00  0.00    -0.033 C 
HETATM    5  C5  UNL     1      23.078   2.802  52.528  1.00  0.00     0.089 A 
HETATM    6  C6  UNL     1      22.691   4.210  52.220  1.00  0.00     0.121 A 
HETATM    7  C7  UNL     1      23.809   4.385  52.903  1.00  0.00     0.128 A 
HETATM    8  N3  UNL     1      24.519   3.296  53.397  1.00  0.00    -0.381 N 
HETATM    9  C8  UNL     1      25.127   2.073  53.168  1.00  0.00     0.041 A 
HETATM   10  C9  UNL     1      26.496   2.199  53.162  1.00  0.00     0.033 A 
HETATM   11  C10 UNL     1      27.428   1.181  52.957  1.00  0.00     0.044 A 
HETATM   12  C11 UNL     1      26.860  -0.054  52.743  1.00  0.00     0.117 A 
HETATM   13  F1  UNL     1      27.716  -1.087  52.535  1.00  0.00    -0.206 F 
HETATM   14  C12 UNL     1      25.484  -0.217  52.743  1.00  0.00     0.058 A 
HETATM   15  C13 UNL     1      24.589   0.814  52.950  1.00  0.00     0.018 A 
HETATM   16  O1  UNL     1      21.641   4.847  51.537  1.00  0.00    -0.374 OA
HETATM   17  C14 UNL     1      20.599   4.066  50.953  1.00  0.00     0.169 C 
HETATM   18  C15 UNL     1      20.646   2.602  51.177  1.00  0.00     0.032 C 
HETATM   19  H7  UNL     1      24.654   3.527  54.403  1.00  0.00     0.160 HD
ENDROOT
BRANCH   1  20
HETATM   20  C1  UNL     1      21.681  -1.093  53.882  1.00  0.00     0.223 C 
HETATM   21  N1  UNL     1      21.263  -1.621  54.984  1.00  0.00    -0.293 NA
HETATM   22  H1  UNL     1      21.917  -1.600  55.792  1.00  0.00     0.187 HD
ENDBRANCH   1  20
TORSDOF 1
ENDMDL
MODEL 4
REMARK VINA RESULT:      -7.7      2.559      4.761
REMARK  1 active torsions:
REMARK  status: ('A' for Active; 'I' for Inactive)
REMARK    1  A    between atoms: C1_2  and  N2_3 
ROOT
HETATM    1  N2  UNL     1      26.193   2.111  52.813  1.00  0.00    -0.246 NA
HETATM    2  C2  UNL     1      25.151   2.201  52.051  1.00  0.00     0.049 C 
HETATM    3  C3  UNL     1      24.023   1.233  52.082  1.00  0.00     0.066 C 
HETATM    4  C4  UNL     1      22.721   1.973  52.375  1.00  0.00    -0.033 C 
HETATM    5  C5  UNL     1      22.911   3.356  52.113  1.00  0.00     0.089 A 
HETATM    6  C6  UNL     1      21.486   3.763  52.290  1.00  0.00     0.121 A 
HETATM    7  C7  UNL     1      22.059   4.918  51.998  1.00  0.00     0.128 A 
HETATM    8  N3  UNL     1      23.425   4.992  51.751  1.00  0.00    -0.381 N 
HETATM    9  C8  UNL     1      24.532   4.536  51.056  1.00  0.00     0.041 A 
HETATM   10  C9  UNL     1      24.919   5.442  50.097  1.00  0.00     0.033 A 
HETATM   11  C10 UNL     1      25.986   5.314  49.209  1.00  0.00     0.044 A 
HETATM   12  C11 UNL     1      26.688   4.139  49.353  1.00  0.00     0.117 A 
HETATM   13  F1  UNL     1      27.740   3.955  48.514  1.00  0.00    -0.206 F 
HETATM   14  C12 UNL     1      26.328   3.204  50.309  1.00  0.00     0.058 A 
HETATM   15  C13 UNL     1      25.263   3.363  51.174  1.00  0.00     0.018 A 
HETATM   16  O1  UNL     1      20.278   3.118  52.604  1.00  0.00    -0.374 OA
HETATM   17  C14 UNL     1      20.271   1.714  52.861  1.00  0.00     0.169 C 
HETATM   18  C15 UNL     1      21.580   1.020  52.860  1.00  0.00     0.032 C 
HETATM   19  H7  UNL     1      23.748   5.753  52.385  1.00  0.00     0.160 HD
ENDROOT
BRANCH   1  20
HETATM   20  C1  UNL     1      26.196   0.991  53.716  1.00  0.00     0.223 C 
HETATM   21  N1  UNL     1      26.860   1.092  54.820  1.00  0.00    -0.293 NA
HETATM   22  H1  UNL     1      27.357   1.989  54.988  1.00  0.00     0.187 HD
ENDBRANCH   1  20
TORSDOF 1
ENDMDL
MODEL 5
REMARK VINA RESULT:      -7.6      1.577      2.245
REMARK  1 active torsions:
REMARK  status: ('A' for Active; 'I' for Inactive)
REMARK    1  A    between atoms: C1_2  and  N2_3 
ROOT
HETATM    1  N2  UNL     1      26.013   2.476  51.174  1.00  0.00    -0.246 NA
HETATM    2  C2  UNL     1      25.101   2.548  52.090  1.00  0.00     0.049 C 
HETATM    3  C3  UNL     1      24.125   3.665  52.191  1.00  0.00     0.066 C 
HETATM    4  C4  UNL     1      22.704   3.111  52.132  1.00  0.00    -0.033 C 
HETATM    5  C5  UNL     1      22.743   1.721  52.418  1.00  0.00     0.089 A 
HETATM    6  C6  UNL     1      21.266   1.515  52.479  1.00  0.00     0.121 A 
HETATM    7  C7  UNL     1      21.715   0.297  52.726  1.00  0.00     0.128 A 
HETATM    8  N3  UNL     1      23.079   0.035  52.764  1.00  0.00    -0.381 N 
HETATM    9  C8  UNL     1      24.334   0.344  53.262  1.00  0.00     0.041 A 
HETATM   10  C9  UNL     1      24.739  -0.590  54.187  1.00  0.00     0.033 A 
HETATM   11  C10 UNL     1      25.940  -0.597  54.896  1.00  0.00     0.044 A 
HETATM   12  C11 UNL     1      26.764   0.464  54.598  1.00  0.00     0.117 A 
HETATM   13  F1  UNL     1      27.950   0.514  55.257  1.00  0.00    -0.206 F 
HETATM   14  C12 UNL     1      26.389   1.423  53.671  1.00  0.00     0.058 A 
HETATM   15  C13 UNL     1      25.190   1.400  52.986  1.00  0.00     0.018 A 
HETATM   16  O1  UNL     1      20.123   2.318  52.326  1.00  0.00    -0.374 OA
HETATM   17  C14 UNL     1      20.267   3.704  52.017  1.00  0.00     0.169 C 
HETATM   18  C15 UNL     1      21.643   4.206  51.789  1.00  0.00     0.032 C 
HETATM   19  H7  UNL     1      23.191  -0.776  52.120  1.00  0.00     0.160 HD
ENDROOT
BRANCH   1  20
HETATM   20  C1  UNL     1      26.027   3.566  50.236  1.00  0.00     0.223 C 
HETATM   21  N1  UNL     1      27.168   4.013  49.828  1.00  0.00    -0.293 NA
HETATM   22  H1  UNL     1      28.017   3.549  50.209  1.00  0.00     0.187 HD
ENDBRANCH   1  20
TORSDOF 1
ENDMDL
MODEL 6
REMARK VINA RESULT:      -7.5      3.487      5.426
REMARK  1 active torsions:
REMARK  status: ('A' for Active; 'I' for Inactive)
REMARK    1  A    between atoms: C1_2  and  N2_3 
ROOT
HETATM    1  N2  UNL     1      23.031   4.172  52.259  1.00  0.00    -0.246 NA
HETATM    2  C2  UNL     1      23.649   3.065  51.997  1.00  0.00     0.049 C 
HETATM    3  C3  UNL     1      25.028   2.763  52.463  1.00  0.00     0.066 C 
HETATM    4  C4  UNL     1      25.019   1.478  53.287  1.00  0.00    -0.033 C 
HETATM    5  C5  UNL     1      23.825   0.763  53.008  1.00  0.00     0.089 A 
HETATM    6  C6  UNL     1      24.181  -0.472  53.766  1.00  0.00     0.121 A 
HETATM    7  C7  UNL     1      22.985  -0.783  53.297  1.00  0.00     0.128 A 
HETATM    8  N3  UNL     1      22.273   0.116  52.511  1.00  0.00    -0.381 N 
HETATM    9  C8  UNL     1      22.228   0.954  51.409  1.00  0.00     0.041 A 
HETATM   10  C9  UNL     1      21.473   0.401  50.402  1.00  0.00     0.033 A 
HETATM   11  C10 UNL     1      21.216   0.958  49.150  1.00  0.00     0.044 A 
HETATM   12  C11 UNL     1      21.804   2.188  48.959  1.00  0.00     0.117 A 
HETATM   13  F1  UNL     1      21.591   2.782  47.758  1.00  0.00    -0.206 F 
HETATM   14  C12 UNL     1      22.570   2.775  49.953  1.00  0.00     0.058 A 
HETATM   15  C13 UNL     1      22.806   2.194  51.184  1.00  0.00     0.018 A 
HETATM   16  O1  UNL     1      25.273  -0.912  54.533  1.00  0.00    -0.374 OA
HETATM   17  C14 UNL     1      26.393  -0.050  54.730  1.00  0.00     0.169 C 
HETATM   18  C15 UNL     1      26.299   1.319  54.171  1.00  0.00     0.032 C 
HETATM   19  H7  UNL     1      21.342   0.164  52.976  1.00  0.00     0.160 HD
ENDROOT
BRANCH   1  20
HETATM   20  C1  UNL     1      23.775   5.116  53.050  1.00  0.00     0.223 C 
HETATM   21  N1  UNL     1      24.137   6.228  52.502  1.00  0.00    -0.293 NA
HETATM   22  H1  UNL     1      23.864   6.373  51.509  1.00  0.00     0.187 HD
ENDBRANCH   1  20
TORSDOF 1
ENDMDL
MODEL 7
REMARK VINA RESULT:      -7.4      3.120      4.969
REMARK  1 active torsions:
REMARK  status: ('A' for Active; 'I' for Inactive)
REMARK    1  A    between atoms: C1_2  and  N2_3 
ROOT
HETATM    1  N2  UNL     1      25.067   0.669  52.292  1.00  0.00    -0.246 NA
HETATM    2  C2  UNL     1      24.114   1.375  52.810  1.00  0.00     0.049 C 
HETATM    3  C3  UNL     1      24.184   2.850  52.983  1.00  0.00     0.066 C 
HETATM    4  C4  UNL     1      23.015   3.507  52.254  1.00  0.00    -0.033 C 
HETATM    5  C5  UNL     1      22.021   2.525  52.005  1.00  0.00     0.089 A 
HETATM    6  C6  UNL     1      20.978   3.461  51.490  1.00  0.00     0.121 A 
HETATM    7  C7  UNL     1      20.357   2.298  51.407  1.00  0.00     0.128 A 
HETATM    8  N3  UNL     1      20.988   1.123  51.799  1.00  0.00    -0.381 N 
HETATM    9  C8  UNL     1      21.686   0.415  52.763  1.00  0.00     0.041 A 
HETATM   10  C9  UNL     1      20.881  -0.528  53.358  1.00  0.00     0.033 A 
HETATM   11  C10 UNL     1      21.243  -1.415  54.372  1.00  0.00     0.044 A 
HETATM   12  C11 UNL     1      22.552  -1.288  54.778  1.00  0.00     0.117 A 
HETATM   13  F1  UNL     1      22.965  -2.124  55.764  1.00  0.00    -0.206 F 
HETATM   14  C12 UNL     1      23.391  -0.349  54.199  1.00  0.00     0.058 A 
HETATM   15  C13 UNL     1      22.999   0.515  53.196  1.00  0.00     0.018 A 
HETATM   16  O1  UNL     1      20.877   4.845  51.271  1.00  0.00    -0.374 OA
HETATM   17  C14 UNL     1      21.990   5.691  51.559  1.00  0.00     0.169 C 
HETATM   18  C15 UNL     1      23.241   5.034  52.004  1.00  0.00     0.032 C 
HETATM   19  H7  UNL     1      20.863   0.492  50.980  1.00  0.00     0.160 HD
ENDROOT
BRANCH   1  20
HETATM   20  C1  UNL     1      26.228   1.414  51.883  1.00  0.00     0.223 C 
HETATM   21  N1  UNL     1      27.341   1.214  52.508  1.00  0.00    -0.293 NA
HETATM   22  H1  UNL     1      27.327   0.516  53.279  1.00  0.00     0.187 HD
ENDBRANCH   1  20
TORSDOF 1
ENDMDL
MODEL 8
REMARK VINA RESULT:      -7.3      8.668     10.704
REMARK  1 active torsions:
REMARK  status: ('A' for Active; 'I' for Inactive)
REMARK    1  A    between atoms: C1_2  and  N2_3 
ROOT
HETATM    1  N2  UNL     1      30.298   5.478  48.238  1.00  0.00    -0.246 NA
HETATM    2  C2  UNL     1      31.354   5.728  47.533  1.00  0.00     0.049 C 
HETATM    3  C3  UNL     1      31.581   7.011  46.818  1.00  0.00     0.066 C 
HETATM    4  C4  UNL     1      32.888   7.639  47.295  1.00  0.00    -0.033 C 
HETATM    5  C5  UNL     1      33.669   6.641  47.934  1.00  0.00     0.089 A 
HETATM    6  C6  UNL     1      34.900   7.467  48.104  1.00  0.00     0.121 A 
HETATM    7  C7  UNL     1      35.274   6.319  48.641  1.00  0.00     0.128 A 
HETATM    8  N3  UNL     1      34.400   5.239  48.692  1.00  0.00    -0.381 N 
HETATM    9  C8  UNL     1      33.535   4.380  48.035  1.00  0.00     0.041 A 
HETATM   10  C9  UNL     1      34.105   3.140  47.869  1.00  0.00     0.033 A 
HETATM   11  C10 UNL     1      33.529   2.032  47.248  1.00  0.00     0.044 A 
HETATM   12  C11 UNL     1      32.259   2.264  46.770  1.00  0.00     0.117 A 
HETATM   13  F1  UNL     1      31.645   1.223  46.152  1.00  0.00    -0.206 F 
HETATM   14  C12 UNL     1      31.654   3.500  46.920  1.00  0.00     0.058 A 
HETATM   15  C13 UNL     1      32.253   4.578  47.542  1.00  0.00     0.018 A 
HETATM   16  O1  UNL     1      35.291   8.780  47.793  1.00  0.00    -0.374 OA
HETATM   17  C14 UNL     1      34.365   9.665  47.164  1.00  0.00     0.169 C 
HETATM   18  C15 UNL     1      32.989   9.160  46.946  1.00  0.00     0.032 C 
HETATM   19  H7  UNL     1      34.425   4.950  49.692  1.00  0.00     0.160 HD
ENDROOT
BRANCH   1  20
HETATM   20  C1  UNL     1      29.332   6.542  48.291  1.00  0.00     0.223 C 
HETATM   21  N1  UNL     1      28.226   6.339  48.927  1.00  0.00    -0.293 NA
HETATM   22  H1  UNL     1      28.102   5.405  49.367  1.00  0.00     0.187 HD
ENDBRANCH   1  20
TORSDOF 1
ENDMDL
MODEL 9
REMARK VINA RESULT:      -7.3      3.244      5.326
REMARK  1 active torsions:
REMARK  status: ('A' for Active; 'I' for Inactive)
REMARK    1  A    between atoms: C1_2  and  N2_3 
ROOT
HETATM    1  N2  UNL     1      23.132  -0.150  54.174  1.00  0.00    -0.246 NA
HETATM    2  C2  UNL     1      22.604   0.221  53.052  1.00  0.00     0.049 C 
HETATM    3  C3  UNL     1      21.408  -0.427  52.453  1.00  0.00     0.066 C 
HETATM    4  C4  UNL     1      20.312   0.614  52.243  1.00  0.00    -0.033 C 
HETATM    5  C5  UNL     1      20.896   1.907  52.283  1.00  0.00     0.089 A 
HETATM    6  C6  UNL     1      19.675   2.661  51.870  1.00  0.00     0.121 A 
HETATM    7  C7  UNL     1      20.554   3.637  52.020  1.00  0.00     0.128 A 
HETATM    8  N3  UNL     1      21.860   3.366  52.411  1.00  0.00    -0.381 N 
HETATM    9  C8  UNL     1      23.034   2.658  52.217  1.00  0.00     0.041 A 
HETATM   10  C9  UNL     1      24.004   3.457  51.659  1.00  0.00     0.033 A 
HETATM   11  C10 UNL     1      25.304   3.081  51.321  1.00  0.00     0.044 A 
HETATM   12  C11 UNL     1      25.587   1.763  51.596  1.00  0.00     0.117 A 
HETATM   13  F1  UNL     1      26.838   1.335  51.288  1.00  0.00    -0.206 F 
HETATM   14  C12 UNL     1      24.635   0.929  52.159  1.00  0.00     0.058 A 
HETATM   15  C13 UNL     1      23.355   1.335  52.482  1.00  0.00     0.018 A 
HETATM   16  O1  UNL     1      18.351   2.339  51.531  1.00  0.00    -0.374 OA
HETATM   17  C14 UNL     1      17.922   0.978  51.563  1.00  0.00     0.169 C 
HETATM   18  C15 UNL     1      18.900  -0.027  52.042  1.00  0.00     0.032 C 
HETATM   19  H7  UNL     1      22.012   4.005  53.219  1.00  0.00     0.160 HD
ENDROOT
BRANCH   1  20
HETATM   20  C1  UNL     1      22.477  -1.253  54.824  1.00  0.00     0.223 C 
HETATM   21  N1  UNL     1      23.062  -1.810  55.832  1.00  0.00    -0.293 NA
HETATM   22  H1  UNL     1      23.983  -1.419  56.115  1.00  0.00     0.187 HD
ENDBRANCH   1  20
TORSDOF 1
ENDMDL
