MODEL 1
REMARK VINA RESULT:      -8.1      0.000      0.000
REMARK  11 active torsions:
REMARK  status: ('A' for Active; 'I' for Inactive)
REMARK    1  A    between atoms: C2_2  and  C3_3 
REMARK    2  A    between atoms: C3_3  and  C4_4 
REMARK    3  A    between atoms: C4_4  and  C5_5 
REMARK    4  A    between atoms: C5_5  and  C6_6 
REMARK    5  A    between atoms: C6_6  and  C7_7 
REMARK    6  A    between atoms: C7_7  and  O1_8 
REMARK    7  A    between atoms: O1_8  and  C8_9 
REMARK    8  A    between atoms: C8_9  and  C9_10 
REMARK    9  A    between atoms: C9_10  and  O2_11 
REMARK   10  A    between atoms: O2_11  and  C10_12 
REMARK   11  A    between atoms: C16_20  and  C17_21 
ROOT
HETATM    1  C10 UNL     1      20.817   0.820  50.906  1.00  0.00     0.069 C 
HETATM    2  C11 UNL     1      19.701   0.410  51.543  1.00  0.00     0.036 C 
HETATM    3  C12 UNL     1      19.734  -0.325  52.861  1.00  0.00     0.199 C 
HETATM    4  O3  UNL     1      20.406   0.466  53.744  1.00  0.00    -0.368 OA
HETATM    5  C13 UNL     1      21.751   0.336  53.851  1.00  0.00     0.252 C 
HETATM    6  C14 UNL     1      22.201  -0.873  54.629  1.00  0.00     0.187 C 
HETATM    7  O4  UNL     1      21.571  -1.808  55.203  1.00  0.00    -0.290 OA
HETATM    8  C15 UNL     1      23.675  -0.966  54.730  1.00  0.00     0.091 C 
HETATM    9  C16 UNL     1      24.479  -0.396  53.848  1.00  0.00     0.089 C 
HETATM   10  O5  UNL     1      23.908   0.321  52.775  1.00  0.00    -0.311 OA
HETATM   11  C23 UNL     1      22.539   0.449  52.615  1.00  0.00     0.093 C 
HETATM   12  C24 UNL     1      22.230   0.654  51.322  1.00  0.00     0.072 C 
ENDROOT
BRANCH   1  13
HETATM   13  O2  UNL     1      20.689   1.489  49.699  1.00  0.00    -0.349 OA
BRANCH  13  14
HETATM   14  C9  UNL     1      21.596   1.346  48.624  1.00  0.00     0.201 C 
BRANCH  14  15
HETATM   15  C8  UNL     1      22.290   2.645  48.285  1.00  0.00     0.194 C 
BRANCH  15  16
HETATM   16  O1  UNL     1      23.472   2.853  48.846  1.00  0.00    -0.389 OA
BRANCH  16  17
HETATM   17  C7  UNL     1      23.748   3.528  49.950  1.00  0.00     0.167 C 
BRANCH  17  18
HETATM   18  C6  UNL     1      25.121   3.980  50.288  1.00  0.00     0.026 C 
BRANCH  18  19
HETATM   19  C5  UNL     1      26.263   3.349  49.602  1.00  0.00     0.002 C 
BRANCH  19  20
HETATM   20  C4  UNL     1      27.158   4.388  48.941  1.00  0.00     0.000 C 
BRANCH  20  21
HETATM   21  C3  UNL     1      26.573   5.768  48.958  1.00  0.00    -0.000 C 
BRANCH  21  22
HETATM   22  C2  UNL     1      27.372   6.691  48.040  1.00  0.00    -0.005 C 
HETATM   23  C1  UNL     1      28.801   6.200  48.022  1.00  0.00     0.005 C 
ENDBRANCH  21  22
ENDBRANCH  20  21
ENDBRANCH  19  20
ENDBRANCH  18  19
ENDBRANCH  17  18
ENDBRANCH  16  17
ENDBRANCH  15  16
ENDBRANCH  14  15
ENDBRANCH  13  14
ENDBRANCH   1  13
BRANCH   9  24
HETATM   24  C17 UNL     1      25.935  -0.445  53.885  1.00  0.00    -0.002 A 
HETATM   25  C18 UNL     1      26.675  -1.231  53.028  1.00  0.00     0.014 A 
HETATM   26  C19 UNL     1      28.047  -1.320  53.015  1.00  0.00     0.001 A 
HETATM   27  C20 UNL     1      28.764  -0.562  53.936  1.00  0.00     0.000 A 
HETATM   28  C21 UNL     1      28.070   0.239  54.815  1.00  0.00     0.001 A 
HETATM   29  C22 UNL     1      26.692   0.285  54.776  1.00  0.00     0.014 A 
ENDBRANCH   9  24
TORSDOF 11
ENDMDL
MODEL 2
REMARK VINA RESULT:      -8.1      1.871      2.405
REMARK  11 active torsions:
REMARK  status: ('A' for Active; 'I' for Inactive)
REMARK    1  A    between atoms: C2_2  and  C3_3 
REMARK    2  A    between atoms: C3_3  and  C4_4 
REMARK    3  A    between atoms: C4_4  and  C5_5 
REMARK    4  A    between atoms: C5_5  and  C6_6 
REMARK    5  A    between atoms: C6_6  and  C7_7 
REMARK    6  A    between atoms: C7_7  and  O1_8 
REMARK    7  A    between atoms: O1_8  and  C8_9 
REMARK    8  A    between atoms: C8_9  and  C9_10 
REMARK    9  A    between atoms: C9_10  and  O2_11 
REMARK   10  A    between atoms: O2_11  and  C10_12 
REMARK   11  A    between atoms: C16_20  and  C17_21 
ROOT
HETATM    1  C10 UNL     1      20.173   0.662  50.788  1.00  0.00     0.069 C 
HETATM    2  C11 UNL     1      19.084   0.215  51.447  1.00  0.00     0.036 C 
HETATM    3  C12 UNL     1      19.168  -0.516  52.766  1.00  0.00     0.199 C 
HETATM    4  O3  UNL     1      19.829   0.300  53.635  1.00  0.00    -0.368 OA
HETATM    5  C13 UNL     1      21.180   0.216  53.715  1.00  0.00     0.252 C 
HETATM    6  C14 UNL     1      21.687  -0.974  54.486  1.00  0.00     0.187 C 
HETATM    7  O4  UNL     1      21.101  -1.929  55.073  1.00  0.00    -0.290 OA
HETATM    8  C15 UNL     1      23.165  -1.015  54.558  1.00  0.00     0.091 C 
HETATM    9  C16 UNL     1      23.931  -0.420  53.660  1.00  0.00     0.089 C 
HETATM   10  O5  UNL     1      23.315   0.275  52.598  1.00  0.00    -0.311 OA
HETATM   11  C23 UNL     1      21.939   0.355  52.464  1.00  0.00     0.093 C 
HETATM   12  C24 UNL     1      21.598   0.546  51.177  1.00  0.00     0.072 C 
ENDROOT
BRANCH   1  13
HETATM   13  O2  UNL     1      19.997   1.324  49.583  1.00  0.00    -0.349 OA
BRANCH  13  14
HETATM   14  C9  UNL     1      20.301   2.691  49.390  1.00  0.00     0.201 C 
BRANCH  14  15
HETATM   15  C8  UNL     1      19.556   3.584  50.356  1.00  0.00     0.194 C 
BRANCH  15  16
HETATM   16  O1  UNL     1      20.290   4.392  51.107  1.00  0.00    -0.389 OA
BRANCH  16  17
HETATM   17  C7  UNL     1      21.207   4.069  52.004  1.00  0.00     0.167 C 
BRANCH  17  18
HETATM   18  C6  UNL     1      22.662   4.185  51.734  1.00  0.00     0.026 C 
BRANCH  18  19
HETATM   19  C5  UNL     1      23.607   4.003  52.850  1.00  0.00     0.002 C 
BRANCH  19  20
HETATM   20  C4  UNL     1      24.745   3.067  52.469  1.00  0.00     0.000 C 
BRANCH  20  21
HETATM   21  C3  UNL     1      24.836   2.819  50.994  1.00  0.00    -0.000 C 
BRANCH  21  22
HETATM   22  C2  UNL     1      26.299   2.796  50.553  1.00  0.00    -0.005 C 
HETATM   23  C1  UNL     1      27.143   2.488  51.768  1.00  0.00     0.005 C 
ENDBRANCH  21  22
ENDBRANCH  20  21
ENDBRANCH  19  20
ENDBRANCH  18  19
ENDBRANCH  17  18
ENDBRANCH  16  17
ENDBRANCH  15  16
ENDBRANCH  14  15
ENDBRANCH  13  14
ENDBRANCH   1  13
BRANCH   9  24
HETATM   24  C17 UNL     1      25.389  -0.418  53.669  1.00  0.00    -0.002 A 
HETATM   25  C18 UNL     1      26.139  -1.024  52.684  1.00  0.00     0.014 A 
HETATM   26  C19 UNL     1      27.513  -1.056  52.638  1.00  0.00     0.001 A 
HETATM   27  C20 UNL     1      28.220  -0.432  53.661  1.00  0.00     0.000 A 
HETATM   28  C21 UNL     1      27.515   0.187  54.669  1.00  0.00     0.001 A 
HETATM   29  C22 UNL     1      26.137   0.185  54.657  1.00  0.00     0.014 A 
ENDBRANCH   9  24
TORSDOF 11
ENDMDL
MODEL 3
REMARK VINA RESULT:      -7.9      2.047      5.692
REMARK  11 active torsions:
REMARK  status: ('A' for Active; 'I' for Inactive)
REMARK    1  A    between atoms: C2_2  and  C3_3 
REMARK    2  A    between atoms: C3_3  and  C4_4 
REMARK    3  A    between atoms: C4_4  and  C5_5 
REMARK    4  A    between atoms: C5_5  and  C6_6 
REMARK    5  A    between atoms: C6_6  and  C7_7 
REMARK    6  A    between atoms: C7_7  and  O1_8 
REMARK    7  A    between atoms: O1_8  and  C8_9 
REMARK    8  A    between atoms: C8_9  and  C9_10 
REMARK    9  A    between atoms: C9_10  and  O2_11 
REMARK   10  A    between atoms: O2_11  and  C10_12 
REMARK   11  A    between atoms: C16_20  and  C17_21 
ROOT
HETATM    1  C10 UNL     1      26.810   2.126  51.996  1.00  0.00     0.069 C 
HETATM    2  C11 UNL     1      27.786   1.725  52.837  1.00  0.00     0.036 C 
HETATM    3  C12 UNL     1      27.542   0.758  53.971  1.00  0.00     0.199 C 
HETATM    4  O3  UNL     1      27.021  -0.377  53.425  1.00  0.00    -0.368 OA
HETATM    5  C13 UNL     1      25.677  -0.485  53.292  1.00  0.00     0.252 C 
HETATM    6  C14 UNL     1      24.946  -0.795  54.572  1.00  0.00     0.187 C 
HETATM    7  O4  UNL     1      25.336  -0.968  55.763  1.00  0.00    -0.290 OA
HETATM    8  C15 UNL     1      23.483  -0.915  54.375  1.00  0.00     0.091 C 
HETATM    9  C16 UNL     1      22.857  -0.330  53.368  1.00  0.00     0.089 C 
HETATM   10  O5  UNL     1      23.612   0.436  52.455  1.00  0.00    -0.311 OA
HETATM   11  C23 UNL     1      24.982   0.595  52.576  1.00  0.00     0.093 C 
HETATM   12  C24 UNL     1      25.380   1.740  51.992  1.00  0.00     0.072 C 
ENDROOT
BRANCH   1  13
HETATM   13  O2  UNL     1      27.129   3.016  50.982  1.00  0.00    -0.349 OA
BRANCH  13  14
HETATM   14  C9  UNL     1      26.307   3.244  49.855  1.00  0.00     0.201 C 
BRANCH  14  15
HETATM   15  C8  UNL     1      26.296   4.698  49.440  1.00  0.00     0.194 C 
BRANCH  15  16
HETATM   16  O1  UNL     1      25.398   5.477  50.025  1.00  0.00    -0.389 OA
BRANCH  16  17
HETATM   17  C7  UNL     1      24.444   5.134  50.876  1.00  0.00     0.167 C 
BRANCH  17  18
HETATM   18  C6  UNL     1      23.182   5.902  51.012  1.00  0.00     0.026 C 
BRANCH  18  19
HETATM   19  C5  UNL     1      22.009   5.238  51.608  1.00  0.00     0.002 C 
BRANCH  19  20
HETATM   20  C4  UNL     1      22.121   3.722  51.515  1.00  0.00     0.000 C 
BRANCH  20  21
HETATM   21  C3  UNL     1      21.526   3.164  50.258  1.00  0.00    -0.000 C 
BRANCH  21  22
HETATM   22  C2  UNL     1      22.523   2.230  49.573  1.00  0.00    -0.005 C 
HETATM   23  C1  UNL     1      22.916   2.858  48.256  1.00  0.00     0.005 C 
ENDBRANCH  21  22
ENDBRANCH  20  21
ENDBRANCH  19  20
ENDBRANCH  18  19
ENDBRANCH  17  18
ENDBRANCH  16  17
ENDBRANCH  15  16
ENDBRANCH  14  15
ENDBRANCH  13  14
ENDBRANCH   1  13
BRANCH   9  24
HETATM   24  C17 UNL     1      21.424  -0.407  53.113  1.00  0.00    -0.002 A 
HETATM   25  C18 UNL     1      20.825   0.228  52.046  1.00  0.00     0.014 A 
HETATM   26  C19 UNL     1      19.482   0.194  51.754  1.00  0.00     0.001 A 
HETATM   27  C20 UNL     1      18.644  -0.536  52.592  1.00  0.00     0.000 A 
HETATM   28  C21 UNL     1      19.196  -1.188  53.672  1.00  0.00     0.001 A 
HETATM   29  C22 UNL     1      20.552  -1.116  53.910  1.00  0.00     0.014 A 
ENDBRANCH   9  24
TORSDOF 11
ENDMDL
MODEL 4
REMARK VINA RESULT:      -7.8      1.612      2.679
REMARK  11 active torsions:
REMARK  status: ('A' for Active; 'I' for Inactive)
REMARK    1  A    between atoms: C2_2  and  C3_3 
REMARK    2  A    between atoms: C3_3  and  C4_4 
REMARK    3  A    between atoms: C4_4  and  C5_5 
REMARK    4  A    between atoms: C5_5  and  C6_6 
REMARK    5  A    between atoms: C6_6  and  C7_7 
REMARK    6  A    between atoms: C7_7  and  O1_8 
REMARK    7  A    between atoms: O1_8  and  C8_9 
REMARK    8  A    between atoms: C8_9  and  C9_10 
REMARK    9  A    between atoms: C9_10  and  O2_11 
REMARK   10  A    between atoms: O2_11  and  C10_12 
REMARK   11  A    between atoms: C16_20  and  C17_21 
ROOT
HETATM    1  C10 UNL     1      20.536   0.662  50.774  1.00  0.00     0.069 C 
HETATM    2  C11 UNL     1      19.427   0.261  51.429  1.00  0.00     0.036 C 
HETATM    3  C12 UNL     1      19.474  -0.430  52.771  1.00  0.00     0.199 C 
HETATM    4  O3  UNL     1      20.139   0.398  53.625  1.00  0.00    -0.368 OA
HETATM    5  C13 UNL     1      21.486   0.288  53.731  1.00  0.00     0.252 C 
HETATM    6  C14 UNL     1      21.954  -0.889  54.547  1.00  0.00     0.187 C 
HETATM    7  O4  UNL     1      21.337  -1.811  55.153  1.00  0.00    -0.290 OA
HETATM    8  C15 UNL     1      23.430  -0.960  54.645  1.00  0.00     0.091 C 
HETATM    9  C16 UNL     1      24.223  -0.411  53.741  1.00  0.00     0.089 C 
HETATM   10  O5  UNL     1      23.639   0.263  52.647  1.00  0.00    -0.311 OA
HETATM   11  C23 UNL     1      22.269   0.369  52.488  1.00  0.00     0.093 C 
HETATM   12  C24 UNL     1      21.952   0.527  51.191  1.00  0.00     0.072 C 
ENDROOT
BRANCH   1  13
HETATM   13  O2  UNL     1      20.395   1.289  49.546  1.00  0.00    -0.349 OA
BRANCH  13  14
HETATM   14  C9  UNL     1      21.398   1.293  48.550  1.00  0.00     0.201 C 
BRANCH  14  15
HETATM   15  C8  UNL     1      21.923   2.683  48.273  1.00  0.00     0.194 C 
BRANCH  15  16
HETATM   16  O1  UNL     1      23.067   3.014  48.852  1.00  0.00    -0.389 OA
BRANCH  16  17
HETATM   17  C7  UNL     1      23.670   4.192  48.862  1.00  0.00     0.167 C 
BRANCH  17  18
HETATM   18  C6  UNL     1      24.128   4.843  50.115  1.00  0.00     0.026 C 
BRANCH  18  19
HETATM   19  C5  UNL     1      24.691   4.002  51.186  1.00  0.00     0.002 C 
BRANCH  19  20
HETATM   20  C4  UNL     1      23.673   3.751  52.289  1.00  0.00     0.000 C 
BRANCH  20  21
HETATM   21  C3  UNL     1      22.534   4.725  52.273  1.00  0.00    -0.000 C 
BRANCH  21  22
HETATM   22  C2  UNL     1      21.202   3.978  52.215  1.00  0.00    -0.005 C 
HETATM   23  C1  UNL     1      20.419   4.521  51.042  1.00  0.00     0.005 C 
ENDBRANCH  21  22
ENDBRANCH  20  21
ENDBRANCH  19  20
ENDBRANCH  18  19
ENDBRANCH  17  18
ENDBRANCH  16  17
ENDBRANCH  15  16
ENDBRANCH  14  15
ENDBRANCH  13  14
ENDBRANCH   1  13
BRANCH   9  24
HETATM   24  C17 UNL     1      25.680  -0.441  53.774  1.00  0.00    -0.002 A 
HETATM   25  C18 UNL     1      26.428  -1.187  52.889  1.00  0.00     0.014 A 
HETATM   26  C19 UNL     1      27.801  -1.256  52.871  1.00  0.00     0.001 A 
HETATM   27  C20 UNL     1      28.510  -0.521  53.816  1.00  0.00     0.000 A 
HETATM   28  C21 UNL     1      27.807   0.240  54.723  1.00  0.00     0.001 A 
HETATM   29  C22 UNL     1      26.429   0.268  54.688  1.00  0.00     0.014 A 
ENDBRANCH   9  24
TORSDOF 11
ENDMDL
MODEL 5
REMARK VINA RESULT:      -7.5      3.215      5.510
REMARK  11 active torsions:
REMARK  status: ('A' for Active; 'I' for Inactive)
REMARK    1  A    between atoms: C2_2  and  C3_3 
REMARK    2  A    between atoms: C3_3  and  C4_4 
REMARK    3  A    between atoms: C4_4  and  C5_5 
REMARK    4  A    between atoms: C5_5  and  C6_6 
REMARK    5  A    between atoms: C6_6  and  C7_7 
REMARK    6  A    between atoms: C7_7  and  O1_8 
REMARK    7  A    between atoms: O1_8  and  C8_9 
REMARK    8  A    between atoms: C8_9  and  C9_10 
REMARK    9  A    between atoms: C9_10  and  O2_11 
REMARK   10  A    between atoms: O2_11  and  C10_12 
REMARK   11  A    between atoms: C16_20  and  C17_21 
ROOT
HETATM    1  C10 UNL     1      25.663   4.547  49.414  1.00  0.00     0.069 C 
HETATM    2  C11 UNL     1      24.341   4.812  49.458  1.00  0.00     0.036 C 
HETATM    3  C12 UNL     1      23.358   3.949  50.213  1.00  0.00     0.199 C 
HETATM    4  O3  UNL     1      23.780   3.902  51.509  1.00  0.00    -0.368 OA
HETATM    5  C13 UNL     1      24.641   2.925  51.885  1.00  0.00     0.252 C 
HETATM    6  C14 UNL     1      24.007   1.571  52.068  1.00  0.00     0.187 C 
HETATM    7  O4  UNL     1      22.820   1.154  51.932  1.00  0.00    -0.290 OA
HETATM    8  C15 UNL     1      24.982   0.541  52.491  1.00  0.00     0.091 C 
HETATM    9  C16 UNL     1      26.275   0.649  52.237  1.00  0.00     0.089 C 
HETATM   10  O5  UNL     1      26.736   1.785  51.539  1.00  0.00    -0.311 OA
HETATM   11  C23 UNL     1      25.883   2.788  51.111  1.00  0.00     0.093 C 
HETATM   12  C24 UNL     1      26.401   3.430  50.049  1.00  0.00     0.072 C 
ENDROOT
BRANCH   1  13
HETATM   13  O2  UNL     1      26.489   5.397  48.695  1.00  0.00    -0.349 OA
BRANCH  13  14
HETATM   14  C9  UNL     1      27.891   5.236  48.607  1.00  0.00     0.201 C 
BRANCH  14  15
HETATM   15  C8  UNL     1      28.558   6.401  47.912  1.00  0.00     0.194 C 
BRANCH  15  16
HETATM   16  O1  UNL     1      29.697   6.832  48.433  1.00  0.00    -0.389 OA
BRANCH  16  17
HETATM   17  C7  UNL     1      30.765   6.126  48.765  1.00  0.00     0.167 C 
BRANCH  17  18
HETATM   18  C6  UNL     1      31.560   5.365  47.769  1.00  0.00     0.026 C 
BRANCH  18  19
HETATM   19  C5  UNL     1      32.976   5.080  48.061  1.00  0.00     0.002 C 
BRANCH  19  20
HETATM   20  C4  UNL     1      33.567   4.105  47.052  1.00  0.00     0.000 C 
BRANCH  20  21
HETATM   21  C3  UNL     1      34.298   2.964  47.693  1.00  0.00    -0.000 C 
BRANCH  21  22
HETATM   22  C2  UNL     1      33.315   1.860  48.080  1.00  0.00    -0.005 C 
HETATM   23  C1  UNL     1      32.477   1.540  46.863  1.00  0.00     0.005 C 
ENDBRANCH  21  22
ENDBRANCH  20  21
ENDBRANCH  19  20
ENDBRANCH  18  19
ENDBRANCH  17  18
ENDBRANCH  16  17
ENDBRANCH  15  16
ENDBRANCH  14  15
ENDBRANCH  13  14
ENDBRANCH   1  13
BRANCH   9  24
HETATM   24  C17 UNL     1      27.290  -0.323  52.624  1.00  0.00    -0.002 A 
HETATM   25  C18 UNL     1      27.093  -1.683  52.522  1.00  0.00     0.014 A 
HETATM   26  C19 UNL     1      28.010  -2.647  52.870  1.00  0.00     0.001 A 
HETATM   27  C20 UNL     1      29.242  -2.235  53.368  1.00  0.00     0.000 A 
HETATM   28  C21 UNL     1      29.487  -0.885  53.490  1.00  0.00     0.001 A 
HETATM   29  C22 UNL     1      28.525   0.032  53.121  1.00  0.00     0.014 A 
ENDBRANCH   9  24
TORSDOF 11
ENDMDL
MODEL 6
REMARK VINA RESULT:      -7.4      3.552      8.946
REMARK  11 active torsions:
REMARK  status: ('A' for Active; 'I' for Inactive)
REMARK    1  A    between atoms: C2_2  and  C3_3 
REMARK    2  A    between atoms: C3_3  and  C4_4 
REMARK    3  A    between atoms: C4_4  and  C5_5 
REMARK    4  A    between atoms: C5_5  and  C6_6 
REMARK    5  A    between atoms: C6_6  and  C7_7 
REMARK    6  A    between atoms: C7_7  and  O1_8 
REMARK    7  A    between atoms: O1_8  and  C8_9 
REMARK    8  A    between atoms: C8_9  and  C9_10 
REMARK    9  A    between atoms: C9_10  and  O2_11 
REMARK   10  A    between atoms: O2_11  and  C10_12 
REMARK   11  A    between atoms: C16_20  and  C17_21 
ROOT
HETATM    1  C10 UNL     1      26.181   5.205  49.140  1.00  0.00     0.069 C 
HETATM    2  C11 UNL     1      25.775   6.460  49.424  1.00  0.00     0.036 C 
HETATM    3  C12 UNL     1      26.712   7.644  49.422  1.00  0.00     0.199 C 
HETATM    4  O3  UNL     1      27.283   7.700  48.185  1.00  0.00    -0.368 OA
HETATM    5  C13 UNL     1      28.437   7.024  47.963  1.00  0.00     0.252 C 
HETATM    6  C14 UNL     1      29.666   7.681  48.533  1.00  0.00     0.187 C 
HETATM    7  O4  UNL     1      29.841   8.746  49.194  1.00  0.00    -0.290 OA
HETATM    8  C15 UNL     1      30.901   6.914  48.254  1.00  0.00     0.091 C 
HETATM    9  C16 UNL     1      30.883   5.613  48.016  1.00  0.00     0.089 C 
HETATM   10  O5  UNL     1      29.644   4.939  48.030  1.00  0.00    -0.311 OA
HETATM   11  C23 UNL     1      28.449   5.590  48.285  1.00  0.00     0.093 C 
HETATM   12  C24 UNL     1      27.541   4.734  48.787  1.00  0.00     0.072 C 
ENDROOT
BRANCH   1  13
HETATM   13  O2  UNL     1      25.248   4.181  49.166  1.00  0.00    -0.349 OA
BRANCH  13  14
HETATM   14  C9  UNL     1      23.909   4.353  49.587  1.00  0.00     0.201 C 
BRANCH  14  15
HETATM   15  C8  UNL     1      23.550   3.441  50.737  1.00  0.00     0.194 C 
BRANCH  15  16
HETATM   16  O1  UNL     1      24.311   2.371  50.909  1.00  0.00    -0.389 OA
BRANCH  16  17
HETATM   17  C7  UNL     1      24.987   2.009  51.988  1.00  0.00     0.167 C 
BRANCH  17  18
HETATM   18  C6  UNL     1      25.398   0.606  52.239  1.00  0.00     0.026 C 
BRANCH  18  19
HETATM   19  C5  UNL     1      26.836   0.293  52.326  1.00  0.00     0.002 C 
BRANCH  19  20
HETATM   20  C4  UNL     1      27.189  -0.334  53.667  1.00  0.00     0.000 C 
BRANCH  20  21
HETATM   21  C3  UNL     1      28.354   0.328  54.339  1.00  0.00    -0.000 C 
BRANCH  21  22
HETATM   22  C2  UNL     1      29.652  -0.030  53.617  1.00  0.00    -0.005 C 
HETATM   23  C1  UNL     1      29.710  -1.534  53.489  1.00  0.00     0.005 C 
ENDBRANCH  21  22
ENDBRANCH  20  21
ENDBRANCH  19  20
ENDBRANCH  18  19
ENDBRANCH  17  18
ENDBRANCH  16  17
ENDBRANCH  15  16
ENDBRANCH  14  15
ENDBRANCH  13  14
ENDBRANCH   1  13
BRANCH   9  24
HETATM   24  C17 UNL     1      32.056   4.796  47.733  1.00  0.00    -0.002 A 
HETATM   25  C18 UNL     1      31.991   3.630  47.000  1.00  0.00     0.014 A 
HETATM   26  C19 UNL     1      33.060   2.819  46.702  1.00  0.00     0.001 A 
HETATM   27  C20 UNL     1      34.318   3.188  47.169  1.00  0.00     0.000 A 
HETATM   28  C21 UNL     1      34.435   4.345  47.907  1.00  0.00     0.001 A 
HETATM   29  C22 UNL     1      33.323   5.117  48.171  1.00  0.00     0.014 A 
ENDBRANCH   9  24
TORSDOF 11
ENDMDL
MODEL 7
REMARK VINA RESULT:      -7.3      2.142      6.047
REMARK  11 active torsions:
REMARK  status: ('A' for Active; 'I' for Inactive)
REMARK    1  A    between atoms: C2_2  and  C3_3 
REMARK    2  A    between atoms: C3_3  and  C4_4 
REMARK    3  A    between atoms: C4_4  and  C5_5 
REMARK    4  A    between atoms: C5_5  and  C6_6 
REMARK    5  A    between atoms: C6_6  and  C7_7 
REMARK    6  A    between atoms: C7_7  and  O1_8 
REMARK    7  A    between atoms: O1_8  and  C8_9 
REMARK    8  A    between atoms: C8_9  and  C9_10 
REMARK    9  A    between atoms: C9_10  and  O2_11 
REMARK   10  A    between atoms: O2_11  and  C10_12 
REMARK   11  A    between atoms: C16_20  and  C17_21 
ROOT
HETATM    1  C10 UNL     1      21.635   4.405  50.872  1.00  0.00     0.069 C 
HETATM    2  C11 UNL     1      21.743   5.308  49.876  1.00  0.00     0.036 C 
HETATM    3  C12 UNL     1      23.038   5.571  49.146  1.00  0.00     0.199 C 
HETATM    4  O3  UNL     1      23.453   4.382  48.626  1.00  0.00    -0.368 OA
HETATM    5  C13 UNL     1      24.253   3.582  49.372  1.00  0.00     0.252 C 
HETATM    6  C14 UNL     1      25.691   4.026  49.440  1.00  0.00     0.187 C 
HETATM    7  O4  UNL     1      26.309   5.011  48.943  1.00  0.00    -0.290 OA
HETATM    8  C15 UNL     1      26.528   3.115  50.254  1.00  0.00     0.091 C 
HETATM    9  C16 UNL     1      26.016   2.346  51.200  1.00  0.00     0.089 C 
HETATM   10  O5  UNL     1      24.627   2.398  51.438  1.00  0.00    -0.311 OA
HETATM   11  C23 UNL     1      23.783   3.226  50.719  1.00  0.00     0.093 C 
HETATM   12  C24 UNL     1      22.687   3.527  51.438  1.00  0.00     0.072 C 
ENDROOT
BRANCH   1  13
HETATM   13  O2  UNL     1      20.404   4.231  51.485  1.00  0.00    -0.349 OA
BRANCH  13  14
HETATM   14  C9  UNL     1      19.185   4.135  50.776  1.00  0.00     0.201 C 
BRANCH  14  15
HETATM   15  C8  UNL     1      18.666   2.716  50.720  1.00  0.00     0.194 C 
BRANCH  15  16
HETATM   16  O1  UNL     1      19.357   1.803  51.387  1.00  0.00    -0.389 OA
BRANCH  16  17
HETATM   17  C7  UNL     1      18.917   0.684  51.939  1.00  0.00     0.167 C 
BRANCH  17  18
HETATM   18  C6  UNL     1      19.741  -0.121  52.875  1.00  0.00     0.026 C 
BRANCH  18  19
HETATM   19  C5  UNL     1      20.994   0.456  53.393  1.00  0.00     0.002 C 
BRANCH  19  20
HETATM   20  C4  UNL     1      22.208  -0.102  52.664  1.00  0.00     0.000 C 
BRANCH  20  21
HETATM   21  C3  UNL     1      23.432  -0.173  53.525  1.00  0.00    -0.000 C 
BRANCH  21  22
HETATM   22  C2  UNL     1      23.155  -1.020  54.766  1.00  0.00    -0.005 C 
HETATM   23  C1  UNL     1      24.467  -1.228  55.487  1.00  0.00     0.005 C 
ENDBRANCH  21  22
ENDBRANCH  20  21
ENDBRANCH  19  20
ENDBRANCH  18  19
ENDBRANCH  17  18
ENDBRANCH  16  17
ENDBRANCH  15  16
ENDBRANCH  14  15
ENDBRANCH  13  14
ENDBRANCH   1  13
BRANCH   9  24
HETATM   24  C17 UNL     1      26.778   1.427  52.037  1.00  0.00    -0.002 A 
HETATM   25  C18 UNL     1      26.617   0.059  51.977  1.00  0.00     0.014 A 
HETATM   26  C19 UNL     1      27.304  -0.856  52.739  1.00  0.00     0.001 A 
HETATM   27  C20 UNL     1      28.241  -0.382  53.651  1.00  0.00     0.000 A 
HETATM   28  C21 UNL     1      28.438   0.978  53.749  1.00  0.00     0.001 A 
HETATM   29  C22 UNL     1      27.718   1.844  52.955  1.00  0.00     0.014 A 
ENDBRANCH   9  24
TORSDOF 11
ENDMDL
MODEL 8
REMARK VINA RESULT:      -7.2      2.151      5.496
REMARK  11 active torsions:
REMARK  status: ('A' for Active; 'I' for Inactive)
REMARK    1  A    between atoms: C2_2  and  C3_3 
REMARK    2  A    between atoms: C3_3  and  C4_4 
REMARK    3  A    between atoms: C4_4  and  C5_5 
REMARK    4  A    between atoms: C5_5  and  C6_6 
REMARK    5  A    between atoms: C6_6  and  C7_7 
REMARK    6  A    between atoms: C7_7  and  O1_8 
REMARK    7  A    between atoms: O1_8  and  C8_9 
REMARK    8  A    between atoms: C8_9  and  C9_10 
REMARK    9  A    between atoms: C9_10  and  O2_11 
REMARK   10  A    between atoms: O2_11  and  C10_12 
REMARK   11  A    between atoms: C16_20  and  C17_21 
ROOT
HETATM    1  C10 UNL     1      26.780   1.986  51.891  1.00  0.00     0.069 C 
HETATM    2  C11 UNL     1      27.772   1.623  52.729  1.00  0.00     0.036 C 
HETATM    3  C12 UNL     1      27.552   0.708  53.910  1.00  0.00     0.199 C 
HETATM    4  O3  UNL     1      27.022  -0.451  53.425  1.00  0.00    -0.368 OA
HETATM    5  C13 UNL     1      25.675  -0.565  53.323  1.00  0.00     0.252 C 
HETATM    6  C14 UNL     1      24.969  -0.818  54.629  1.00  0.00     0.187 C 
HETATM    7  O4  UNL     1      25.383  -0.939  55.819  1.00  0.00    -0.290 OA
HETATM    8  C15 UNL     1      23.503  -0.948  54.466  1.00  0.00     0.091 C 
HETATM    9  C16 UNL     1      22.858  -0.408  53.447  1.00  0.00     0.089 C 
HETATM   10  O5  UNL     1      23.593   0.317  52.486  1.00  0.00    -0.311 OA
HETATM   11  C23 UNL     1      24.965   0.481  52.573  1.00  0.00     0.093 C 
HETATM   12  C24 UNL     1      25.350   1.599  51.932  1.00  0.00     0.072 C 
ENDROOT
BRANCH   1  13
HETATM   13  O2  UNL     1      27.077   2.831  50.833  1.00  0.00    -0.349 OA
BRANCH  13  14
HETATM   14  C9  UNL     1      26.105   3.584  50.136  1.00  0.00     0.201 C 
BRANCH  14  15
HETATM   15  C8  UNL     1      26.725   4.539  49.142  1.00  0.00     0.194 C 
BRANCH  15  16
HETATM   16  O1  UNL     1      26.408   5.819  49.268  1.00  0.00    -0.389 OA
BRANCH  16  17
HETATM   17  C7  UNL     1      26.076   6.679  48.319  1.00  0.00     0.167 C 
BRANCH  17  18
HETATM   18  C6  UNL     1      27.072   7.552  47.649  1.00  0.00     0.026 C 
BRANCH  18  19
HETATM   19  C5  UNL     1      28.372   7.778  48.305  1.00  0.00     0.002 C 
BRANCH  19  20
HETATM   20  C4  UNL     1      29.521   7.682  47.312  1.00  0.00     0.000 C 
BRANCH  20  21
HETATM   21  C3  UNL     1      30.671   6.864  47.818  1.00  0.00    -0.000 C 
BRANCH  21  22
HETATM   22  C2  UNL     1      30.292   5.384  47.846  1.00  0.00    -0.005 C 
HETATM   23  C1  UNL     1      31.525   4.585  47.494  1.00  0.00     0.005 C 
ENDBRANCH  21  22
ENDBRANCH  20  21
ENDBRANCH  19  20
ENDBRANCH  18  19
ENDBRANCH  17  18
ENDBRANCH  16  17
ENDBRANCH  15  16
ENDBRANCH  14  15
ENDBRANCH  13  14
ENDBRANCH   1  13
BRANCH   9  24
HETATM   24  C17 UNL     1      21.420  -0.497  53.223  1.00  0.00    -0.002 A 
HETATM   25  C18 UNL     1      20.770   0.248  52.263  1.00  0.00     0.014 A 
HETATM   26  C19 UNL     1      19.420   0.209  52.005  1.00  0.00     0.001 A 
HETATM   27  C20 UNL     1      18.630  -0.647  52.766  1.00  0.00     0.000 A 
HETATM   28  C21 UNL     1      19.232  -1.412  53.740  1.00  0.00     0.001 A 
HETATM   29  C22 UNL     1      20.593  -1.328  53.948  1.00  0.00     0.014 A 
ENDBRANCH   9  24
TORSDOF 11
ENDMDL
MODEL 9
REMARK VINA RESULT:      -7.2      1.881      2.873
REMARK  11 active torsions:
REMARK  status: ('A' for Active; 'I' for Inactive)
REMARK    1  A    between atoms: C2_2  and  C3_3 
REMARK    2  A    between atoms: C3_3  and  C4_4 
REMARK    3  A    between atoms: C4_4  and  C5_5 
REMARK    4  A    between atoms: C5_5  and  C6_6 
REMARK    5  A    between atoms: C6_6  and  C7_7 
REMARK    6  A    between atoms: C7_7  and  O1_8 
REMARK    7  A    between atoms: O1_8  and  C8_9 
REMARK    8  A    between atoms: C8_9  and  C9_10 
REMARK    9  A    between atoms: C9_10  and  O2_11 
REMARK   10  A    between atoms: O2_11  and  C10_12 
REMARK   11  A    between atoms: C16_20  and  C17_21 
ROOT
HETATM    1  C10 UNL     1      19.291   0.417  50.949  1.00  0.00     0.069 C 
HETATM    2  C11 UNL     1      18.383  -0.164  51.761  1.00  0.00     0.036 C 
HETATM    3  C12 UNL     1      18.763  -0.864  53.044  1.00  0.00     0.199 C 
HETATM    4  O3  UNL     1      19.434   0.041  53.811  1.00  0.00    -0.368 OA
HETATM    5  C13 UNL     1      20.780   0.139  53.685  1.00  0.00     0.252 C 
HETATM    6  C14 UNL     1      21.552  -0.966  54.357  1.00  0.00     0.187 C 
HETATM    7  O4  UNL     1      21.193  -1.985  55.016  1.00  0.00    -0.290 OA
HETATM    8  C15 UNL     1      23.016  -0.810  54.204  1.00  0.00     0.091 C 
HETATM    9  C16 UNL     1      23.551  -0.127  53.206  1.00  0.00     0.089 C 
HETATM   10  O5  UNL     1      22.694   0.469  52.257  1.00  0.00    -0.311 OA
HETATM   11  C23 UNL     1      21.316   0.364  52.335  1.00  0.00     0.093 C 
HETATM   12  C24 UNL     1      20.761   0.496  51.116  1.00  0.00     0.072 C 
ENDROOT
BRANCH   1  13
HETATM   13  O2  UNL     1      18.848   1.038  49.791  1.00  0.00    -0.349 OA
BRANCH  13  14
HETATM   14  C9  UNL     1      18.152   2.268  49.781  1.00  0.00     0.201 C 
BRANCH  14  15
HETATM   15  C8  UNL     1      18.565   3.149  48.624  1.00  0.00     0.194 C 
BRANCH  15  16
HETATM   16  O1  UNL     1      18.821   4.418  48.904  1.00  0.00    -0.389 OA
BRANCH  16  17
HETATM   17  C7  UNL     1      19.647   4.906  49.816  1.00  0.00     0.167 C 
BRANCH  17  18
HETATM   18  C6  UNL     1      21.073   4.502  49.900  1.00  0.00     0.026 C 
BRANCH  18  19
HETATM   19  C5  UNL     1      21.607   4.055  51.198  1.00  0.00     0.002 C 
BRANCH  19  20
HETATM   20  C4  UNL     1      23.093   3.737  51.109  1.00  0.00     0.000 C 
BRANCH  20  21
HETATM   21  C3  UNL     1      23.462   2.989  49.864  1.00  0.00    -0.000 C 
BRANCH  21  22
HETATM   22  C2  UNL     1      24.824   3.456  49.353  1.00  0.00    -0.005 C 
HETATM   23  C1  UNL     1      25.328   4.526  50.293  1.00  0.00     0.005 C 
ENDBRANCH  21  22
ENDBRANCH  20  21
ENDBRANCH  19  20
ENDBRANCH  18  19
ENDBRANCH  17  18
ENDBRANCH  16  17
ENDBRANCH  15  16
ENDBRANCH  14  15
ENDBRANCH  13  14
ENDBRANCH   1  13
BRANCH   9  24
HETATM   24  C17 UNL     1      24.980   0.069  52.994  1.00  0.00    -0.002 A 
HETATM   25  C18 UNL     1      25.937  -0.669  53.657  1.00  0.00     0.014 A 
HETATM   26  C19 UNL     1      27.296  -0.530  53.500  1.00  0.00     0.001 A 
HETATM   27  C20 UNL     1      27.761   0.428  52.605  1.00  0.00     0.000 A 
HETATM   28  C21 UNL     1      26.843   1.191  51.918  1.00  0.00     0.001 A 
HETATM   29  C22 UNL     1      25.492   1.002  52.119  1.00  0.00     0.014 A 
ENDBRANCH   9  24
TORSDOF 11
ENDMDL
