MODEL 1
REMARK VINA RESULT:      -8.0      0.000      0.000
REMARK  9 active torsions:
REMARK  status: ('A' for Active; 'I' for Inactive)
REMARK    1  A    between atoms: O1_2  and  C2_3 
REMARK    2  A    between atoms: C6_9  and  N3_10 
REMARK    3  A    between atoms: N3_10  and  C7_11 
REMARK    4  A    between atoms: C15_21  and  O2_22 
REMARK    5  A    between atoms: O2_22  and  C16_23 
REMARK    6  A    between atoms: C16_23  and  C17_24 
REMARK    7  A    between atoms: C17_24  and  C18_25 
REMARK    8  A    between atoms: C17_24  and  O3_27 
REMARK    9  A    between atoms: C18_25  and  N4_26 
ROOT
HETATM    1  C2  UNL     1      23.768   0.021  53.466  1.00  0.00     0.103 A 
HETATM    2  C3  UNL     1      22.701   0.557  52.779  1.00  0.00     0.072 A 
HETATM    3  C4  UNL     1      22.934   1.456  51.762  1.00  0.00     0.075 A 
HETATM    4  N1  UNL     1      21.839   1.956  51.116  1.00  0.00    -0.241 NA
HETATM    5  C5  UNL     1      22.013   2.850  50.102  1.00  0.00     0.236 A 
HETATM    6  N2  UNL     1      23.237   3.232  49.744  1.00  0.00    -0.224 NA
HETATM    7  C6  UNL     1      24.349   2.781  50.335  1.00  0.00     0.142 A 
HETATM    8  C13 UNL     1      24.184   1.880  51.359  1.00  0.00     0.042 A 
HETATM    9  C14 UNL     1      25.191   1.309  52.081  1.00  0.00     0.057 A 
HETATM   10  C15 UNL     1      25.043   0.411  53.104  1.00  0.00     0.103 A 
ENDROOT
BRANCH   7  11
HETATM   11  N3  UNL     1      25.664   3.166  49.981  1.00  0.00    -0.340 N 
HETATM   12  H6  UNL     1      26.442   2.511  49.969  1.00  0.00     0.167 HD
BRANCH  11  13
HETATM   13  C7  UNL     1      26.116   4.451  49.602  1.00  0.00     0.035 A 
HETATM   14  C8  UNL     1      27.226   4.653  48.815  1.00  0.00     0.032 A 
HETATM   15  C9  UNL     1      27.702   5.888  48.434  1.00  0.00     0.046 A 
HETATM   16  C10 UNL     1      27.059   7.032  48.845  1.00  0.00     0.138 A 
HETATM   17  F1  UNL     1      27.414   8.304  48.549  1.00  0.00    -0.204 F 
HETATM   18  C11 UNL     1      25.940   6.892  49.636  1.00  0.00     0.074 A 
HETATM   19 CL1  UNL     1      25.050   8.285  50.210  1.00  0.00    -0.081 Cl
HETATM   20  C12 UNL     1      25.517   5.630  49.978  1.00  0.00     0.056 A 
ENDBRANCH  11  13
ENDBRANCH   7  11
BRANCH  10  21
HETATM   21  O2  UNL     1      26.103  -0.134  53.801  1.00  0.00    -0.346 OA
BRANCH  21  22
HETATM   22  C16 UNL     1      26.742   0.492  54.889  1.00  0.00     0.209 C 
BRANCH  22  23
HETATM   23  C17 UNL     1      28.208   0.185  54.785  1.00  0.00     0.172 C 
BRANCH  23  24
HETATM   24  C18 UNL     1      28.970   1.423  54.367  1.00  0.00     0.300 C 
BRANCH  24  25
HETATM   25  N4  UNL     1      28.090   2.452  53.890  1.00  0.00     0.080 N 
HETATM   26  H16 UNL     1      28.541   3.106  53.212  1.00  0.00     0.312 HD
HETATM   27  H17 UNL     1      27.180   2.087  53.547  1.00  0.00     0.312 HD
ENDBRANCH  24  25
ENDBRANCH  23  24
BRANCH  23  28
HETATM   28  O3  UNL     1      28.388  -0.849  53.886  1.00  0.00    -0.387 OA
HETATM   29  C19 UNL     1      29.716  -0.972  53.477  1.00  0.00     0.202 C 
ENDBRANCH  23  28
ENDBRANCH  22  23
ENDBRANCH  21  22
ENDBRANCH  10  21
BRANCH   1  30
HETATM   30  O1  UNL     1      23.581  -0.888  54.499  1.00  0.00    -0.353 OA
HETATM   31  C1  UNL     1      22.242  -1.182  54.859  1.00  0.00     0.210 C 
ENDBRANCH   1  30
TORSDOF 9
ENDMDL
MODEL 2
REMARK VINA RESULT:      -7.8      3.806      5.791
REMARK  9 active torsions:
REMARK  status: ('A' for Active; 'I' for Inactive)
REMARK    1  A    between atoms: O1_2  and  C2_3 
REMARK    2  A    between atoms: C6_9  and  N3_10 
REMARK    3  A    between atoms: N3_10  and  C7_11 
REMARK    4  A    between atoms: C15_21  and  O2_22 
REMARK    5  A    between atoms: O2_22  and  C16_23 
REMARK    6  A    between atoms: C16_23  and  C17_24 
REMARK    7  A    between atoms: C17_24  and  C18_25 
REMARK    8  A    between atoms: C17_24  and  O3_27 
REMARK    9  A    between atoms: C18_25  and  N4_26 
ROOT
HETATM    1  C2  UNL     1      21.411   2.688  52.327  1.00  0.00     0.103 A 
HETATM    2  C3  UNL     1      21.778   3.960  51.944  1.00  0.00     0.072 A 
HETATM    3  C4  UNL     1      23.042   4.177  51.443  1.00  0.00     0.075 A 
HETATM    4  N1  UNL     1      23.352   5.458  51.081  1.00  0.00    -0.241 NA
HETATM    5  C5  UNL     1      24.590   5.728  50.581  1.00  0.00     0.236 A 
HETATM    6  N2  UNL     1      25.489   4.755  50.446  1.00  0.00    -0.224 NA
HETATM    7  C6  UNL     1      25.249   3.484  50.781  1.00  0.00     0.142 A 
HETATM    8  C13 UNL     1      24.004   3.201  51.287  1.00  0.00     0.042 A 
HETATM    9  C14 UNL     1      23.572   1.969  51.685  1.00  0.00     0.057 A 
HETATM   10  C15 UNL     1      22.336   1.671  52.192  1.00  0.00     0.103 A 
ENDROOT
BRANCH   7  11
HETATM   11  N3  UNL     1      26.180   2.426  50.651  1.00  0.00    -0.340 N 
HETATM   12  H6  UNL     1      26.490   2.076  49.748  1.00  0.00     0.167 HD
BRANCH  11  13
HETATM   13  C7  UNL     1      26.815   1.701  51.687  1.00  0.00     0.035 A 
HETATM   14  C8  UNL     1      27.549   2.304  52.682  1.00  0.00     0.032 A 
HETATM   15  C9  UNL     1      28.190   1.631  53.699  1.00  0.00     0.046 A 
HETATM   16  C10 UNL     1      28.122   0.260  53.769  1.00  0.00     0.138 A 
HETATM   17  F1  UNL     1      28.699  -0.527  54.707  1.00  0.00    -0.204 F 
HETATM   18  C11 UNL     1      27.400  -0.399  52.799  1.00  0.00     0.074 A 
HETATM   19 CL1  UNL     1      27.252  -2.142  52.799  1.00  0.00    -0.081 Cl
HETATM   20  C12 UNL     1      26.784   0.332  51.811  1.00  0.00     0.056 A 
ENDBRANCH  11  13
ENDBRANCH   7  11
BRANCH  10  21
HETATM   21  O2  UNL     1      21.954   0.402  52.579  1.00  0.00    -0.346 OA
BRANCH  21  22
HETATM   22  C16 UNL     1      22.778  -0.490  53.294  1.00  0.00     0.209 C 
BRANCH  22  23
HETATM   23  C17 UNL     1      21.880  -1.480  53.978  1.00  0.00     0.172 C 
BRANCH  23  24
HETATM   24  C18 UNL     1      20.453  -0.978  53.973  1.00  0.00     0.300 C 
BRANCH  24  25
HETATM   25  N4  UNL     1      20.281   0.144  54.851  1.00  0.00     0.080 N 
HETATM   26  H16 UNL     1      21.073   0.277  55.518  1.00  0.00     0.312 HD
HETATM   27  H17 UNL     1      20.026   1.020  54.353  1.00  0.00     0.312 HD
ENDBRANCH  24  25
ENDBRANCH  23  24
BRANCH  23  28
HETATM   28  O3  UNL     1      22.339  -1.688  55.265  1.00  0.00    -0.387 OA
HETATM   29  C19 UNL     1      23.669  -1.299  55.422  1.00  0.00     0.202 C 
ENDBRANCH  23  28
ENDBRANCH  22  23
ENDBRANCH  21  22
ENDBRANCH  10  21
BRANCH   1  30
HETATM   30  O1  UNL     1      20.147   2.422  52.837  1.00  0.00    -0.353 OA
HETATM   31  C1  UNL     1      19.099   2.253  51.898  1.00  0.00     0.210 C 
ENDBRANCH   1  30
TORSDOF 9
ENDMDL
MODEL 3
REMARK VINA RESULT:      -7.7      4.535      6.913
REMARK  9 active torsions:
REMARK  status: ('A' for Active; 'I' for Inactive)
REMARK    1  A    between atoms: O1_2  and  C2_3 
REMARK    2  A    between atoms: C6_9  and  N3_10 
REMARK    3  A    between atoms: N3_10  and  C7_11 
REMARK    4  A    between atoms: C15_21  and  O2_22 
REMARK    5  A    between atoms: O2_22  and  C16_23 
REMARK    6  A    between atoms: C16_23  and  C17_24 
REMARK    7  A    between atoms: C17_24  and  C18_25 
REMARK    8  A    between atoms: C17_24  and  O3_27 
REMARK    9  A    between atoms: C18_25  and  N4_26 
ROOT
HETATM    1  C2  UNL     1      20.426   2.400  52.520  1.00  0.00     0.103 A 
HETATM    2  C3  UNL     1      20.482   1.324  53.380  1.00  0.00     0.072 A 
HETATM    3  C4  UNL     1      21.671   0.651  53.545  1.00  0.00     0.075 A 
HETATM    4  N1  UNL     1      21.667  -0.408  54.409  1.00  0.00    -0.241 NA
HETATM    5  C5  UNL     1      22.818  -1.110  54.608  1.00  0.00     0.236 A 
HETATM    6  N2  UNL     1      23.935  -0.769  53.968  1.00  0.00    -0.224 NA
HETATM    7  C6  UNL     1      24.005   0.255  53.111  1.00  0.00     0.142 A 
HETATM    8  C13 UNL     1      22.850   0.969  52.903  1.00  0.00     0.042 A 
HETATM    9  C14 UNL     1      22.722   2.041  52.069  1.00  0.00     0.057 A 
HETATM   10  C15 UNL     1      21.579   2.762  51.850  1.00  0.00     0.103 A 
ENDROOT
BRANCH   7  11
HETATM   11  N3  UNL     1      25.174   0.645  52.415  1.00  0.00    -0.340 N 
HETATM   12  H6  UNL     1      25.143   1.139  51.526  1.00  0.00     0.167 HD
BRANCH  11  13
HETATM   13  C7  UNL     1      26.519   0.435  52.798  1.00  0.00     0.035 A 
HETATM   14  C8  UNL     1      27.361   1.458  53.169  1.00  0.00     0.032 A 
HETATM   15  C9  UNL     1      28.678   1.293  53.537  1.00  0.00     0.046 A 
HETATM   16  C10 UNL     1      29.239   0.038  53.550  1.00  0.00     0.138 A 
HETATM   17  F1  UNL     1      30.513  -0.270  53.888  1.00  0.00    -0.204 F 
HETATM   18  C11 UNL     1      28.443  -1.026  53.188  1.00  0.00     0.074 A 
HETATM   19 CL1  UNL     1      29.062  -2.663  53.173  1.00  0.00    -0.081 Cl
HETATM   20  C12 UNL     1      27.136  -0.793  52.832  1.00  0.00     0.056 A 
ENDBRANCH  11  13
ENDBRANCH   7  11
BRANCH  10  21
HETATM   21  O2  UNL     1      21.509   3.841  50.992  1.00  0.00    -0.346 OA
BRANCH  21  22
HETATM   22  C16 UNL     1      22.568   4.270  50.168  1.00  0.00     0.209 C 
BRANCH  22  23
HETATM   23  C17 UNL     1      22.816   5.719  50.473  1.00  0.00     0.172 C 
BRANCH  23  24
HETATM   24  C18 UNL     1      24.040   5.865  51.349  1.00  0.00     0.300 C 
BRANCH  24  25
HETATM   25  N4  UNL     1      23.758   5.526  52.715  1.00  0.00     0.080 N 
HETATM   26  H16 UNL     1      24.374   6.014  53.402  1.00  0.00     0.312 HD
HETATM   27  H17 UNL     1      22.750   5.603  52.958  1.00  0.00     0.312 HD
ENDBRANCH  24  25
ENDBRANCH  23  24
BRANCH  23  28
HETATM   28  O3  UNL     1      21.692   6.248  51.078  1.00  0.00    -0.387 OA
HETATM   29  C19 UNL     1      21.200   7.364  50.401  1.00  0.00     0.202 C 
ENDBRANCH  23  28
ENDBRANCH  22  23
ENDBRANCH  21  22
ENDBRANCH  10  21
BRANCH   1  30
HETATM   30  O1  UNL     1      19.248   3.108  52.322  1.00  0.00    -0.353 OA
HETATM   31  C1  UNL     1      18.268   2.504  51.496  1.00  0.00     0.210 C 
ENDBRANCH   1  30
TORSDOF 9
ENDMDL
MODEL 4
REMARK VINA RESULT:      -7.7      2.171      2.539
REMARK  9 active torsions:
REMARK  status: ('A' for Active; 'I' for Inactive)
REMARK    1  A    between atoms: O1_2  and  C2_3 
REMARK    2  A    between atoms: C6_9  and  N3_10 
REMARK    3  A    between atoms: N3_10  and  C7_11 
REMARK    4  A    between atoms: C15_21  and  O2_22 
REMARK    5  A    between atoms: O2_22  and  C16_23 
REMARK    6  A    between atoms: C16_23  and  C17_24 
REMARK    7  A    between atoms: C17_24  and  C18_25 
REMARK    8  A    between atoms: C17_24  and  O3_27 
REMARK    9  A    between atoms: C18_25  and  N4_26 
ROOT
HETATM    1  C2  UNL     1      23.348   0.596  53.104  1.00  0.00     0.103 A 
HETATM    2  C3  UNL     1      22.099   1.075  52.769  1.00  0.00     0.072 A 
HETATM    3  C4  UNL     1      21.961   2.385  52.371  1.00  0.00     0.075 A 
HETATM    4  N1  UNL     1      20.700   2.805  52.053  1.00  0.00    -0.241 NA
HETATM    5  C5  UNL     1      20.507   4.093  51.653  1.00  0.00     0.236 A 
HETATM    6  N2  UNL     1      21.536   4.934  51.573  1.00  0.00    -0.224 NA
HETATM    7  C6  UNL     1      22.792   4.587  51.869  1.00  0.00     0.142 A 
HETATM    8  C13 UNL     1      22.997   3.291  52.274  1.00  0.00     0.042 A 
HETATM    9  C14 UNL     1      24.202   2.750  52.619  1.00  0.00     0.057 A 
HETATM   10  C15 UNL     1      24.423   1.461  53.025  1.00  0.00     0.103 A 
ENDROOT
BRANCH   7  11
HETATM   11  N3  UNL     1      23.908   5.455  51.796  1.00  0.00    -0.340 N 
HETATM   12  H6  UNL     1      24.371   5.825  52.623  1.00  0.00     0.167 HD
BRANCH  11  13
HETATM   13  C7  UNL     1      24.548   5.943  50.633  1.00  0.00     0.035 A 
HETATM   14  C8  UNL     1      24.069   7.007  49.903  1.00  0.00     0.032 A 
HETATM   15  C9  UNL     1      24.659   7.502  48.762  1.00  0.00     0.046 A 
HETATM   16  C10 UNL     1      25.809   6.927  48.274  1.00  0.00     0.138 A 
HETATM   17  F1  UNL     1      26.491   7.308  47.169  1.00  0.00    -0.204 F 
HETATM   18  C11 UNL     1      26.335   5.857  48.963  1.00  0.00     0.074 A 
HETATM   19 CL1  UNL     1      27.796   5.057  48.425  1.00  0.00    -0.081 Cl
HETATM   20  C12 UNL     1      25.698   5.413  50.097  1.00  0.00     0.056 A 
ENDBRANCH  11  13
ENDBRANCH   7  11
BRANCH  10  21
HETATM   21  O2  UNL     1      25.667   0.969  53.362  1.00  0.00    -0.346 OA
BRANCH  21  22
HETATM   22  C16 UNL     1      26.647   0.583  52.427  1.00  0.00     0.209 C 
BRANCH  22  23
HETATM   23  C17 UNL     1      27.453  -0.520  53.051  1.00  0.00     0.172 C 
BRANCH  23  24
HETATM   24  C18 UNL     1      26.895  -1.865  52.644  1.00  0.00     0.300 C 
BRANCH  24  25
HETATM   25  N4  UNL     1      27.812  -2.931  52.936  1.00  0.00     0.080 N 
HETATM   26  H16 UNL     1      28.288  -2.831  53.859  1.00  0.00     0.312 HD
HETATM   27  H17 UNL     1      27.401  -3.875  52.798  1.00  0.00     0.312 HD
ENDBRANCH  24  25
ENDBRANCH  23  24
BRANCH  23  28
HETATM   28  O3  UNL     1      27.444  -0.361  54.424  1.00  0.00    -0.387 OA
HETATM   29  C19 UNL     1      28.636   0.183  54.902  1.00  0.00     0.202 C 
ENDBRANCH  23  28
ENDBRANCH  22  23
ENDBRANCH  21  22
ENDBRANCH  10  21
BRANCH   1  30
HETATM   30  O1  UNL     1      23.534  -0.718  53.511  1.00  0.00    -0.353 OA
HETATM   31  C1  UNL     1      22.671  -1.204  54.525  1.00  0.00     0.210 C 
ENDBRANCH   1  30
TORSDOF 9
ENDMDL
MODEL 5
REMARK VINA RESULT:      -7.5      1.438      1.692
REMARK  9 active torsions:
REMARK  status: ('A' for Active; 'I' for Inactive)
REMARK    1  A    between atoms: O1_2  and  C2_3 
REMARK    2  A    between atoms: C6_9  and  N3_10 
REMARK    3  A    between atoms: N3_10  and  C7_11 
REMARK    4  A    between atoms: C15_21  and  O2_22 
REMARK    5  A    between atoms: O2_22  and  C16_23 
REMARK    6  A    between atoms: C16_23  and  C17_24 
REMARK    7  A    between atoms: C17_24  and  C18_25 
REMARK    8  A    between atoms: C17_24  and  O3_27 
REMARK    9  A    between atoms: C18_25  and  N4_26 
ROOT
HETATM    1  C2  UNL     1      23.578   0.625  52.897  1.00  0.00     0.103 A 
HETATM    2  C3  UNL     1      22.619   1.273  52.149  1.00  0.00     0.072 A 
HETATM    3  C4  UNL     1      23.009   2.127  51.142  1.00  0.00     0.075 A 
HETATM    4  N1  UNL     1      22.015   2.743  50.435  1.00  0.00    -0.241 NA
HETATM    5  C5  UNL     1      22.346   3.599  49.428  1.00  0.00     0.236 A 
HETATM    6  N2  UNL     1      23.624   3.834  49.135  1.00  0.00    -0.224 NA
HETATM    7  C6  UNL     1      24.642   3.264  49.788  1.00  0.00     0.142 A 
HETATM    8  C13 UNL     1      24.319   2.399  50.806  1.00  0.00     0.042 A 
HETATM    9  C14 UNL     1      25.213   1.724  51.585  1.00  0.00     0.057 A 
HETATM   10  C15 UNL     1      24.908   0.861  52.602  1.00  0.00     0.103 A 
ENDROOT
BRANCH   7  11
HETATM   11  N3  UNL     1      26.010   3.490  49.504  1.00  0.00    -0.340 N 
HETATM   12  H6  UNL     1      26.709   2.753  49.554  1.00  0.00     0.167 HD
BRANCH  11  13
HETATM   13  C7  UNL     1      26.624   4.706  49.123  1.00  0.00     0.035 A 
HETATM   14  C8  UNL     1      25.984   5.922  49.190  1.00  0.00     0.032 A 
HETATM   15  C9  UNL     1      26.545   7.124  48.818  1.00  0.00     0.046 A 
HETATM   16  C10 UNL     1      27.833   7.165  48.340  1.00  0.00     0.138 A 
HETATM   17  F1  UNL     1      28.507   8.268  47.940  1.00  0.00    -0.204 F 
HETATM   18  C11 UNL     1      28.525   5.977  48.251  1.00  0.00     0.074 A 
HETATM   19 CL1  UNL     1      30.169   5.923  47.656  1.00  0.00    -0.081 Cl
HETATM   20  C12 UNL     1      27.906   4.813  48.640  1.00  0.00     0.056 A 
ENDBRANCH  11  13
ENDBRANCH   7  11
BRANCH  10  21
HETATM   21  O2  UNL     1      25.858   0.205  53.359  1.00  0.00    -0.346 OA
BRANCH  21  22
HETATM   22  C16 UNL     1      26.529   0.776  54.458  1.00  0.00     0.209 C 
BRANCH  22  23
HETATM   23  C17 UNL     1      27.950   0.292  54.417  1.00  0.00     0.172 C 
BRANCH  23  24
HETATM   24  C18 UNL     1      28.801   1.245  53.609  1.00  0.00     0.300 C 
BRANCH  24  25
HETATM   25  N4  UNL     1      29.468   2.202  54.446  1.00  0.00     0.080 N 
HETATM   26  H16 UNL     1      28.861   3.002  54.730  1.00  0.00     0.312 HD
HETATM   27  H17 UNL     1      29.961   1.770  55.252  1.00  0.00     0.312 HD
ENDBRANCH  24  25
ENDBRANCH  23  24
BRANCH  23  28
HETATM   28  O3  UNL     1      27.973  -0.984  53.887  1.00  0.00    -0.387 OA
HETATM   29  C19 UNL     1      29.251  -1.364  53.475  1.00  0.00     0.202 C 
ENDBRANCH  23  28
ENDBRANCH  22  23
ENDBRANCH  21  22
ENDBRANCH  10  21
BRANCH   1  30
HETATM   30  O1  UNL     1      23.231  -0.245  53.922  1.00  0.00    -0.353 OA
HETATM   31  C1  UNL     1      22.299  -1.265  53.609  1.00  0.00     0.210 C 
ENDBRANCH   1  30
TORSDOF 9
ENDMDL
MODEL 6
REMARK VINA RESULT:      -7.4      4.398      7.047
REMARK  9 active torsions:
REMARK  status: ('A' for Active; 'I' for Inactive)
REMARK    1  A    between atoms: O1_2  and  C2_3 
REMARK    2  A    between atoms: C6_9  and  N3_10 
REMARK    3  A    between atoms: N3_10  and  C7_11 
REMARK    4  A    between atoms: C15_21  and  O2_22 
REMARK    5  A    between atoms: O2_22  and  C16_23 
REMARK    6  A    between atoms: C16_23  and  C17_24 
REMARK    7  A    between atoms: C17_24  and  C18_25 
REMARK    8  A    between atoms: C17_24  and  O3_27 
REMARK    9  A    between atoms: C18_25  and  N4_26 
ROOT
HETATM    1  C2  UNL     1      19.912   0.304  52.403  1.00  0.00     0.103 A 
HETATM    2  C3  UNL     1      20.188  -0.446  53.526  1.00  0.00     0.072 A 
HETATM    3  C4  UNL     1      21.494  -0.609  53.927  1.00  0.00     0.075 A 
HETATM    4  N1  UNL     1      21.708  -1.364  55.046  1.00  0.00    -0.241 NA
HETATM    5  C5  UNL     1      22.983  -1.557  55.486  1.00  0.00     0.236 A 
HETATM    6  N2  UNL     1      24.010  -1.017  54.833  1.00  0.00    -0.224 NA
HETATM    7  C6  UNL     1      23.869  -0.270  53.733  1.00  0.00     0.142 A 
HETATM    8  C13 UNL     1      22.588  -0.069  53.281  1.00  0.00     0.042 A 
HETATM    9  C14 UNL     1      22.241   0.660  52.181  1.00  0.00     0.057 A 
HETATM   10  C15 UNL     1      20.971   0.869  51.717  1.00  0.00     0.103 A 
ENDROOT
BRANCH   7  11
HETATM   11  N3  UNL     1      24.937   0.318  53.015  1.00  0.00    -0.340 N 
HETATM   12  H6  UNL     1      24.791   0.996  52.270  1.00  0.00     0.167 HD
BRANCH  11  13
HETATM   13  C7  UNL     1      26.323   0.089  53.185  1.00  0.00     0.035 A 
HETATM   14  C8  UNL     1      26.929  -1.105  52.870  1.00  0.00     0.032 A 
HETATM   15  C9  UNL     1      28.271  -1.368  53.031  1.00  0.00     0.046 A 
HETATM   16  C10 UNL     1      29.108  -0.403  53.539  1.00  0.00     0.138 A 
HETATM   17  F1  UNL     1      30.439  -0.523  53.751  1.00  0.00    -0.204 F 
HETATM   18  C11 UNL     1      28.556   0.815  53.873  1.00  0.00     0.074 A 
HETATM   19 CL1  UNL     1      29.535   2.109  54.527  1.00  0.00    -0.081 Cl
HETATM   20  C12 UNL     1      27.209   1.013  53.686  1.00  0.00     0.056 A 
ENDBRANCH  11  13
ENDBRANCH   7  11
BRANCH  10  21
HETATM   21  O2  UNL     1      20.680   1.618  50.594  1.00  0.00    -0.346 OA
BRANCH  21  22
HETATM   22  C16 UNL     1      20.826   3.017  50.515  1.00  0.00     0.209 C 
BRANCH  22  23
HETATM   23  C17 UNL     1      20.776   3.391  49.062  1.00  0.00     0.172 C 
BRANCH  23  24
HETATM   24  C18 UNL     1      20.831   2.149  48.202  1.00  0.00     0.300 C 
BRANCH  24  25
HETATM   25  N4  UNL     1      22.182   1.736  47.951  1.00  0.00     0.080 N 
HETATM   26  H16 UNL     1      22.426   0.818  48.385  1.00  0.00     0.312 HD
HETATM   27  H17 UNL     1      22.447   1.785  46.947  1.00  0.00     0.312 HD
ENDBRANCH  24  25
ENDBRANCH  23  24
BRANCH  23  28
HETATM   28  O3  UNL     1      21.825   4.248  48.784  1.00  0.00    -0.387 OA
HETATM   29  C19 UNL     1      22.473   4.685  49.939  1.00  0.00     0.202 C 
ENDBRANCH  23  28
ENDBRANCH  22  23
ENDBRANCH  21  22
ENDBRANCH  10  21
BRANCH   1  30
HETATM   30  O1  UNL     1      18.610   0.495  51.962  1.00  0.00    -0.353 OA
HETATM   31  C1  UNL     1      17.718  -0.598  52.102  1.00  0.00     0.210 C 
ENDBRANCH   1  30
TORSDOF 9
ENDMDL
MODEL 7
REMARK VINA RESULT:      -7.3      4.267      6.999
REMARK  9 active torsions:
REMARK  status: ('A' for Active; 'I' for Inactive)
REMARK    1  A    between atoms: O1_2  and  C2_3 
REMARK    2  A    between atoms: C6_9  and  N3_10 
REMARK    3  A    between atoms: N3_10  and  C7_11 
REMARK    4  A    between atoms: C15_21  and  O2_22 
REMARK    5  A    between atoms: O2_22  and  C16_23 
REMARK    6  A    between atoms: C16_23  and  C17_24 
REMARK    7  A    between atoms: C17_24  and  C18_25 
REMARK    8  A    between atoms: C17_24  and  O3_27 
REMARK    9  A    between atoms: C18_25  and  N4_26 
ROOT
HETATM    1  C2  UNL     1      23.276   3.030  49.166  1.00  0.00     0.103 A 
HETATM    2  C3  UNL     1      22.483   2.078  49.770  1.00  0.00     0.072 A 
HETATM    3  C4  UNL     1      22.867   1.545  50.980  1.00  0.00     0.075 A 
HETATM    4  N1  UNL     1      22.043   0.604  51.531  1.00  0.00    -0.241 NA
HETATM    5  C5  UNL     1      22.377   0.044  52.727  1.00  0.00     0.236 A 
HETATM    6  N2  UNL     1      23.494   0.409  53.353  1.00  0.00    -0.224 NA
HETATM    7  C6  UNL     1      24.342   1.322  52.868  1.00  0.00     0.142 A 
HETATM    8  C13 UNL     1      24.015   1.892  51.662  1.00  0.00     0.042 A 
HETATM    9  C14 UNL     1      24.750   2.838  51.008  1.00  0.00     0.057 A 
HETATM   10  C15 UNL     1      24.438   3.415  49.807  1.00  0.00     0.103 A 
ENDROOT
BRANCH   7  11
HETATM   11  N3  UNL     1      25.537   1.732  53.506  1.00  0.00    -0.340 N 
HETATM   12  H6  UNL     1      25.608   2.600  54.032  1.00  0.00     0.167 HD
BRANCH  11  13
HETATM   13  C7  UNL     1      26.780   1.057  53.531  1.00  0.00     0.035 A 
HETATM   14  C8  UNL     1      27.966   1.683  53.837  1.00  0.00     0.032 A 
HETATM   15  C9  UNL     1      29.196   1.061  53.861  1.00  0.00     0.046 A 
HETATM   16  C10 UNL     1      29.297  -0.278  53.565  1.00  0.00     0.138 A 
HETATM   17  F1  UNL     1      30.434  -1.013  53.550  1.00  0.00    -0.204 F 
HETATM   18  C11 UNL     1      28.141  -0.957  53.251  1.00  0.00     0.074 A 
HETATM   19 CL1  UNL     1      28.164  -2.662  52.861  1.00  0.00    -0.081 Cl
HETATM   20  C12 UNL     1      26.947  -0.277  53.247  1.00  0.00     0.056 A 
ENDBRANCH  11  13
ENDBRANCH   7  11
BRANCH  10  21
HETATM   21  O2  UNL     1      25.223   4.369  49.191  1.00  0.00    -0.346 OA
BRANCH  21  22
HETATM   22  C16 UNL     1      25.551   5.614  49.762  1.00  0.00     0.209 C 
BRANCH  22  23
HETATM   23  C17 UNL     1      25.939   6.534  48.640  1.00  0.00     0.172 C 
BRANCH  23  24
HETATM   24  C18 UNL     1      27.424   6.433  48.374  1.00  0.00     0.300 C 
BRANCH  24  25
HETATM   25  N4  UNL     1      28.008   5.306  49.045  1.00  0.00     0.080 N 
HETATM   26  H16 UNL     1      27.738   4.387  48.630  1.00  0.00     0.312 HD
HETATM   27  H17 UNL     1      29.035   5.396  49.181  1.00  0.00     0.312 HD
ENDBRANCH  24  25
ENDBRANCH  23  24
BRANCH  23  28
HETATM   28  O3  UNL     1      25.570   7.825  48.971  1.00  0.00    -0.387 OA
HETATM   29  C19 UNL     1      24.941   8.484  47.915  1.00  0.00     0.202 C 
ENDBRANCH  23  28
ENDBRANCH  22  23
ENDBRANCH  21  22
ENDBRANCH  10  21
BRANCH   1  30
HETATM   30  O1  UNL     1      22.928   3.594  47.946  1.00  0.00    -0.353 OA
HETATM   31  C1  UNL     1      21.990   2.884  47.156  1.00  0.00     0.210 C 
ENDBRANCH   1  30
TORSDOF 9
ENDMDL
MODEL 8
REMARK VINA RESULT:      -7.1      5.173      8.170
REMARK  9 active torsions:
REMARK  status: ('A' for Active; 'I' for Inactive)
REMARK    1  A    between atoms: O1_2  and  C2_3 
REMARK    2  A    between atoms: C6_9  and  N3_10 
REMARK    3  A    between atoms: N3_10  and  C7_11 
REMARK    4  A    between atoms: C15_21  and  O2_22 
REMARK    5  A    between atoms: O2_22  and  C16_23 
REMARK    6  A    between atoms: C16_23  and  C17_24 
REMARK    7  A    between atoms: C17_24  and  C18_25 
REMARK    8  A    between atoms: C17_24  and  O3_27 
REMARK    9  A    between atoms: C18_25  and  N4_26 
ROOT
HETATM    1  C2  UNL     1      25.545   1.000  52.499  1.00  0.00     0.103 A 
HETATM    2  C3  UNL     1      25.420   0.051  53.491  1.00  0.00     0.072 A 
HETATM    3  C4  UNL     1      24.168  -0.277  53.960  1.00  0.00     0.075 A 
HETATM    4  N1  UNL     1      24.104  -1.222  54.945  1.00  0.00    -0.241 NA
HETATM    5  C5  UNL     1      22.889  -1.583  55.444  1.00  0.00     0.236 A 
HETATM    6  N2  UNL     1      21.775  -1.021  54.978  1.00  0.00    -0.224 NA
HETATM    7  C6  UNL     1      21.769  -0.092  54.017  1.00  0.00     0.142 A 
HETATM    8  C13 UNL     1      22.989   0.280  53.507  1.00  0.00     0.042 A 
HETATM    9  C14 UNL     1      23.188   1.208  52.527  1.00  0.00     0.057 A 
HETATM   10  C15 UNL     1      24.396   1.590  52.009  1.00  0.00     0.103 A 
ENDROOT
BRANCH   7  11
HETATM   11  N3  UNL     1      20.605   0.526  53.500  1.00  0.00    -0.340 N 
HETATM   12  H6  UNL     1      20.515   1.535  53.406  1.00  0.00     0.167 HD
BRANCH  11  13
HETATM   13  C7  UNL     1      19.422  -0.103  53.045  1.00  0.00     0.035 A 
HETATM   14  C8  UNL     1      18.607   0.444  52.081  1.00  0.00     0.032 A 
HETATM   15  C9  UNL     1      17.444  -0.133  51.621  1.00  0.00     0.046 A 
HETATM   16  C10 UNL     1      17.024  -1.339  52.129  1.00  0.00     0.138 A 
HETATM   17  F1  UNL     1      15.907  -2.016  51.773  1.00  0.00    -0.204 F 
HETATM   18  C11 UNL     1      17.800  -1.934  53.098  1.00  0.00     0.074 A 
HETATM   19 CL1  UNL     1      17.353  -3.469  53.809  1.00  0.00    -0.081 Cl
HETATM   20  C12 UNL     1      18.951  -1.306  53.512  1.00  0.00     0.056 A 
ENDBRANCH  11  13
ENDBRANCH   7  11
BRANCH  10  21
HETATM   21  O2  UNL     1      24.536   2.538  51.015  1.00  0.00    -0.346 OA
BRANCH  21  22
HETATM   22  C16 UNL     1      24.210   3.900  51.167  1.00  0.00     0.209 C 
BRANCH  22  23
HETATM   23  C17 UNL     1      24.557   4.591  49.880  1.00  0.00     0.172 C 
BRANCH  23  24
HETATM   24  C18 UNL     1      25.864   4.057  49.339  1.00  0.00     0.300 C 
BRANCH  24  25
HETATM   25  N4  UNL     1      26.882   4.021  50.350  1.00  0.00     0.080 N 
HETATM   26  H16 UNL     1      26.730   3.281  51.071  1.00  0.00     0.312 HD
HETATM   27  H17 UNL     1      27.846   4.007  49.962  1.00  0.00     0.312 HD
ENDBRANCH  24  25
ENDBRANCH  23  24
BRANCH  23  28
HETATM   28  O3  UNL     1      24.619   5.953  50.105  1.00  0.00    -0.387 OA
HETATM   29  C19 UNL     1      23.801   6.354  51.161  1.00  0.00     0.202 C 
ENDBRANCH  23  28
ENDBRANCH  22  23
ENDBRANCH  21  22
ENDBRANCH  10  21
BRANCH   1  30
HETATM   30  O1  UNL     1      26.788   1.362  51.997  1.00  0.00    -0.353 OA
HETATM   31  C1  UNL     1      27.728   1.880  52.923  1.00  0.00     0.210 C 
ENDBRANCH   1  30
TORSDOF 9
ENDMDL
MODEL 9
REMARK VINA RESULT:      -7.1      4.146      6.578
REMARK  9 active torsions:
REMARK  status: ('A' for Active; 'I' for Inactive)
REMARK    1  A    between atoms: O1_2  and  C2_3 
REMARK    2  A    between atoms: C6_9  and  N3_10 
REMARK    3  A    between atoms: N3_10  and  C7_11 
REMARK    4  A    between atoms: C15_21  and  O2_22 
REMARK    5  A    between atoms: O2_22  and  C16_23 
REMARK    6  A    between atoms: C16_23  and  C17_24 
REMARK    7  A    between atoms: C17_24  and  C18_25 
REMARK    8  A    between atoms: C17_24  and  O3_27 
REMARK    9  A    between atoms: C18_25  and  N4_26 
ROOT
HETATM    1  C2  UNL     1      25.801   3.707  49.980  1.00  0.00     0.103 A 
HETATM    2  C3  UNL     1      24.856   4.477  49.336  1.00  0.00     0.072 A 
HETATM    3  C4  UNL     1      23.567   4.511  49.819  1.00  0.00     0.075 A 
HETATM    4  N1  UNL     1      22.673   5.289  49.140  1.00  0.00    -0.241 NA
HETATM    5  C5  UNL     1      21.383   5.357  49.575  1.00  0.00     0.236 A 
HETATM    6  N2  UNL     1      20.998   4.673  50.651  1.00  0.00    -0.224 NA
HETATM    7  C6  UNL     1      21.823   3.894  51.358  1.00  0.00     0.142 A 
HETATM    8  C13 UNL     1      23.125   3.818  50.927  1.00  0.00     0.042 A 
HETATM    9  C14 UNL     1      24.111   3.080  51.514  1.00  0.00     0.057 A 
HETATM   10  C15 UNL     1      25.412   2.992  51.097  1.00  0.00     0.103 A 
ENDROOT
BRANCH   7  11
HETATM   11  N3  UNL     1      21.448   3.154  52.505  1.00  0.00    -0.340 N 
HETATM   12  H6  UNL     1      21.724   3.423  53.446  1.00  0.00     0.167 HD
BRANCH  11  13
HETATM   13  C7  UNL     1      20.668   1.974  52.555  1.00  0.00     0.035 A 
HETATM   14  C8  UNL     1      19.476   1.835  51.883  1.00  0.00     0.032 A 
HETATM   15  C9  UNL     1      18.685   0.707  51.917  1.00  0.00     0.046 A 
HETATM   16  C10 UNL     1      19.071  -0.383  52.661  1.00  0.00     0.138 A 
HETATM   17  F1  UNL     1      18.396  -1.550  52.785  1.00  0.00    -0.204 F 
HETATM   18  C11 UNL     1      20.257  -0.301  53.355  1.00  0.00     0.074 A 
HETATM   19 CL1  UNL     1      20.835  -1.634  54.330  1.00  0.00    -0.081 Cl
HETATM   20  C12 UNL     1      20.999   0.853  53.278  1.00  0.00     0.056 A 
ENDBRANCH  11  13
ENDBRANCH   7  11
BRANCH  10  21
HETATM   21  O2  UNL     1      26.369   2.226  51.732  1.00  0.00    -0.346 OA
BRANCH  21  22
HETATM   22  C16 UNL     1      26.202   0.868  52.068  1.00  0.00     0.209 C 
BRANCH  22  23
HETATM   23  C17 UNL     1      26.768   0.674  53.445  1.00  0.00     0.172 C 
BRANCH  23  24
HETATM   24  C18 UNL     1      28.162   1.255  53.521  1.00  0.00     0.300 C 
BRANCH  24  25
HETATM   25  N4  UNL     1      28.142   2.632  53.929  1.00  0.00     0.080 N 
HETATM   26  H16 UNL     1      29.043   3.130  53.758  1.00  0.00     0.312 HD
HETATM   27  H17 UNL     1      27.321   3.155  53.567  1.00  0.00     0.312 HD
ENDBRANCH  24  25
ENDBRANCH  23  24
BRANCH  23  28
HETATM   28  O3  UNL     1      26.763  -0.675  53.746  1.00  0.00    -0.387 OA
HETATM   29  C19 UNL     1      26.699  -1.473  52.603  1.00  0.00     0.202 C 
ENDBRANCH  23  28
ENDBRANCH  22  23
ENDBRANCH  21  22
ENDBRANCH  10  21
BRANCH   1  30
HETATM   30  O1  UNL     1      27.112   3.643  49.528  1.00  0.00    -0.353 OA
HETATM   31  C1  UNL     1      27.561   4.710  48.710  1.00  0.00     0.210 C 
ENDBRANCH   1  30
TORSDOF 9
ENDMDL
