MODEL 1
REMARK VINA RESULT:      -8.3      0.000      0.000
REMARK  6 active torsions:
REMARK  status: ('A' for Active; 'I' for Inactive)
REMARK       I    between atoms: C1_2  and  N1_3 
REMARK    1  A    between atoms: C1_2  and  C5_9 
REMARK    2  A    between atoms: N1_3  and  C2_4 
REMARK    3  A    between atoms: C2_4  and  C3_5 
REMARK    4  A    between atoms: C3_5  and  O2_6 
REMARK    5  A    between atoms: C3_5  and  C4_7 
REMARK    6  A    between atoms: C4_7  and  O3_8 
ROOT
HETATM    1  C5  UNL     1      25.192   3.599  50.207  1.00  0.00     0.032 C 
HETATM    2  C6  UNL     1      24.179   3.272  49.462  1.00  0.00     0.014 C 
HETATM    3  C7  UNL     1      22.753   3.002  49.580  1.00  0.00    -0.002 C 
HETATM    4  C8  UNL     1      22.004   2.647  50.611  1.00  0.00    -0.017 C 
HETATM    5  C9  UNL     1      22.035   2.678  52.062  1.00  0.00     0.046 C 
HETATM    6  C10 UNL     1      23.156   3.509  52.635  1.00  0.00     0.049 C 
HETATM    7  C11 UNL     1      24.428   2.784  52.363  1.00  0.00    -0.055 C 
HETATM    8  C12 UNL     1      24.637   1.585  52.881  1.00  0.00     0.016 C 
HETATM    9  C13 UNL     1      23.416   0.768  53.050  1.00  0.00    -0.029 A 
HETATM   10  C14 UNL     1      23.591  -0.466  53.587  1.00  0.00     0.012 A 
HETATM   11  C15 UNL     1      22.475  -1.264  53.770  1.00  0.00     0.001 A 
HETATM   12  C16 UNL     1      21.211  -0.788  53.405  1.00  0.00     0.001 A 
HETATM   13  C17 UNL     1      21.106   0.470  52.868  1.00  0.00     0.009 A 
HETATM   14  C18 UNL     1      22.184   1.306  52.662  1.00  0.00    -0.040 A 
HETATM   15  C19 UNL     1      25.615   3.145  51.559  1.00  0.00     0.149 C 
HETATM   16 CL1  UNL     1      26.776   1.820  51.524  1.00  0.00    -0.115 Cl
ENDROOT
BRANCH   1  17
HETATM   17  C1  UNL     1      26.076   4.596  49.623  1.00  0.00     0.249 C 
HETATM   18  O1  UNL     1      27.042   4.118  48.932  1.00  0.00    -0.268 OA
HETATM   19  N1  UNL     1      26.044   5.987  49.695  1.00  0.00    -0.355 N 
HETATM   20  H1  UNL     1      25.222   6.303  50.297  1.00  0.00     0.162 HD
BRANCH  19  21
HETATM   21  C2  UNL     1      26.888   7.009  49.132  1.00  0.00     0.156 C 
BRANCH  21  22
HETATM   22  C3  UNL     1      26.575   8.408  49.509  1.00  0.00     0.159 C 
BRANCH  22  23
HETATM   23  O2  UNL     1      25.661   8.457  50.544  1.00  0.00    -0.392 OA
HETATM   24  H5  UNL     1      25.635   7.618  51.046  1.00  0.00     0.210 HD
ENDBRANCH  22  23
BRANCH  22  25
HETATM   25  C4  UNL     1      27.813   9.213  49.863  1.00  0.00     0.197 C 
BRANCH  25  26
HETATM   26  O3  UNL     1      27.725   9.555  51.201  1.00  0.00    -0.398 OA
HETATM   27  H8  UNL     1      28.353   9.003  51.733  1.00  0.00     0.209 HD
ENDBRANCH  25  26
ENDBRANCH  22  25
ENDBRANCH  21  22
ENDBRANCH  19  21
ENDBRANCH   1  17
TORSDOF 6
ENDMDL
MODEL 2
REMARK VINA RESULT:      -8.3      3.793      5.069
REMARK  6 active torsions:
REMARK  status: ('A' for Active; 'I' for Inactive)
REMARK       I    between atoms: C1_2  and  N1_3 
REMARK    1  A    between atoms: C1_2  and  C5_9 
REMARK    2  A    between atoms: N1_3  and  C2_4 
REMARK    3  A    between atoms: C2_4  and  C3_5 
REMARK    4  A    between atoms: C3_5  and  O2_6 
REMARK    5  A    between atoms: C3_5  and  C4_7 
REMARK    6  A    between atoms: C4_7  and  O3_8 
ROOT
HETATM    1  C5  UNL     1      23.170   1.260  51.900  1.00  0.00     0.032 C 
HETATM    2  C6  UNL     1      22.647   1.089  50.723  1.00  0.00     0.014 C 
HETATM    3  C7  UNL     1      21.360   1.194  50.053  1.00  0.00    -0.002 C 
HETATM    4  C8  UNL     1      20.120   1.183  50.515  1.00  0.00    -0.017 C 
HETATM    5  C9  UNL     1      19.400   1.411  51.756  1.00  0.00     0.046 C 
HETATM    6  C10 UNL     1      20.242   2.015  52.852  1.00  0.00     0.049 C 
HETATM    7  C11 UNL     1      21.206   0.970  53.297  1.00  0.00    -0.055 C 
HETATM    8  C12 UNL     1      20.767  -0.158  53.831  1.00  0.00     0.016 C 
HETATM    9  C13 UNL     1      19.464  -0.619  53.307  1.00  0.00    -0.029 A 
HETATM   10  C14 UNL     1      18.978  -1.770  53.838  1.00  0.00     0.012 A 
HETATM   11  C15 UNL     1      17.758  -2.237  53.382  1.00  0.00     0.001 A 
HETATM   12  C16 UNL     1      17.061  -1.523  52.401  1.00  0.00     0.001 A 
HETATM   13  C17 UNL     1      17.610  -0.367  51.908  1.00  0.00     0.009 A 
HETATM   14  C18 UNL     1      18.822   0.143  52.324  1.00  0.00    -0.040 A 
HETATM   15  C19 UNL     1      22.683   0.912  53.262  1.00  0.00     0.149 C 
HETATM   16 CL1  UNL     1      23.264  -0.648  53.840  1.00  0.00    -0.115 Cl
ENDROOT
BRANCH   1  17
HETATM   17  C1  UNL     1      24.469   1.917  51.896  1.00  0.00     0.249 C 
HETATM   18  O1  UNL     1      24.426   3.190  51.758  1.00  0.00    -0.268 OA
HETATM   19  N1  UNL     1      25.752   1.386  52.016  1.00  0.00    -0.355 N 
HETATM   20  H1  UNL     1      25.701   0.326  52.113  1.00  0.00     0.162 HD
BRANCH  19  21
HETATM   21  C2  UNL     1      27.057   1.994  52.024  1.00  0.00     0.156 C 
BRANCH  21  22
HETATM   22  C3  UNL     1      27.880   1.779  53.239  1.00  0.00     0.159 C 
BRANCH  22  23
HETATM   23  O2  UNL     1      27.844   2.881  54.071  1.00  0.00    -0.392 OA
HETATM   24  H5  UNL     1      27.648   2.632  54.997  1.00  0.00     0.210 HD
ENDBRANCH  22  23
BRANCH  22  25
HETATM   25  C4  UNL     1      27.482   0.529  54.005  1.00  0.00     0.197 C 
BRANCH  25  26
HETATM   26  O3  UNL     1      26.536   0.895  54.947  1.00  0.00    -0.398 OA
HETATM   27  H8  UNL     1      26.636   0.338  55.759  1.00  0.00     0.209 HD
ENDBRANCH  25  26
ENDBRANCH  22  25
ENDBRANCH  21  22
ENDBRANCH  19  21
ENDBRANCH   1  17
TORSDOF 6
ENDMDL
MODEL 3
REMARK VINA RESULT:      -8.1      3.741      6.260
REMARK  6 active torsions:
REMARK  status: ('A' for Active; 'I' for Inactive)
REMARK       I    between atoms: C1_2  and  N1_3 
REMARK    1  A    between atoms: C1_2  and  C5_9 
REMARK    2  A    between atoms: N1_3  and  C2_4 
REMARK    3  A    between atoms: C2_4  and  C3_5 
REMARK    4  A    between atoms: C3_5  and  O2_6 
REMARK    5  A    between atoms: C3_5  and  C4_7 
REMARK    6  A    between atoms: C4_7  and  O3_8 
ROOT
HETATM    1  C5  UNL     1      25.965   2.364  51.908  1.00  0.00     0.032 C 
HETATM    2  C6  UNL     1      26.582   2.599  50.789  1.00  0.00     0.014 C 
HETATM    3  C7  UNL     1      26.524   3.515  49.659  1.00  0.00    -0.002 C 
HETATM    4  C8  UNL     1      25.548   4.274  49.187  1.00  0.00    -0.017 C 
HETATM    5  C9  UNL     1      24.296   4.864  49.624  1.00  0.00     0.046 C 
HETATM    6  C10 UNL     1      24.056   4.765  51.110  1.00  0.00     0.049 C 
HETATM    7  C11 UNL     1      23.793   3.333  51.422  1.00  0.00    -0.055 C 
HETATM    8  C12 UNL     1      22.745   2.717  50.899  1.00  0.00     0.016 C 
HETATM    9  C13 UNL     1      22.357   3.199  49.556  1.00  0.00    -0.029 A 
HETATM   10  C14 UNL     1      21.280   2.596  48.991  1.00  0.00     0.012 A 
HETATM   11  C15 UNL     1      20.877   3.019  47.737  1.00  0.00     0.001 A 
HETATM   12  C16 UNL     1      21.575   4.044  47.089  1.00  0.00     0.001 A 
HETATM   13  C17 UNL     1      22.655   4.610  47.718  1.00  0.00     0.009 A 
HETATM   14  C18 UNL     1      23.101   4.227  48.965  1.00  0.00    -0.040 A 
HETATM   15  C19 UNL     1      24.521   2.358  52.262  1.00  0.00     0.149 C 
HETATM   16 CL1  UNL     1      23.778   0.762  52.158  1.00  0.00    -0.115 Cl
ENDROOT
BRANCH   1  17
HETATM   17  C1  UNL     1      26.841   2.054  53.028  1.00  0.00     0.249 C 
HETATM   18  O1  UNL     1      26.305   2.190  54.183  1.00  0.00    -0.268 OA
HETATM   19  N1  UNL     1      28.170   1.636  53.048  1.00  0.00    -0.355 N 
HETATM   20  H1  UNL     1      28.545   1.561  52.053  1.00  0.00     0.162 HD
BRANCH  19  21
HETATM   21  C2  UNL     1      29.071   1.313  54.125  1.00  0.00     0.156 C 
BRANCH  21  22
HETATM   22  C3  UNL     1      28.990  -0.066  54.664  1.00  0.00     0.159 C 
BRANCH  22  23
HETATM   23  O2  UNL     1      27.761  -0.306  55.248  1.00  0.00    -0.392 OA
HETATM   24  H5  UNL     1      27.654   0.189  56.085  1.00  0.00     0.210 HD
ENDBRANCH  22  23
BRANCH  22  25
HETATM   25  C4  UNL     1      29.290  -1.125  53.617  1.00  0.00     0.197 C 
BRANCH  25  26
HETATM   26  O3  UNL     1      28.081  -1.632  53.172  1.00  0.00    -0.398 OA
HETATM   27  H8  UNL     1      27.447  -1.704  53.930  1.00  0.00     0.209 HD
ENDBRANCH  25  26
ENDBRANCH  22  25
ENDBRANCH  21  22
ENDBRANCH  19  21
ENDBRANCH   1  17
TORSDOF 6
ENDMDL
MODEL 4
REMARK VINA RESULT:      -8.0      3.626      7.495
REMARK  6 active torsions:
REMARK  status: ('A' for Active; 'I' for Inactive)
REMARK       I    between atoms: C1_2  and  N1_3 
REMARK    1  A    between atoms: C1_2  and  C5_9 
REMARK    2  A    between atoms: N1_3  and  C2_4 
REMARK    3  A    between atoms: C2_4  and  C3_5 
REMARK    4  A    between atoms: C3_5  and  O2_6 
REMARK    5  A    between atoms: C3_5  and  C4_7 
REMARK    6  A    between atoms: C4_7  and  O3_8 
ROOT
HETATM    1  C5  UNL     1      24.595   2.299  52.370  1.00  0.00     0.032 C 
HETATM    2  C6  UNL     1      24.030   3.421  52.703  1.00  0.00     0.014 C 
HETATM    3  C7  UNL     1      23.396   4.574  52.082  1.00  0.00    -0.002 C 
HETATM    4  C8  UNL     1      23.473   5.071  50.857  1.00  0.00    -0.017 C 
HETATM    5  C9  UNL     1      23.843   4.655  49.517  1.00  0.00     0.046 C 
HETATM    6  C10 UNL     1      24.050   3.167  49.370  1.00  0.00     0.049 C 
HETATM    7  C11 UNL     1      25.298   2.819  50.106  1.00  0.00    -0.055 C 
HETATM    8  C12 UNL     1      26.459   3.332  49.730  1.00  0.00     0.016 C 
HETATM    9  C13 UNL     1      26.372   4.688  49.148  1.00  0.00    -0.029 A 
HETATM   10  C14 UNL     1      27.543   5.242  48.744  1.00  0.00     0.012 A 
HETATM   11  C15 UNL     1      27.510   6.509  48.187  1.00  0.00     0.001 A 
HETATM   12  C16 UNL     1      26.289   7.179  48.055  1.00  0.00     0.001 A 
HETATM   13  C17 UNL     1      25.143   6.561  48.485  1.00  0.00     0.009 A 
HETATM   14  C18 UNL     1      25.118   5.302  49.047  1.00  0.00    -0.040 A 
HETATM   15  C19 UNL     1      25.542   1.952  51.278  1.00  0.00     0.149 C 
HETATM   16 CL1  UNL     1      27.234   2.018  51.767  1.00  0.00    -0.115 Cl
ENDROOT
BRANCH   1  17
HETATM   17  C1  UNL     1      24.234   1.167  53.211  1.00  0.00     0.249 C 
HETATM   18  O1  UNL     1      25.165   0.758  53.990  1.00  0.00    -0.268 OA
HETATM   19  N1  UNL     1      23.040   0.454  53.305  1.00  0.00    -0.355 N 
HETATM   20  H1  UNL     1      22.325   0.847  52.619  1.00  0.00     0.162 HD
BRANCH  19  21
HETATM   21  C2  UNL     1      22.637  -0.661  54.122  1.00  0.00     0.156 C 
BRANCH  21  22
HETATM   22  C3  UNL     1      21.310  -1.253  53.825  1.00  0.00     0.159 C 
BRANCH  22  23
HETATM   23  O2  UNL     1      20.802  -1.922  54.923  1.00  0.00    -0.392 OA
HETATM   24  H5  UNL     1      19.863  -1.700  55.081  1.00  0.00     0.210 HD
ENDBRANCH  22  23
BRANCH  22  25
HETATM   25  C4  UNL     1      20.308  -0.228  53.325  1.00  0.00     0.197 C 
BRANCH  25  26
HETATM   26  O3  UNL     1      20.381   0.875  54.157  1.00  0.00    -0.398 OA
HETATM   27  H8  UNL     1      21.314   1.005  54.463  1.00  0.00     0.209 HD
ENDBRANCH  25  26
ENDBRANCH  22  25
ENDBRANCH  21  22
ENDBRANCH  19  21
ENDBRANCH   1  17
TORSDOF 6
ENDMDL
MODEL 5
REMARK VINA RESULT:      -8.0      2.138      3.251
REMARK  6 active torsions:
REMARK  status: ('A' for Active; 'I' for Inactive)
REMARK       I    between atoms: C1_2  and  N1_3 
REMARK    1  A    between atoms: C1_2  and  C5_9 
REMARK    2  A    between atoms: N1_3  and  C2_4 
REMARK    3  A    between atoms: C2_4  and  C3_5 
REMARK    4  A    between atoms: C3_5  and  O2_6 
REMARK    5  A    between atoms: C3_5  and  C4_7 
REMARK    6  A    between atoms: C4_7  and  O3_8 
ROOT
HETATM    1  C5  UNL     1      23.054   4.482  51.868  1.00  0.00     0.032 C 
HETATM    2  C6  UNL     1      23.844   4.234  52.869  1.00  0.00     0.014 C 
HETATM    3  C7  UNL     1      24.609   3.133  53.436  1.00  0.00    -0.002 C 
HETATM    4  C8  UNL     1      24.496   1.821  53.306  1.00  0.00    -0.017 C 
HETATM    5  C9  UNL     1      23.917   0.845  52.400  1.00  0.00     0.046 C 
HETATM    6  C10 UNL     1      23.429   1.430  51.098  1.00  0.00     0.049 C 
HETATM    7  C11 UNL     1      22.223   2.249  51.405  1.00  0.00    -0.055 C 
HETATM    8  C12 UNL     1      21.142   1.680  51.913  1.00  0.00     0.016 C 
HETATM    9  C13 UNL     1      21.413   0.519  52.788  1.00  0.00    -0.029 A 
HETATM   10  C14 UNL     1      20.326  -0.096  53.320  1.00  0.00     0.012 A 
HETATM   11  C15 UNL     1      20.531  -1.191  54.141  1.00  0.00     0.001 A 
HETATM   12  C16 UNL     1      21.832  -1.635  54.398  1.00  0.00     0.001 A 
HETATM   13  C17 UNL     1      22.885  -0.967  53.827  1.00  0.00     0.009 A 
HETATM   14  C18 UNL     1      22.739   0.130  53.004  1.00  0.00    -0.040 A 
HETATM   15  C19 UNL     1      21.950   3.694  51.259  1.00  0.00     0.149 C 
HETATM   16 CL1  UNL     1      20.359   4.100  51.899  1.00  0.00    -0.115 Cl
ENDROOT
BRANCH   1  17
HETATM   17  C1  UNL     1      23.288   5.761  51.214  1.00  0.00     0.249 C 
HETATM   18  O1  UNL     1      22.486   6.027  50.252  1.00  0.00    -0.268 OA
HETATM   19  N1  UNL     1      24.246   6.742  51.463  1.00  0.00    -0.355 N 
HETATM   20  H1  UNL     1      24.879   6.439  52.265  1.00  0.00     0.162 HD
BRANCH  19  21
HETATM   21  C2  UNL     1      24.511   8.018  50.850  1.00  0.00     0.156 C 
BRANCH  21  22
HETATM   22  C3  UNL     1      25.761   8.126  50.060  1.00  0.00     0.159 C 
BRANCH  22  23
HETATM   23  O2  UNL     1      26.842   8.425  50.868  1.00  0.00    -0.392 OA
HETATM   24  H5  UNL     1      26.597   8.431  51.816  1.00  0.00     0.210 HD
ENDBRANCH  22  23
BRANCH  22  25
HETATM   25  C4  UNL     1      26.048   6.880  49.240  1.00  0.00     0.197 C 
BRANCH  25  26
HETATM   26  O3  UNL     1      27.401   6.610  49.342  1.00  0.00    -0.398 OA
HETATM   27  H8  UNL     1      27.647   5.878  48.721  1.00  0.00     0.209 HD
ENDBRANCH  25  26
ENDBRANCH  22  25
ENDBRANCH  21  22
ENDBRANCH  19  21
ENDBRANCH   1  17
TORSDOF 6
ENDMDL
MODEL 6
REMARK VINA RESULT:      -8.0      1.692      2.393
REMARK  6 active torsions:
REMARK  status: ('A' for Active; 'I' for Inactive)
REMARK       I    between atoms: C1_2  and  N1_3 
REMARK    1  A    between atoms: C1_2  and  C5_9 
REMARK    2  A    between atoms: N1_3  and  C2_4 
REMARK    3  A    between atoms: C2_4  and  C3_5 
REMARK    4  A    between atoms: C3_5  and  O2_6 
REMARK    5  A    between atoms: C3_5  and  C4_7 
REMARK    6  A    between atoms: C4_7  and  O3_8 
ROOT
HETATM    1  C5  UNL     1      23.148   2.946  49.920  1.00  0.00     0.032 C 
HETATM    2  C6  UNL     1      22.383   2.098  49.300  1.00  0.00     0.014 C 
HETATM    3  C7  UNL     1      21.148   1.357  49.509  1.00  0.00    -0.002 C 
HETATM    4  C8  UNL     1      20.501   1.011  50.610  1.00  0.00    -0.017 C 
HETATM    5  C9  UNL     1      20.405   1.402  52.005  1.00  0.00     0.046 C 
HETATM    6  C10 UNL     1      21.101   2.701  52.328  1.00  0.00     0.049 C 
HETATM    7  C11 UNL     1      22.567   2.455  52.225  1.00  0.00    -0.055 C 
HETATM    8  C12 UNL     1      23.155   1.582  53.026  1.00  0.00     0.016 C 
HETATM    9  C13 UNL     1      22.304   0.439  53.419  1.00  0.00    -0.029 A 
HETATM   10  C14 UNL     1      22.872  -0.474  54.248  1.00  0.00     0.012 A 
HETATM   11  C15 UNL     1      22.110  -1.558  54.648  1.00  0.00     0.001 A 
HETATM   12  C16 UNL     1      20.792  -1.687  54.197  1.00  0.00     0.001 A 
HETATM   13  C17 UNL     1      20.280  -0.727  53.361  1.00  0.00     0.009 A 
HETATM   14  C18 UNL     1      20.994   0.371  52.930  1.00  0.00    -0.040 A 
HETATM   15  C19 UNL     1      23.601   3.023  51.334  1.00  0.00     0.149 C 
HETATM   16 CL1  UNL     1      25.163   2.255  51.615  1.00  0.00    -0.115 Cl
ENDROOT
BRANCH   1  17
HETATM   17  C1  UNL     1      23.655   4.026  49.086  1.00  0.00     0.249 C 
HETATM   18  O1  UNL     1      22.947   4.281  48.049  1.00  0.00    -0.268 OA
HETATM   19  N1  UNL     1      24.786   4.826  49.231  1.00  0.00    -0.355 N 
HETATM   20  H1  UNL     1      25.324   4.543  50.106  1.00  0.00     0.162 HD
BRANCH  19  21
HETATM   21  C2  UNL     1      25.320   5.905  48.440  1.00  0.00     0.156 C 
BRANCH  21  22
HETATM   22  C3  UNL     1      26.770   6.178  48.587  1.00  0.00     0.159 C 
BRANCH  22  23
HETATM   23  O2  UNL     1      27.021   6.988  49.679  1.00  0.00    -0.392 OA
HETATM   24  H5  UNL     1      27.897   6.805  50.074  1.00  0.00     0.210 HD
ENDBRANCH  22  23
BRANCH  22  25
HETATM   25  C4  UNL     1      27.602   4.910  48.673  1.00  0.00     0.197 C 
BRANCH  25  26
HETATM   26  O3  UNL     1      28.876   5.268  49.077  1.00  0.00    -0.398 OA
HETATM   27  H8  UNL     1      29.546   4.696  48.624  1.00  0.00     0.209 HD
ENDBRANCH  25  26
ENDBRANCH  22  25
ENDBRANCH  21  22
ENDBRANCH  19  21
ENDBRANCH   1  17
TORSDOF 6
ENDMDL
MODEL 7
REMARK VINA RESULT:      -8.0      4.051      7.182
REMARK  6 active torsions:
REMARK  status: ('A' for Active; 'I' for Inactive)
REMARK       I    between atoms: C1_2  and  N1_3 
REMARK    1  A    between atoms: C1_2  and  C5_9 
REMARK    2  A    between atoms: N1_3  and  C2_4 
REMARK    3  A    between atoms: C2_4  and  C3_5 
REMARK    4  A    between atoms: C3_5  and  O2_6 
REMARK    5  A    between atoms: C3_5  and  C4_7 
REMARK    6  A    between atoms: C4_7  and  O3_8 
ROOT
HETATM    1  C5  UNL     1      26.165   3.448  50.268  1.00  0.00     0.032 C 
HETATM    2  C6  UNL     1      27.093   3.737  49.405  1.00  0.00     0.014 C 
HETATM    3  C7  UNL     1      27.629   4.887  48.692  1.00  0.00    -0.002 C 
HETATM    4  C8  UNL     1      27.107   6.069  48.404  1.00  0.00    -0.017 C 
HETATM    5  C9  UNL     1      26.042   6.947  48.855  1.00  0.00     0.046 C 
HETATM    6  C10 UNL     1      25.407   6.523  50.156  1.00  0.00     0.049 C 
HETATM    7  C11 UNL     1      24.625   5.284  49.885  1.00  0.00    -0.055 C 
HETATM    8  C12 UNL     1      23.609   5.309  49.038  1.00  0.00     0.016 C 
HETATM    9  C13 UNL     1      23.760   6.271  47.925  1.00  0.00    -0.029 A 
HETATM   10  C14 UNL     1      22.732   6.330  47.040  1.00  0.00     0.012 A 
HETATM   11  C15 UNL     1      22.826   7.221  45.986  1.00  0.00     0.001 A 
HETATM   12  C16 UNL     1      23.960   8.030  45.858  1.00  0.00     0.001 A 
HETATM   13  C17 UNL     1      24.962   7.920  46.788  1.00  0.00     0.009 A 
HETATM   14  C18 UNL     1      24.921   7.049  47.856  1.00  0.00    -0.040 A 
HETATM   15  C19 UNL     1      24.756   3.904  50.398  1.00  0.00     0.149 C 
HETATM   16 CL1  UNL     1      23.594   2.832  49.620  1.00  0.00    -0.115 Cl
ENDROOT
BRANCH   1  17
HETATM   17  C1  UNL     1      26.572   2.509  51.303  1.00  0.00     0.249 C 
HETATM   18  O1  UNL     1      26.519   1.276  50.962  1.00  0.00    -0.268 OA
HETATM   19  N1  UNL     1      27.009   2.736  52.607  1.00  0.00    -0.355 N 
HETATM   20  H1  UNL     1      27.012   3.781  52.815  1.00  0.00     0.162 HD
BRANCH  19  21
HETATM   21  C2  UNL     1      27.427   1.846  53.659  1.00  0.00     0.156 C 
BRANCH  21  22
HETATM   22  C3  UNL     1      28.874   1.527  53.721  1.00  0.00     0.159 C 
BRANCH  22  23
HETATM   23  O2  UNL     1      29.542   2.385  54.573  1.00  0.00    -0.392 OA
HETATM   24  H5  UNL     1      29.934   1.911  55.333  1.00  0.00     0.210 HD
ENDBRANCH  22  23
BRANCH  22  25
HETATM   25  C4  UNL     1      29.142   0.084  54.113  1.00  0.00     0.197 C 
BRANCH  25  26
HETATM   26  O3  UNL     1      28.056  -0.362  54.845  1.00  0.00    -0.398 OA
HETATM   27  H8  UNL     1      27.233  -0.304  54.297  1.00  0.00     0.209 HD
ENDBRANCH  25  26
ENDBRANCH  22  25
ENDBRANCH  21  22
ENDBRANCH  19  21
ENDBRANCH   1  17
TORSDOF 6
ENDMDL
MODEL 8
REMARK VINA RESULT:      -7.7      2.091      2.843
REMARK  6 active torsions:
REMARK  status: ('A' for Active; 'I' for Inactive)
REMARK       I    between atoms: C1_2  and  N1_3 
REMARK    1  A    between atoms: C1_2  and  C5_9 
REMARK    2  A    between atoms: N1_3  and  C2_4 
REMARK    3  A    between atoms: C2_4  and  C3_5 
REMARK    4  A    between atoms: C3_5  and  O2_6 
REMARK    5  A    between atoms: C3_5  and  C4_7 
REMARK    6  A    between atoms: C4_7  and  O3_8 
ROOT
HETATM    1  C5  UNL     1      24.086   3.885  49.435  1.00  0.00     0.032 C 
HETATM    2  C6  UNL     1      23.228   2.917  49.309  1.00  0.00     0.014 C 
HETATM    3  C7  UNL     1      22.553   1.917  50.124  1.00  0.00    -0.002 C 
HETATM    4  C8  UNL     1      22.846   1.395  51.304  1.00  0.00    -0.017 C 
HETATM    5  C9  UNL     1      23.640   1.699  52.480  1.00  0.00     0.046 C 
HETATM    6  C10 UNL     1      24.190   3.104  52.505  1.00  0.00     0.049 C 
HETATM    7  C11 UNL     1      25.241   3.187  51.452  1.00  0.00    -0.055 C 
HETATM    8  C12 UNL     1      26.323   2.430  51.529  1.00  0.00     0.016 C 
HETATM    9  C13 UNL     1      26.109   1.114  52.169  1.00  0.00    -0.029 A 
HETATM   10  C14 UNL     1      27.200   0.314  52.273  1.00  0.00     0.012 A 
HETATM   11  C15 UNL     1      27.048  -0.925  52.870  1.00  0.00     0.001 A 
HETATM   12  C16 UNL     1      25.794  -1.319  53.348  1.00  0.00     0.001 A 
HETATM   13  C17 UNL     1      24.733  -0.460  53.211  1.00  0.00     0.009 A 
HETATM   14  C18 UNL     1      24.827   0.784  52.623  1.00  0.00    -0.040 A 
HETATM   15  C19 UNL     1      25.341   4.001  50.222  1.00  0.00     0.149 C 
HETATM   16 CL1  UNL     1      26.788   3.580  49.307  1.00  0.00    -0.115 Cl
ENDROOT
BRANCH   1  17
HETATM   17  C1  UNL     1      23.763   5.082  48.672  1.00  0.00     0.249 C 
HETATM   18  O1  UNL     1      22.664   5.022  48.017  1.00  0.00    -0.268 OA
HETATM   19  N1  UNL     1      24.456   6.283  48.538  1.00  0.00    -0.355 N 
HETATM   20  H1  UNL     1      25.361   6.247  49.101  1.00  0.00     0.162 HD
BRANCH  19  21
HETATM   21  C2  UNL     1      24.175   7.491  47.806  1.00  0.00     0.156 C 
BRANCH  21  22
HETATM   22  C3  UNL     1      24.075   8.739  48.600  1.00  0.00     0.159 C 
BRANCH  22  23
HETATM   23  O2  UNL     1      22.826   8.867  49.178  1.00  0.00    -0.392 OA
HETATM   24  H5  UNL     1      22.837   8.620  50.125  1.00  0.00     0.210 HD
ENDBRANCH  22  23
BRANCH  22  25
HETATM   25  C4  UNL     1      25.158   8.850  49.659  1.00  0.00     0.197 C 
BRANCH  25  26
HETATM   26  O3  UNL     1      24.665   8.293  50.826  1.00  0.00    -0.398 OA
HETATM   27  H8  UNL     1      24.608   8.985  51.532  1.00  0.00     0.209 HD
ENDBRANCH  25  26
ENDBRANCH  22  25
ENDBRANCH  21  22
ENDBRANCH  19  21
ENDBRANCH   1  17
TORSDOF 6
ENDMDL
MODEL 9
REMARK VINA RESULT:      -7.7      1.992      3.067
REMARK  6 active torsions:
REMARK  status: ('A' for Active; 'I' for Inactive)
REMARK       I    between atoms: C1_2  and  N1_3 
REMARK    1  A    between atoms: C1_2  and  C5_9 
REMARK    2  A    between atoms: N1_3  and  C2_4 
REMARK    3  A    between atoms: C2_4  and  C3_5 
REMARK    4  A    between atoms: C3_5  and  O2_6 
REMARK    5  A    between atoms: C3_5  and  C4_7 
REMARK    6  A    between atoms: C4_7  and  O3_8 
ROOT
HETATM    1  C5  UNL     1      24.436   5.246  50.251  1.00  0.00     0.032 C 
HETATM    2  C6  UNL     1      23.984   5.516  51.439  1.00  0.00     0.014 C 
HETATM    3  C7  UNL     1      23.721   4.850  52.706  1.00  0.00    -0.002 C 
HETATM    4  C8  UNL     1      23.528   3.577  53.011  1.00  0.00    -0.017 C 
HETATM    5  C9  UNL     1      23.791   2.257  52.466  1.00  0.00     0.046 C 
HETATM    6  C10 UNL     1      24.715   2.259  51.273  1.00  0.00     0.049 C 
HETATM    7  C11 UNL     1      23.969   2.867  50.136  1.00  0.00    -0.055 C 
HETATM    8  C12 UNL     1      22.870   2.292  49.676  1.00  0.00     0.016 C 
HETATM    9  C13 UNL     1      22.078   1.573  50.697  1.00  0.00    -0.029 A 
HETATM   10  C14 UNL     1      20.947   0.964  50.258  1.00  0.00     0.012 A 
HETATM   11  C15 UNL     1      20.178   0.274  51.178  1.00  0.00     0.001 A 
HETATM   12  C16 UNL     1      20.576   0.219  52.518  1.00  0.00     0.001 A 
HETATM   13  C17 UNL     1      21.730   0.858  52.893  1.00  0.00     0.009 A 
HETATM   14  C18 UNL     1      22.534   1.560  52.020  1.00  0.00    -0.040 A 
HETATM   15  C19 UNL     1      24.209   4.091  49.343  1.00  0.00     0.149 C 
HETATM   16 CL1  UNL     1      22.907   4.353  48.184  1.00  0.00    -0.115 Cl
ENDROOT
BRANCH   1  17
HETATM   17  C1  UNL     1      25.336   6.251  49.704  1.00  0.00     0.249 C 
HETATM   18  O1  UNL     1      25.652   7.188  50.516  1.00  0.00    -0.268 OA
HETATM   19  N1  UNL     1      25.908   6.358  48.437  1.00  0.00    -0.355 N 
HETATM   20  H1  UNL     1      25.585   5.550  47.821  1.00  0.00     0.162 HD
BRANCH  19  21
HETATM   21  C2  UNL     1      26.804   7.324  47.856  1.00  0.00     0.156 C 
BRANCH  21  22
HETATM   22  C3  UNL     1      28.242   7.176  48.187  1.00  0.00     0.159 C 
BRANCH  22  23
HETATM   23  O2  UNL     1      28.545   7.787  49.388  1.00  0.00    -0.392 OA
HETATM   24  H5  UNL     1      28.622   7.139  50.117  1.00  0.00     0.210 HD
ENDBRANCH  22  23
BRANCH  22  25
HETATM   25  C4  UNL     1      28.695   5.727  48.205  1.00  0.00     0.197 C 
BRANCH  25  26
HETATM   26  O3  UNL     1      29.671   5.603  49.178  1.00  0.00    -0.398 OA
HETATM   27  H8  UNL     1      29.774   4.651  49.433  1.00  0.00     0.209 HD
ENDBRANCH  25  26
ENDBRANCH  22  25
ENDBRANCH  21  22
ENDBRANCH  19  21
ENDBRANCH   1  17
TORSDOF 6
ENDMDL
