MODEL 1
REMARK VINA RESULT:      -9.3      0.000      0.000
REMARK  0 active torsions:
REMARK  status: ('A' for Active; 'I' for Inactive)
ROOT
HETATM    1  C1  UNL     1      19.670   1.040  50.661  1.00  0.00    -0.027 C 
HETATM    2  C2  UNL     1      20.497   1.776  49.961  1.00  0.00    -0.008 C 
HETATM    3  C3  UNL     1      21.846   1.151  49.882  1.00  0.00     0.089 C 
HETATM    4  C4  UNL     1      22.376   1.029  51.269  1.00  0.00     0.064 C 
HETATM    5  C5  UNL     1      21.497   0.613  52.170  1.00  0.00     0.083 C 
HETATM    6  C6  UNL     1      20.134   0.334  51.673  1.00  0.00     0.045 C 
HETATM    7  N1  UNL     1      21.750   0.416  53.555  1.00  0.00    -0.240 NA
HETATM    8  C7  UNL     1      22.836  -0.178  53.919  1.00  0.00     0.236 C 
HETATM    9  N2  UNL     1      24.022  -0.784  53.414  1.00  0.00    -0.215 NA
HETATM   10  C8  UNL     1      25.164  -0.150  53.384  1.00  0.00     0.199 C 
HETATM   11  O1  UNL     1      26.098  -1.044  52.830  1.00  0.00    -0.294 OA
HETATM   12  C9  UNL     1      27.483  -1.145  53.045  1.00  0.00     0.065 A 
HETATM   13  C10 UNL     1      28.279  -2.206  53.004  1.00  0.00     0.033 A 
HETATM   14  C11 UNL     1      29.635  -1.801  53.297  1.00  0.00    -0.001 A 
HETATM   15  C12 UNL     1      29.696  -0.494  53.520  1.00  0.00    -0.014 A 
HETATM   16  C13 UNL     1      28.305   0.024  53.372  1.00  0.00     0.083 A 
HETATM   17  C14 UNL     1      27.958   0.680  54.688  1.00  0.00     0.135 C 
HETATM   18  N3  UNL     1      26.733   1.488  54.593  1.00  0.00    -0.384 N 
HETATM   19  C15 UNL     1      25.572   1.191  53.792  1.00  0.00     0.106 C 
HETATM   20  C16 UNL     1      24.899   2.282  53.459  1.00  0.00     0.201 C 
HETATM   21  O2  UNL     1      23.770   2.115  52.693  1.00  0.00    -0.248 OA
HETATM   22  N4  UNL     1      23.717   1.341  51.564  1.00  0.00    -0.263 N 
HETATM   23  H12 UNL     1      26.652   2.372  55.145  1.00  0.00     0.159 HD
HETATM   24  H14 UNL     1      24.352   0.904  50.848  1.00  0.00     0.194 HD
ENDROOT
TORSDOF 0
ENDMDL
MODEL 2
REMARK VINA RESULT:      -9.1      1.083      6.759
REMARK  0 active torsions:
REMARK  status: ('A' for Active; 'I' for Inactive)
ROOT
HETATM    1  C1  UNL     1      30.128  -0.808  53.831  1.00  0.00    -0.027 C 
HETATM    2  C2  UNL     1      29.556  -1.955  53.563  1.00  0.00    -0.008 C 
HETATM    3  C3  UNL     1      28.419  -1.787  52.615  1.00  0.00     0.089 C 
HETATM    4  C4  UNL     1      27.416  -0.894  53.260  1.00  0.00     0.064 C 
HETATM    5  C5  UNL     1      27.923   0.155  53.891  1.00  0.00     0.083 C 
HETATM    6  C6  UNL     1      29.394   0.286  53.865  1.00  0.00     0.045 C 
HETATM    7  N1  UNL     1      27.182   1.153  54.583  1.00  0.00    -0.240 NA
HETATM    8  C7  UNL     1      26.113   1.633  54.042  1.00  0.00     0.236 C 
HETATM    9  N2  UNL     1      25.289   1.541  52.885  1.00  0.00    -0.215 NA
HETATM   10  C8  UNL     1      24.182   0.847  52.878  1.00  0.00     0.199 C 
HETATM   11  O1  UNL     1      23.638   0.983  51.588  1.00  0.00    -0.294 OA
HETATM   12  C9  UNL     1      22.298   0.947  51.168  1.00  0.00     0.065 A 
HETATM   13  C10 UNL     1      21.703   1.564  50.154  1.00  0.00     0.033 A 
HETATM   14  C11 UNL     1      20.301   1.209  50.133  1.00  0.00    -0.001 A 
HETATM   15  C12 UNL     1      20.014   0.375  51.123  1.00  0.00    -0.014 A 
HETATM   16  C13 UNL     1      21.287   0.146  51.865  1.00  0.00     0.083 A 
HETATM   17  C14 UNL     1      21.027   0.573  53.290  1.00  0.00     0.135 C 
HETATM   18  N3  UNL     1      22.095   0.134  54.199  1.00  0.00    -0.384 N 
HETATM   19  C15 UNL     1      23.501   0.045  53.890  1.00  0.00     0.106 C 
HETATM   20  C16 UNL     1      24.122  -0.858  54.632  1.00  0.00     0.201 C 
HETATM   21  O2  UNL     1      25.470  -1.028  54.420  1.00  0.00    -0.248 OA
HETATM   22  N4  UNL     1      26.038  -1.175  53.182  1.00  0.00    -0.263 N 
HETATM   23  H12 UNL     1      21.859  -0.149  55.178  1.00  0.00     0.159 HD
HETATM   24  H14 UNL     1      25.780  -1.430  52.195  1.00  0.00     0.194 HD
ENDROOT
TORSDOF 0
ENDMDL
MODEL 3
REMARK VINA RESULT:      -8.1      3.570      4.637
REMARK  0 active torsions:
REMARK  status: ('A' for Active; 'I' for Inactive)
ROOT
HETATM    1  C1  UNL     1      23.347   7.664  49.053  1.00  0.00    -0.027 C 
HETATM    2  C2  UNL     1      23.126   7.847  50.330  1.00  0.00    -0.008 C 
HETATM    3  C3  UNL     1      24.193   7.222  51.161  1.00  0.00     0.089 C 
HETATM    4  C4  UNL     1      24.191   5.759  50.883  1.00  0.00     0.064 C 
HETATM    5  C5  UNL     1      24.060   5.432  49.605  1.00  0.00     0.083 C 
HETATM    6  C6  UNL     1      23.934   6.553  48.653  1.00  0.00     0.045 C 
HETATM    7  N1  UNL     1      24.029   4.111  49.080  1.00  0.00    -0.240 NA
HETATM    8  C7  UNL     1      24.877   3.240  49.513  1.00  0.00     0.236 C 
HETATM    9  N2  UNL     1      25.961   3.066  50.420  1.00  0.00    -0.215 NA
HETATM   10  C8  UNL     1      25.799   2.511  51.592  1.00  0.00     0.199 C 
HETATM   11  O1  UNL     1      27.065   2.506  52.205  1.00  0.00    -0.294 OA
HETATM   12  C9  UNL     1      27.605   1.614  53.146  1.00  0.00     0.065 A 
HETATM   13  C10 UNL     1      28.862   1.237  53.344  1.00  0.00     0.033 A 
HETATM   14  C11 UNL     1      28.915   0.294  54.439  1.00  0.00    -0.001 A 
HETATM   15  C12 UNL     1      27.701   0.077  54.929  1.00  0.00    -0.014 A 
HETATM   16  C13 UNL     1      26.766   0.917  54.126  1.00  0.00     0.083 A 
HETATM   17  C14 UNL     1      25.760  -0.034  53.521  1.00  0.00     0.135 C 
HETATM   18  N3  UNL     1      24.609   0.677  52.944  1.00  0.00    -0.384 N 
HETATM   19  C15 UNL     1      24.638   1.958  52.282  1.00  0.00     0.106 C 
HETATM   20  C16 UNL     1      23.479   2.593  52.367  1.00  0.00     0.201 C 
HETATM   21  O2  UNL     1      23.393   3.828  51.768  1.00  0.00    -0.248 OA
HETATM   22  N4  UNL     1      24.323   4.821  51.926  1.00  0.00    -0.263 N 
HETATM   23  H12 UNL     1      23.657   0.248  52.995  1.00  0.00     0.159 HD
HETATM   24  H14 UNL     1      25.102   5.111  52.571  1.00  0.00     0.194 HD
ENDROOT
TORSDOF 0
ENDMDL
MODEL 4
REMARK VINA RESULT:      -8.0      3.445      7.322
REMARK  0 active torsions:
REMARK  status: ('A' for Active; 'I' for Inactive)
ROOT
HETATM    1  C1  UNL     1      28.752   0.063  54.311  1.00  0.00    -0.027 C 
HETATM    2  C2  UNL     1      29.427   1.096  53.872  1.00  0.00    -0.008 C 
HETATM    3  C3  UNL     1      28.569   2.312  53.797  1.00  0.00     0.089 C 
HETATM    4  C4  UNL     1      27.459   2.030  52.845  1.00  0.00     0.064 C 
HETATM    5  C5  UNL     1      26.910   0.829  52.965  1.00  0.00     0.083 C 
HETATM    6  C6  UNL     1      27.473  -0.045  54.013  1.00  0.00     0.045 C 
HETATM    7  N1  UNL     1      25.840   0.318  52.180  1.00  0.00    -0.240 NA
HETATM    8  C7  UNL     1      24.824   1.074  51.930  1.00  0.00     0.236 C 
HETATM    9  N2  UNL     1      24.295   2.376  52.161  1.00  0.00    -0.215 NA
HETATM   10  C8  UNL     1      24.382   3.325  51.267  1.00  0.00     0.199 C 
HETATM   11  O1  UNL     1      23.761   4.455  51.830  1.00  0.00    -0.294 OA
HETATM   12  C9  UNL     1      23.089   5.518  51.203  1.00  0.00     0.065 A 
HETATM   13  C10 UNL     1      22.082   6.267  51.636  1.00  0.00     0.033 A 
HETATM   14  C11 UNL     1      21.736   7.239  50.622  1.00  0.00    -0.001 A 
HETATM   15  C12 UNL     1      22.518   7.105  49.559  1.00  0.00    -0.014 A 
HETATM   16  C13 UNL     1      23.450   5.980  49.859  1.00  0.00     0.083 A 
HETATM   17  C14 UNL     1      23.239   4.955  48.770  1.00  0.00     0.135 C 
HETATM   18  N3  UNL     1      24.290   3.928  48.770  1.00  0.00    -0.384 N 
HETATM   19  C15 UNL     1      24.958   3.386  49.927  1.00  0.00     0.106 C 
HETATM   20  C16 UNL     1      26.171   2.938  49.643  1.00  0.00     0.201 C 
HETATM   21  O2  UNL     1      26.900   2.398  50.677  1.00  0.00    -0.248 OA
HETATM   22  N4  UNL     1      27.049   2.992  51.902  1.00  0.00    -0.263 N 
HETATM   23  H12 UNL     1      24.617   3.521  47.863  1.00  0.00     0.159 HD
HETATM   24  H14 UNL     1      26.956   3.932  52.366  1.00  0.00     0.194 HD
ENDROOT
TORSDOF 0
ENDMDL
MODEL 5
REMARK VINA RESULT:      -7.9      3.636      6.165
REMARK  0 active torsions:
REMARK  status: ('A' for Active; 'I' for Inactive)
ROOT
HETATM    1  C1  UNL     1      21.283  -0.939  54.592  1.00  0.00    -0.027 C 
HETATM    2  C2  UNL     1      22.320  -1.375  53.921  1.00  0.00    -0.008 C 
HETATM    3  C3  UNL     1      23.260  -0.267  53.595  1.00  0.00     0.089 C 
HETATM    4  C4  UNL     1      22.529   0.720  52.753  1.00  0.00     0.064 C 
HETATM    5  C5  UNL     1      21.292   0.986  53.148  1.00  0.00     0.083 C 
HETATM    6  C6  UNL     1      20.822   0.272  54.352  1.00  0.00     0.045 C 
HETATM    7  N1  UNL     1      20.390   1.888  52.519  1.00  0.00    -0.240 NA
HETATM    8  C7  UNL     1      20.820   3.040  52.128  1.00  0.00     0.236 C 
HETATM    9  N2  UNL     1      21.984   3.858  52.074  1.00  0.00    -0.215 NA
HETATM   10  C8  UNL     1      22.706   3.961  50.990  1.00  0.00     0.199 C 
HETATM   11  O1  UNL     1      23.760   4.839  51.301  1.00  0.00    -0.294 OA
HETATM   12  C9  UNL     1      24.477   5.715  50.467  1.00  0.00     0.065 A 
HETATM   13  C10 UNL     1      25.053   6.878  50.743  1.00  0.00     0.033 A 
HETATM   14  C11 UNL     1      25.671   7.404  49.546  1.00  0.00    -0.001 A 
HETATM   15  C12 UNL     1      25.487   6.580  48.523  1.00  0.00    -0.014 A 
HETATM   16  C13 UNL     1      24.700   5.426  49.047  1.00  0.00     0.083 A 
HETATM   17  C14 UNL     1      23.439   5.366  48.217  1.00  0.00     0.135 C 
HETATM   18  N3  UNL     1      22.705   4.109  48.424  1.00  0.00    -0.384 N 
HETATM   19  C15 UNL     1      22.598   3.372  49.659  1.00  0.00     0.106 C 
HETATM   20  C16 UNL     1      22.388   2.081  49.457  1.00  0.00     0.201 C 
HETATM   21  O2  UNL     1      22.271   1.281  50.569  1.00  0.00    -0.248 OA
HETATM   22  N4  UNL     1      23.139   1.308  51.627  1.00  0.00    -0.263 N 
HETATM   23  H12 UNL     1      22.193   3.671  47.624  1.00  0.00     0.159 HD
HETATM   24  H14 UNL     1      24.111   1.626  51.873  1.00  0.00     0.194 HD
ENDROOT
TORSDOF 0
ENDMDL
MODEL 6
REMARK VINA RESULT:      -7.9      5.130      6.240
REMARK  0 active torsions:
REMARK  status: ('A' for Active; 'I' for Inactive)
ROOT
HETATM    1  C1  UNL     1      21.117   0.700  50.089  1.00  0.00    -0.027 C 
HETATM    2  C2  UNL     1      20.878   1.301  48.951  1.00  0.00    -0.008 C 
HETATM    3  C3  UNL     1      22.140   1.741  48.294  1.00  0.00     0.089 C 
HETATM    4  C4  UNL     1      22.819   2.702  49.207  1.00  0.00     0.064 C 
HETATM    5  C5  UNL     1      22.815   2.358  50.487  1.00  0.00     0.083 C 
HETATM    6  C6  UNL     1      22.144   1.085  50.819  1.00  0.00     0.045 C 
HETATM    7  N1  UNL     1      23.393   3.100  51.553  1.00  0.00    -0.240 NA
HETATM    8  C7  UNL     1      24.566   3.616  51.399  1.00  0.00     0.236 C 
HETATM    9  N2  UNL     1      25.633   3.749  50.466  1.00  0.00    -0.215 NA
HETATM   10  C8  UNL     1      25.791   4.828  49.746  1.00  0.00     0.199 C 
HETATM   11  O1  UNL     1      26.930   4.607  48.950  1.00  0.00    -0.294 OA
HETATM   12  C9  UNL     1      27.858   5.527  48.433  1.00  0.00     0.065 A 
HETATM   13  C10 UNL     1      29.150   5.380  48.167  1.00  0.00     0.033 A 
HETATM   14  C11 UNL     1      29.677   6.621  47.646  1.00  0.00    -0.001 A 
HETATM   15  C12 UNL     1      28.726   7.544  47.582  1.00  0.00    -0.014 A 
HETATM   16  C13 UNL     1      27.479   6.901  48.087  1.00  0.00     0.083 A 
HETATM   17  C14 UNL     1      27.021   7.735  49.260  1.00  0.00     0.135 C 
HETATM   18  N3  UNL     1      25.653   7.393  49.676  1.00  0.00    -0.384 N 
HETATM   19  C15 UNL     1      25.052   6.083  49.652  1.00  0.00     0.106 C 
HETATM   20  C16 UNL     1      23.734   6.136  49.535  1.00  0.00     0.201 C 
HETATM   21  O2  UNL     1      23.056   4.940  49.501  1.00  0.00    -0.248 OA
HETATM   22  N4  UNL     1      23.412   3.880  48.711  1.00  0.00    -0.263 N 
HETATM   23  H12 UNL     1      25.017   8.144  50.033  1.00  0.00     0.159 HD
HETATM   24  H14 UNL     1      23.984   3.659  47.855  1.00  0.00     0.194 HD
ENDROOT
TORSDOF 0
ENDMDL
MODEL 7
REMARK VINA RESULT:      -7.8      1.421      1.726
REMARK  0 active torsions:
REMARK  status: ('A' for Active; 'I' for Inactive)
ROOT
HETATM    1  C1  UNL     1      18.998   1.837  49.173  1.00  0.00    -0.027 C 
HETATM    2  C2  UNL     1      19.928   2.368  48.420  1.00  0.00    -0.008 C 
HETATM    3  C3  UNL     1      21.234   1.674  48.600  1.00  0.00     0.089 C 
HETATM    4  C4  UNL     1      21.636   1.821  50.027  1.00  0.00     0.064 C 
HETATM    5  C5  UNL     1      20.658   1.648  50.905  1.00  0.00     0.083 C 
HETATM    6  C6  UNL     1      19.326   1.338  50.348  1.00  0.00     0.045 C 
HETATM    7  N1  UNL     1      20.781   1.733  52.320  1.00  0.00    -0.240 NA
HETATM    8  C7  UNL     1      21.790   1.176  52.900  1.00  0.00     0.236 C 
HETATM    9  N2  UNL     1      22.969   0.420  52.646  1.00  0.00    -0.215 NA
HETATM   10  C8  UNL     1      24.150   0.977  52.597  1.00  0.00     0.199 C 
HETATM   11  O1  UNL     1      25.064  -0.059  52.331  1.00  0.00    -0.294 OA
HETATM   12  C9  UNL     1      26.416  -0.181  52.693  1.00  0.00     0.065 A 
HETATM   13  C10 UNL     1      27.139  -1.264  52.947  1.00  0.00     0.033 A 
HETATM   14  C11 UNL     1      28.490  -0.873  53.280  1.00  0.00    -0.001 A 
HETATM   15  C12 UNL     1      28.621   0.446  53.235  1.00  0.00    -0.014 A 
HETATM   16  C13 UNL     1      27.286   0.989  52.851  1.00  0.00     0.083 A 
HETATM   17  C14 UNL     1      26.876   1.924  53.965  1.00  0.00     0.135 C 
HETATM   18  N3  UNL     1      25.721   2.753  53.590  1.00  0.00    -0.384 N 
HETATM   19  C15 UNL     1      24.613   2.352  52.759  1.00  0.00     0.106 C 
HETATM   20  C16 UNL     1      24.047   3.380  52.146  1.00  0.00     0.201 C 
HETATM   21  O2  UNL     1      22.977   3.112  51.325  1.00  0.00    -0.248 OA
HETATM   22  N4  UNL     1      22.966   2.122  50.380  1.00  0.00    -0.263 N 
HETATM   23  H12 UNL     1      25.654   3.737  53.939  1.00  0.00     0.159 HD
HETATM   24  H14 UNL     1      23.627   1.513  49.832  1.00  0.00     0.194 HD
ENDROOT
TORSDOF 0
ENDMDL
MODEL 8
REMARK VINA RESULT:      -7.7      9.373     11.991
REMARK  0 active torsions:
REMARK  status: ('A' for Active; 'I' for Inactive)
ROOT
HETATM    1  C1  UNL     1      35.018   3.383  46.426  1.00  0.00    -0.027 C 
HETATM    2  C2  UNL     1      34.491   2.894  47.520  1.00  0.00    -0.008 C 
HETATM    3  C3  UNL     1      33.027   3.158  47.584  1.00  0.00     0.089 C 
HETATM    4  C4  UNL     1      32.828   4.634  47.579  1.00  0.00     0.064 C 
HETATM    5  C5  UNL     1      33.593   5.300  46.725  1.00  0.00     0.083 C 
HETATM    6  C6  UNL     1      34.521   4.490  45.911  1.00  0.00     0.045 C 
HETATM    7  N1  UNL     1      33.596   6.708  46.529  1.00  0.00    -0.240 NA
HETATM    8  C7  UNL     1      32.472   7.337  46.457  1.00  0.00     0.236 C 
HETATM    9  N2  UNL     1      31.061   7.148  46.505  1.00  0.00    -0.215 NA
HETATM   10  C8  UNL     1      30.368   7.388  47.586  1.00  0.00     0.199 C 
HETATM   11  O1  UNL     1      29.029   7.095  47.269  1.00  0.00    -0.294 OA
HETATM   12  C9  UNL     1      27.842   7.643  47.784  1.00  0.00     0.065 A 
HETATM   13  C10 UNL     1      26.660   7.817  47.207  1.00  0.00     0.033 A 
HETATM   14  C11 UNL     1      25.749   8.426  48.151  1.00  0.00    -0.001 A 
HETATM   15  C12 UNL     1      26.351   8.634  49.315  1.00  0.00    -0.014 A 
HETATM   16  C13 UNL     1      27.750   8.141  49.160  1.00  0.00     0.083 A 
HETATM   17  C14 UNL     1      28.647   9.320  49.457  1.00  0.00     0.135 C 
HETATM   18  N3  UNL     1      30.049   8.915  49.629  1.00  0.00    -0.384 N 
HETATM   19  C15 UNL     1      30.729   7.859  48.919  1.00  0.00     0.106 C 
HETATM   20  C16 UNL     1      31.735   7.353  49.616  1.00  0.00     0.201 C 
HETATM   21  O2  UNL     1      32.454   6.336  49.032  1.00  0.00    -0.248 OA
HETATM   22  N4  UNL     1      31.888   5.243  48.433  1.00  0.00    -0.263 N 
HETATM   23  H12 UNL     1      30.652   9.415  50.323  1.00  0.00     0.159 HD
HETATM   24  H14 UNL     1      30.981   4.711  48.402  1.00  0.00     0.194 HD
ENDROOT
TORSDOF 0
ENDMDL
MODEL 9
REMARK VINA RESULT:      -7.7      2.965      7.310
REMARK  0 active torsions:
REMARK  status: ('A' for Active; 'I' for Inactive)
ROOT
HETATM    1  C1  UNL     1      26.632  -0.848  53.073  1.00  0.00    -0.027 C 
HETATM    2  C2  UNL     1      25.585  -0.795  53.858  1.00  0.00    -0.008 C 
HETATM    3  C3  UNL     1      24.372  -0.354  53.114  1.00  0.00     0.089 C 
HETATM    4  C4  UNL     1      24.635   1.011  52.580  1.00  0.00     0.064 C 
HETATM    5  C5  UNL     1      25.841   1.186  52.058  1.00  0.00     0.083 C 
HETATM    6  C6  UNL     1      26.740   0.015  52.082  1.00  0.00     0.045 C 
HETATM    7  N1  UNL     1      26.337   2.389  51.485  1.00  0.00    -0.240 NA
HETATM    8  C7  UNL     1      25.580   3.068  50.690  1.00  0.00     0.236 C 
HETATM    9  N2  UNL     1      24.287   3.084  50.093  1.00  0.00    -0.215 NA
HETATM   10  C8  UNL     1      23.315   3.815  50.571  1.00  0.00     0.199 C 
HETATM   11  O1  UNL     1      22.203   3.583  49.740  1.00  0.00    -0.294 OA
HETATM   12  C9  UNL     1      21.128   4.429  49.420  1.00  0.00     0.065 A 
HETATM   13  C10 UNL     1      20.395   4.500  48.316  1.00  0.00     0.033 A 
HETATM   14  C11 UNL     1      19.400   5.538  48.465  1.00  0.00    -0.001 A 
HETATM   15  C12 UNL     1      19.502   6.117  49.654  1.00  0.00    -0.014 A 
HETATM   16  C13 UNL     1      20.629   5.440  50.358  1.00  0.00     0.083 A 
HETATM   17  C14 UNL     1      21.627   6.523  50.695  1.00  0.00     0.135 C 
HETATM   18  N3  UNL     1      22.649   6.054  51.642  1.00  0.00    -0.384 N 
HETATM   19  C15 UNL     1      23.217   4.730  51.703  1.00  0.00     0.106 C 
HETATM   20  C16 UNL     1      23.651   4.425  52.916  1.00  0.00     0.201 C 
HETATM   21  O2  UNL     1      24.214   3.182  53.089  1.00  0.00    -0.248 OA
HETATM   22  N4  UNL     1      23.651   2.018  52.641  1.00  0.00    -0.263 N 
HETATM   23  H12 UNL     1      23.031   6.712  52.360  1.00  0.00     0.159 HD
HETATM   24  H14 UNL     1      22.724   1.631  52.327  1.00  0.00     0.194 HD
ENDROOT
TORSDOF 0
ENDMDL
