MODEL 1
REMARK VINA RESULT:      -6.7      0.000      0.000
REMARK  7 active torsions:
REMARK  status: ('A' for Active; 'I' for Inactive)
REMARK    1  A    between atoms: O1_2  and  C2_3 
REMARK    2  A    between atoms: C2_3  and  C4_5 
REMARK    3  A    between atoms: C5_6  and  N1_7 
REMARK    4  A    between atoms: N1_7  and  C6_8 
REMARK    5  A    between atoms: C10_13  and  C11_14 
REMARK    6  A    between atoms: C11_14  and  C12_15 
REMARK    7  A    between atoms: C14_18  and  N3_19 
ROOT
HETATM    1  C6  UNL     1      25.203   2.099  53.426  1.00  0.00     0.081 C 
HETATM    2  C7  UNL     1      24.645   3.478  53.504  1.00  0.00     0.202 C 
HETATM    3  O2  UNL     1      24.438   3.404  52.115  1.00  0.00    -0.381 OA
HETATM    4  C8  UNL     1      25.492   2.545  51.986  1.00  0.00     0.152 C 
HETATM    5  C9  UNL     1      25.193   1.129  51.587  1.00  0.00     0.042 C 
HETATM    6  C10 UNL     1      24.331   1.067  52.851  1.00  0.00     0.025 C 
ENDROOT
BRANCH   6   7
HETATM    7  C11 UNL     1      24.246  -0.280  53.477  1.00  0.00     0.049 C 
BRANCH   7   8
HETATM    8  C12 UNL     1      22.793  -0.619  53.688  1.00  0.00    -0.021 A 
HETATM    9  C13 UNL     1      21.930  -0.007  52.786  1.00  0.00     0.144 A 
HETATM   10  N2  UNL     1      20.598  -0.213  52.848  1.00  0.00    -0.075 NA
HETATM   11  C14 UNL     1      20.128  -1.034  53.817  1.00  0.00     0.719 A 
HETATM   12  N4  UNL     1      20.944  -1.622  54.680  1.00  0.00    -0.075 NA
HETATM   13  C15 UNL     1      22.280  -1.447  54.658  1.00  0.00     0.144 A 
BRANCH  11  14
HETATM   14  N3  UNL     1      18.721  -1.223  53.846  1.00  0.00    -0.231 N 
HETATM   15  H20 UNL     1      18.027  -1.509  53.105  1.00  0.00     0.174 HD
HETATM   16  H21 UNL     1      18.181  -1.080  54.703  1.00  0.00     0.174 HD
ENDBRANCH  11  14
ENDBRANCH   7   8
ENDBRANCH   6   7
BRANCH   1  17
HETATM   17  N1  UNL     1      26.431   1.784  54.050  1.00  0.00    -0.385 N 
HETATM   18  H10 UNL     1      26.485   1.139  54.893  1.00  0.00     0.159 HD
BRANCH  17  19
HETATM   19  C5  UNL     1      27.706   2.284  53.627  1.00  0.00     0.082 C 
HETATM   20  C4  UNL     1      28.631   1.349  53.453  1.00  0.00     0.021 C 
BRANCH  20  21
HETATM   21  C2  UNL     1      28.442  -0.089  53.653  1.00  0.00     0.140 C 
HETATM   22  C3  UNL     1      29.750  -0.847  53.742  1.00  0.00     0.044 C 
BRANCH  21  23
HETATM   23  O1  UNL     1      27.691  -0.640  52.630  1.00  0.00    -0.387 OA
HETATM   24  C1  UNL     1      27.409  -1.987  52.812  1.00  0.00     0.202 C 
ENDBRANCH  21  23
ENDBRANCH  20  21
ENDBRANCH  17  19
ENDBRANCH   1  17
TORSDOF 7
ENDMDL
MODEL 2
REMARK VINA RESULT:      -6.4      3.851      6.322
REMARK  7 active torsions:
REMARK  status: ('A' for Active; 'I' for Inactive)
REMARK    1  A    between atoms: O1_2  and  C2_3 
REMARK    2  A    between atoms: C2_3  and  C4_5 
REMARK    3  A    between atoms: C5_6  and  N1_7 
REMARK    4  A    between atoms: N1_7  and  C6_8 
REMARK    5  A    between atoms: C10_13  and  C11_14 
REMARK    6  A    between atoms: C11_14  and  C12_15 
REMARK    7  A    between atoms: C14_18  and  N3_19 
ROOT
HETATM    1  C6  UNL     1      23.643   3.828  51.427  1.00  0.00     0.081 C 
HETATM    2  C7  UNL     1      23.543   5.059  52.259  1.00  0.00     0.202 C 
HETATM    3  O2  UNL     1      22.254   4.633  52.622  1.00  0.00    -0.381 OA
HETATM    4  C8  UNL     1      22.115   3.978  51.432  1.00  0.00     0.152 C 
HETATM    5  C9  UNL     1      22.061   2.478  51.462  1.00  0.00     0.042 C 
HETATM    6  C10 UNL     1      23.443   2.548  52.119  1.00  0.00     0.025 C 
ENDROOT
BRANCH   6   7
HETATM    7  C11 UNL     1      24.327   1.387  51.826  1.00  0.00     0.049 C 
BRANCH   7   8
HETATM    8  C12 UNL     1      25.705   1.690  52.356  1.00  0.00    -0.021 A 
HETATM    9  C13 UNL     1      25.841   1.499  53.726  1.00  0.00     0.144 A 
HETATM   10  N2  UNL     1      27.017   1.729  54.346  1.00  0.00    -0.075 NA
HETATM   11  C14 UNL     1      28.060   2.152  53.593  1.00  0.00     0.719 A 
HETATM   12  N4  UNL     1      27.938   2.336  52.286  1.00  0.00    -0.075 NA
HETATM   13  C15 UNL     1      26.785   2.120  51.622  1.00  0.00     0.144 A 
BRANCH  11  14
HETATM   14  N3  UNL     1      29.277   2.382  54.285  1.00  0.00    -0.231 N 
HETATM   15  H20 UNL     1      29.869   1.768  54.906  1.00  0.00     0.174 HD
HETATM   16  H21 UNL     1      29.756   3.286  54.240  1.00  0.00     0.174 HD
ENDBRANCH  11  14
ENDBRANCH   7   8
ENDBRANCH   6   7
BRANCH   1  17
HETATM   17  N1  UNL     1      24.093   3.896  50.089  1.00  0.00    -0.385 N 
HETATM   18  H10 UNL     1      24.798   3.205  49.697  1.00  0.00     0.159 HD
BRANCH  17  19
HETATM   19  C5  UNL     1      23.663   4.879  49.139  1.00  0.00     0.082 C 
HETATM   20  C4  UNL     1      24.593   5.764  48.808  1.00  0.00     0.021 C 
BRANCH  20  21
HETATM   21  C2  UNL     1      25.964   5.800  49.325  1.00  0.00     0.140 C 
HETATM   22  C3  UNL     1      26.711   7.054  48.920  1.00  0.00     0.044 C 
BRANCH  21  23
HETATM   23  O1  UNL     1      26.687   4.704  48.891  1.00  0.00    -0.387 OA
HETATM   24  C1  UNL     1      27.986   5.013  48.510  1.00  0.00     0.202 C 
ENDBRANCH  21  23
ENDBRANCH  20  21
ENDBRANCH  17  19
ENDBRANCH   1  17
TORSDOF 7
ENDMDL
MODEL 3
REMARK VINA RESULT:      -6.3      2.565      6.052
REMARK  7 active torsions:
REMARK  status: ('A' for Active; 'I' for Inactive)
REMARK    1  A    between atoms: O1_2  and  C2_3 
REMARK    2  A    between atoms: C2_3  and  C4_5 
REMARK    3  A    between atoms: C5_6  and  N1_7 
REMARK    4  A    between atoms: N1_7  and  C6_8 
REMARK    5  A    between atoms: C10_13  and  C11_14 
REMARK    6  A    between atoms: C11_14  and  C12_15 
REMARK    7  A    between atoms: C14_18  and  N3_19 
ROOT
HETATM    1  C6  UNL     1      23.249   2.008  52.071  1.00  0.00     0.081 C 
HETATM    2  C7  UNL     1      23.002   1.768  50.622  1.00  0.00     0.202 C 
HETATM    3  O2  UNL     1      23.008   3.164  50.454  1.00  0.00    -0.381 OA
HETATM    4  C8  UNL     1      22.559   3.338  51.732  1.00  0.00     0.152 C 
HETATM    5  C9  UNL     1      23.496   3.968  52.722  1.00  0.00     0.042 C 
HETATM    6  C10 UNL     1      24.438   2.800  52.413  1.00  0.00     0.025 C 
ENDROOT
BRANCH   6   7
HETATM    7  C11 UNL     1      25.312   2.394  53.547  1.00  0.00     0.049 C 
BRANCH   7   8
HETATM    8  C12 UNL     1      25.928   1.058  53.221  1.00  0.00    -0.021 A 
HETATM    9  C13 UNL     1      26.007   0.189  54.303  1.00  0.00     0.144 A 
HETATM   10  N2  UNL     1      26.535  -1.045  54.168  1.00  0.00    -0.075 NA
HETATM   11  C14 UNL     1      26.987  -1.411  52.944  1.00  0.00     0.719 A 
HETATM   12  N4  UNL     1      26.915  -0.588  51.907  1.00  0.00    -0.075 NA
HETATM   13  C15 UNL     1      26.397   0.652  51.994  1.00  0.00     0.144 A 
BRANCH  11  14
HETATM   14  N3  UNL     1      27.535  -2.716  52.847  1.00  0.00    -0.231 N 
HETATM   15  H20 UNL     1      27.581  -3.521  53.527  1.00  0.00     0.174 HD
HETATM   16  H21 UNL     1      27.998  -3.039  51.992  1.00  0.00     0.174 HD
ENDBRANCH  11  14
ENDBRANCH   7   8
ENDBRANCH   6   7
BRANCH   1  17
HETATM   17  N1  UNL     1      22.480   1.344  53.052  1.00  0.00    -0.385 N 
HETATM   18  H10 UNL     1      21.842   1.871  53.719  1.00  0.00     0.159 HD
BRANCH  17  19
HETATM   19  C5  UNL     1      22.476  -0.075  53.255  1.00  0.00     0.082 C 
HETATM   20  C4  UNL     1      21.266  -0.616  53.308  1.00  0.00     0.021 C 
BRANCH  20  21
HETATM   21  C2  UNL     1      19.998   0.106  53.181  1.00  0.00     0.140 C 
HETATM   22  C3  UNL     1      18.792  -0.808  53.249  1.00  0.00     0.044 C 
BRANCH  21  23
HETATM   23  O1  UNL     1      19.943   0.809  51.991  1.00  0.00    -0.387 OA
HETATM   24  C1  UNL     1      19.047   0.278  51.074  1.00  0.00     0.202 C 
ENDBRANCH  21  23
ENDBRANCH  20  21
ENDBRANCH  17  19
ENDBRANCH   1  17
TORSDOF 7
ENDMDL
MODEL 4
REMARK VINA RESULT:      -6.3      2.716      6.622
REMARK  7 active torsions:
REMARK  status: ('A' for Active; 'I' for Inactive)
REMARK    1  A    between atoms: O1_2  and  C2_3 
REMARK    2  A    between atoms: C2_3  and  C4_5 
REMARK    3  A    between atoms: C5_6  and  N1_7 
REMARK    4  A    between atoms: N1_7  and  C6_8 
REMARK    5  A    between atoms: C10_13  and  C11_14 
REMARK    6  A    between atoms: C11_14  and  C12_15 
REMARK    7  A    between atoms: C14_18  and  N3_19 
ROOT
HETATM    1  C6  UNL     1      22.935   1.809  50.736  1.00  0.00     0.081 C 
HETATM    2  C7  UNL     1      23.119   2.587  49.479  1.00  0.00     0.202 C 
HETATM    3  O2  UNL     1      23.176   3.743  50.277  1.00  0.00    -0.381 OA
HETATM    4  C8  UNL     1      22.376   3.156  51.216  1.00  0.00     0.152 C 
HETATM    5  C9  UNL     1      22.987   2.828  52.548  1.00  0.00     0.042 C 
HETATM    6  C10 UNL     1      23.975   1.961  51.762  1.00  0.00     0.025 C 
ENDROOT
BRANCH   6   7
HETATM    7  C11 UNL     1      24.481   0.774  52.502  1.00  0.00     0.049 C 
BRANCH   7   8
HETATM    8  C12 UNL     1      25.847   1.099  53.049  1.00  0.00    -0.021 A 
HETATM    9  C13 UNL     1      26.619   1.898  52.214  1.00  0.00     0.144 A 
HETATM   10  N2  UNL     1      27.866   2.272  52.567  1.00  0.00    -0.075 NA
HETATM   11  C14 UNL     1      28.343   1.845  53.760  1.00  0.00     0.719 A 
HETATM   12  N4  UNL     1      27.614   1.083  54.562  1.00  0.00    -0.075 NA
HETATM   13  C15 UNL     1      26.365   0.683  54.253  1.00  0.00     0.144 A 
BRANCH  11  14
HETATM   14  N3  UNL     1      29.659   2.262  54.091  1.00  0.00    -0.231 N 
HETATM   15  H20 UNL     1      30.459   2.622  53.507  1.00  0.00     0.174 HD
HETATM   16  H21 UNL     1      29.996   2.248  55.058  1.00  0.00     0.174 HD
ENDBRANCH  11  14
ENDBRANCH   7   8
ENDBRANCH   6   7
BRANCH   1  17
HETATM   17  N1  UNL     1      21.913   0.839  50.840  1.00  0.00    -0.385 N 
HETATM   18  H10 UNL     1      22.090  -0.123  51.255  1.00  0.00     0.159 HD
BRANCH  17  19
HETATM   19  C5  UNL     1      20.561   1.039  50.408  1.00  0.00     0.082 C 
HETATM   20  C4  UNL     1      19.645   0.568  51.244  1.00  0.00     0.021 C 
BRANCH  20  21
HETATM   21  C2  UNL     1      19.913  -0.108  52.515  1.00  0.00     0.140 C 
HETATM   22  C3  UNL     1      18.690  -0.801  53.082  1.00  0.00     0.044 C 
BRANCH  21  23
HETATM   23  O1  UNL     1      20.385   0.782  53.463  1.00  0.00    -0.387 OA
HETATM   24  C1  UNL     1      21.047   0.169  54.518  1.00  0.00     0.202 C 
ENDBRANCH  21  23
ENDBRANCH  20  21
ENDBRANCH  17  19
ENDBRANCH   1  17
TORSDOF 7
ENDMDL
MODEL 5
REMARK VINA RESULT:      -6.2      2.996      7.326
REMARK  7 active torsions:
REMARK  status: ('A' for Active; 'I' for Inactive)
REMARK    1  A    between atoms: O1_2  and  C2_3 
REMARK    2  A    between atoms: C2_3  and  C4_5 
REMARK    3  A    between atoms: C5_6  and  N1_7 
REMARK    4  A    between atoms: N1_7  and  C6_8 
REMARK    5  A    between atoms: C10_13  and  C11_14 
REMARK    6  A    between atoms: C11_14  and  C12_15 
REMARK    7  A    between atoms: C14_18  and  N3_19 
ROOT
HETATM    1  C6  UNL     1      21.521   0.204  53.517  1.00  0.00     0.081 C 
HETATM    2  C7  UNL     1      20.826   0.353  54.826  1.00  0.00     0.202 C 
HETATM    3  O2  UNL     1      21.270  -0.943  55.138  1.00  0.00    -0.381 OA
HETATM    4  C8  UNL     1      21.271  -1.282  53.815  1.00  0.00     0.152 C 
HETATM    5  C9  UNL     1      22.597  -1.539  53.161  1.00  0.00     0.042 C 
HETATM    6  C10 UNL     1      22.955  -0.106  53.565  1.00  0.00     0.025 C 
ENDROOT
BRANCH   6   7
HETATM    7  C11 UNL     1      23.904   0.578  52.646  1.00  0.00     0.049 C 
BRANCH   7   8
HETATM    8  C12 UNL     1      25.273   0.567  53.277  1.00  0.00    -0.021 A 
HETATM    9  C13 UNL     1      25.780   1.831  53.554  1.00  0.00     0.144 A 
HETATM   10  N2  UNL     1      26.996   1.983  54.120  1.00  0.00    -0.075 NA
HETATM   11  C14 UNL     1      27.706   0.867  54.408  1.00  0.00     0.719 A 
HETATM   12  N4  UNL     1      27.229  -0.342  54.147  1.00  0.00    -0.075 NA
HETATM   13  C15 UNL     1      26.022  -0.544  53.583  1.00  0.00     0.144 A 
BRANCH  11  14
HETATM   14  N3  UNL     1      28.979   1.073  55.002  1.00  0.00    -0.231 N 
HETATM   15  H20 UNL     1      29.680   0.411  55.430  1.00  0.00     0.174 HD
HETATM   16  H21 UNL     1      29.388   2.009  55.079  1.00  0.00     0.174 HD
ENDBRANCH  11  14
ENDBRANCH   7   8
ENDBRANCH   6   7
BRANCH   1  17
HETATM   17  N1  UNL     1      20.863   0.534  52.311  1.00  0.00    -0.385 N 
HETATM   18  H10 UNL     1      21.032  -0.007  51.411  1.00  0.00     0.159 HD
BRANCH  17  19
HETATM   19  C5  UNL     1      19.922   1.605  52.168  1.00  0.00     0.082 C 
HETATM   20  C4  UNL     1      18.739   1.235  51.695  1.00  0.00     0.021 C 
BRANCH  20  21
HETATM   21  C2  UNL     1      18.353  -0.129  51.328  1.00  0.00     0.140 C 
HETATM   22  C3  UNL     1      17.132  -0.173  50.433  1.00  0.00     0.044 C 
BRANCH  21  23
HETATM   23  O1  UNL     1      18.094  -0.892  52.452  1.00  0.00    -0.387 OA
HETATM   24  C1  UNL     1      16.753  -1.221  52.603  1.00  0.00     0.202 C 
ENDBRANCH  21  23
ENDBRANCH  20  21
ENDBRANCH  17  19
ENDBRANCH   1  17
TORSDOF 7
ENDMDL
MODEL 6
REMARK VINA RESULT:      -6.2      2.229      3.013
REMARK  7 active torsions:
REMARK  status: ('A' for Active; 'I' for Inactive)
REMARK    1  A    between atoms: O1_2  and  C2_3 
REMARK    2  A    between atoms: C2_3  and  C4_5 
REMARK    3  A    between atoms: C5_6  and  N1_7 
REMARK    4  A    between atoms: N1_7  and  C6_8 
REMARK    5  A    between atoms: C10_13  and  C11_14 
REMARK    6  A    between atoms: C11_14  and  C12_15 
REMARK    7  A    between atoms: C14_18  and  N3_19 
ROOT
HETATM    1  C6  UNL     1      23.210   3.909  51.658  1.00  0.00     0.081 C 
HETATM    2  C7  UNL     1      22.269   4.898  52.255  1.00  0.00     0.202 C 
HETATM    3  O2  UNL     1      22.088   5.413  50.959  1.00  0.00    -0.381 OA
HETATM    4  C8  UNL     1      23.348   5.020  50.607  1.00  0.00     0.152 C 
HETATM    5  C9  UNL     1      23.480   3.919  49.596  1.00  0.00     0.042 C 
HETATM    6  C10 UNL     1      22.679   3.062  50.582  1.00  0.00     0.025 C 
ENDROOT
BRANCH   6   7
HETATM    7  C11 UNL     1      22.998   1.610  50.540  1.00  0.00     0.049 C 
BRANCH   7   8
HETATM    8  C12 UNL     1      22.087   0.892  51.503  1.00  0.00    -0.021 A 
HETATM    9  C13 UNL     1      20.737   0.996  51.191  1.00  0.00     0.144 A 
HETATM   10  N2  UNL     1      19.798   0.406  51.960  1.00  0.00    -0.075 NA
HETATM   11  C14 UNL     1      20.213  -0.289  53.046  1.00  0.00     0.719 A 
HETATM   12  N4  UNL     1      21.499  -0.393  53.350  1.00  0.00    -0.075 NA
HETATM   13  C15 UNL     1      22.472   0.178  52.613  1.00  0.00     0.144 A 
BRANCH  11  14
HETATM   14  N3  UNL     1      19.193  -0.893  53.827  1.00  0.00    -0.231 N 
HETATM   15  H20 UNL     1      18.184  -0.640  53.998  1.00  0.00     0.174 HD
HETATM   16  H21 UNL     1      19.369  -1.744  54.370  1.00  0.00     0.174 HD
ENDBRANCH  11  14
ENDBRANCH   7   8
ENDBRANCH   6   7
BRANCH   1  17
HETATM   17  N1  UNL     1      24.479   3.682  52.237  1.00  0.00    -0.385 N 
HETATM   18  H10 UNL     1      25.374   4.036  51.786  1.00  0.00     0.159 HD
BRANCH  17  19
HETATM   19  C5  UNL     1      24.695   2.968  53.461  1.00  0.00     0.082 C 
HETATM   20  C4  UNL     1      25.615   2.016  53.384  1.00  0.00     0.021 C 
BRANCH  20  21
HETATM   21  C2  UNL     1      26.387   1.666  52.189  1.00  0.00     0.140 C 
HETATM   22  C3  UNL     1      26.701   0.186  52.106  1.00  0.00     0.044 C 
BRANCH  21  23
HETATM   23  O1  UNL     1      27.580   2.365  52.144  1.00  0.00    -0.387 OA
HETATM   24  C1  UNL     1      28.315   2.283  53.319  1.00  0.00     0.202 C 
ENDBRANCH  21  23
ENDBRANCH  20  21
ENDBRANCH  17  19
ENDBRANCH   1  17
TORSDOF 7
ENDMDL
MODEL 7
REMARK VINA RESULT:      -6.1      2.991      6.286
REMARK  7 active torsions:
REMARK  status: ('A' for Active; 'I' for Inactive)
REMARK    1  A    between atoms: O1_2  and  C2_3 
REMARK    2  A    between atoms: C2_3  and  C4_5 
REMARK    3  A    between atoms: C5_6  and  N1_7 
REMARK    4  A    between atoms: N1_7  and  C6_8 
REMARK    5  A    between atoms: C10_13  and  C11_14 
REMARK    6  A    between atoms: C11_14  and  C12_15 
REMARK    7  A    between atoms: C14_18  and  N3_19 
ROOT
HETATM    1  C6  UNL     1      23.585   3.000  50.825  1.00  0.00     0.081 C 
HETATM    2  C7  UNL     1      24.520   3.399  49.736  1.00  0.00     0.202 C 
HETATM    3  O2  UNL     1      24.821   4.540  50.499  1.00  0.00    -0.381 OA
HETATM    4  C8  UNL     1      23.576   4.517  51.059  1.00  0.00     0.152 C 
HETATM    5  C9  UNL     1      23.474   4.197  52.522  1.00  0.00     0.042 C 
HETATM    6  C10 UNL     1      24.159   2.872  52.170  1.00  0.00     0.025 C 
ENDROOT
BRANCH   6   7
HETATM    7  C11 UNL     1      23.781   1.729  53.045  1.00  0.00     0.049 C 
BRANCH   7   8
HETATM    8  C12 UNL     1      25.041   1.046  53.510  1.00  0.00    -0.021 A 
HETATM    9  C13 UNL     1      26.064   1.919  53.863  1.00  0.00     0.144 A 
HETATM   10  N2  UNL     1      27.254   1.456  54.299  1.00  0.00    -0.075 NA
HETATM   11  C14 UNL     1      27.421   0.114  54.381  1.00  0.00     0.719 A 
HETATM   12  N4  UNL     1      26.451  -0.724  54.047  1.00  0.00    -0.075 NA
HETATM   13  C15 UNL     1      25.247  -0.310  53.606  1.00  0.00     0.144 A 
BRANCH  11  14
HETATM   14  N3  UNL     1      28.687  -0.329  54.844  1.00  0.00    -0.231 N 
HETATM   15  H20 UNL     1      29.178  -0.236  55.773  1.00  0.00     0.174 HD
HETATM   16  H21 UNL     1      29.326  -0.850  54.237  1.00  0.00     0.174 HD
ENDBRANCH  11  14
ENDBRANCH   7   8
ENDBRANCH   6   7
BRANCH   1  17
HETATM   17  N1  UNL     1      22.267   2.587  50.528  1.00  0.00    -0.385 N 
HETATM   18  H10 UNL     1      21.423   3.194  50.748  1.00  0.00     0.159 HD
BRANCH  17  19
HETATM   19  C5  UNL     1      21.929   1.336  49.914  1.00  0.00     0.082 C 
HETATM   20  C4  UNL     1      21.040   0.618  50.587  1.00  0.00     0.021 C 
BRANCH  20  21
HETATM   21  C2  UNL     1      20.413   1.002  51.854  1.00  0.00     0.140 C 
HETATM   22  C3  UNL     1      19.460  -0.052  52.381  1.00  0.00     0.044 C 
BRANCH  21  23
HETATM   23  O1  UNL     1      19.717   2.190  51.725  1.00  0.00    -0.387 OA
HETATM   24  C1  UNL     1      18.424   2.026  51.245  1.00  0.00     0.202 C 
ENDBRANCH  21  23
ENDBRANCH  20  21
ENDBRANCH  17  19
ENDBRANCH   1  17
TORSDOF 7
ENDMDL
MODEL 8
REMARK VINA RESULT:      -6.0      2.613      6.498
REMARK  7 active torsions:
REMARK  status: ('A' for Active; 'I' for Inactive)
REMARK    1  A    between atoms: O1_2  and  C2_3 
REMARK    2  A    between atoms: C2_3  and  C4_5 
REMARK    3  A    between atoms: C5_6  and  N1_7 
REMARK    4  A    between atoms: N1_7  and  C6_8 
REMARK    5  A    between atoms: C10_13  and  C11_14 
REMARK    6  A    between atoms: C11_14  and  C12_15 
REMARK    7  A    between atoms: C14_18  and  N3_19 
ROOT
HETATM    1  C6  UNL     1      21.508   0.414  53.576  1.00  0.00     0.081 C 
HETATM    2  C7  UNL     1      20.894   0.430  54.933  1.00  0.00     0.202 C 
HETATM    3  O2  UNL     1      21.196  -0.940  55.017  1.00  0.00    -0.381 OA
HETATM    4  C8  UNL     1      21.099  -1.063  53.660  1.00  0.00     0.152 C 
HETATM    5  C9  UNL     1      22.356  -1.358  52.893  1.00  0.00     0.042 C 
HETATM    6  C10 UNL     1      22.897  -0.055  53.488  1.00  0.00     0.025 C 
ENDROOT
BRANCH   6   7
HETATM    7  C11 UNL     1      23.879   0.657  52.626  1.00  0.00     0.049 C 
BRANCH   7   8
HETATM    8  C12 UNL     1      25.232   0.588  53.284  1.00  0.00    -0.021 A 
HETATM    9  C13 UNL     1      25.795   1.829  53.558  1.00  0.00     0.144 A 
HETATM   10  N2  UNL     1      27.005   1.929  54.146  1.00  0.00    -0.075 NA
HETATM   11  C14 UNL     1      27.655   0.783  54.461  1.00  0.00     0.719 A 
HETATM   12  N4  UNL     1      27.125  -0.404  54.203  1.00  0.00    -0.075 NA
HETATM   13  C15 UNL     1      25.921  -0.555  53.617  1.00  0.00     0.144 A 
BRANCH  11  14
HETATM   14  N3  UNL     1      28.924   0.934  55.078  1.00  0.00    -0.231 N 
HETATM   15  H20 UNL     1      29.253   1.513  55.896  1.00  0.00     0.174 HD
HETATM   16  H21 UNL     1      29.747   0.427  54.739  1.00  0.00     0.174 HD
ENDBRANCH  11  14
ENDBRANCH   7   8
ENDBRANCH   6   7
BRANCH   1  17
HETATM   17  N1  UNL     1      20.842   1.000  52.477  1.00  0.00    -0.385 N 
HETATM   18  H10 UNL     1      20.961   0.634  51.486  1.00  0.00     0.159 HD
BRANCH  17  19
HETATM   19  C5  UNL     1      19.956   2.123  52.571  1.00  0.00     0.082 C 
HETATM   20  C4  UNL     1      20.445   3.249  52.071  1.00  0.00     0.021 C 
BRANCH  20  21
HETATM   21  C2  UNL     1      21.766   3.411  51.458  1.00  0.00     0.140 C 
HETATM   22  C3  UNL     1      22.735   4.170  52.341  1.00  0.00     0.044 C 
BRANCH  21  23
HETATM   23  O1  UNL     1      21.675   4.073  50.247  1.00  0.00    -0.387 OA
HETATM   24  C1  UNL     1      21.090   3.314  49.242  1.00  0.00     0.202 C 
ENDBRANCH  21  23
ENDBRANCH  20  21
ENDBRANCH  17  19
ENDBRANCH   1  17
TORSDOF 7
ENDMDL
MODEL 9
REMARK VINA RESULT:      -5.8      7.148      8.718
REMARK  7 active torsions:
REMARK  status: ('A' for Active; 'I' for Inactive)
REMARK    1  A    between atoms: O1_2  and  C2_3 
REMARK    2  A    between atoms: C2_3  and  C4_5 
REMARK    3  A    between atoms: C5_6  and  N1_7 
REMARK    4  A    between atoms: N1_7  and  C6_8 
REMARK    5  A    between atoms: C10_13  and  C11_14 
REMARK    6  A    between atoms: C11_14  and  C12_15 
REMARK    7  A    between atoms: C14_18  and  N3_19 
ROOT
HETATM    1  C6  UNL     1      29.207   7.933  48.853  1.00  0.00     0.081 C 
HETATM    2  C7  UNL     1      28.544   9.196  49.279  1.00  0.00     0.202 C 
HETATM    3  O2  UNL     1      28.268   9.436  47.922  1.00  0.00    -0.381 OA
HETATM    4  C8  UNL     1      29.379   8.732  47.553  1.00  0.00     0.152 C 
HETATM    5  C9  UNL     1      29.174   7.430  46.835  1.00  0.00     0.042 C 
HETATM    6  C10 UNL     1      28.391   6.991  48.076  1.00  0.00     0.025 C 
ENDROOT
BRANCH   6   7
HETATM    7  C11 UNL     1      28.449   5.532  48.360  1.00  0.00     0.049 C 
BRANCH   7   8
HETATM    8  C12 UNL     1      27.084   5.078  48.810  1.00  0.00    -0.021 A 
HETATM    9  C13 UNL     1      26.084   6.027  48.637  1.00  0.00     0.144 A 
HETATM   10  N2  UNL     1      24.809   5.766  48.993  1.00  0.00    -0.075 NA
HETATM   11  C14 UNL     1      24.534   4.551  49.525  1.00  0.00     0.719 A 
HETATM   12  N4  UNL     1      25.483   3.640  49.692  1.00  0.00    -0.075 NA
HETATM   13  C15 UNL     1      26.769   3.854  49.352  1.00  0.00     0.144 A 
BRANCH  11  14
HETATM   14  N3  UNL     1      23.181   4.319  49.885  1.00  0.00    -0.231 N 
HETATM   15  H20 UNL     1      22.316   4.920  49.828  1.00  0.00     0.174 HD
HETATM   16  H21 UNL     1      22.881   3.427  50.288  1.00  0.00     0.174 HD
ENDBRANCH  11  14
ENDBRANCH   7   8
ENDBRANCH   6   7
BRANCH   1  17
HETATM   17  N1  UNL     1      30.489   7.592  49.339  1.00  0.00    -0.385 N 
HETATM   18  H10 UNL     1      30.683   6.657  49.807  1.00  0.00     0.159 HD
BRANCH  17  19
HETATM   19  C5  UNL     1      31.639   8.445  49.260  1.00  0.00     0.082 C 
HETATM   20  C4  UNL     1      32.766   7.816  48.954  1.00  0.00     0.021 C 
BRANCH  20  21
HETATM   21  C2  UNL     1      32.904   6.380  48.703  1.00  0.00     0.140 C 
HETATM   22  C3  UNL     1      34.349   5.925  48.681  1.00  0.00     0.044 C 
BRANCH  21  23
HETATM   23  O1  UNL     1      32.319   6.025  47.502  1.00  0.00    -0.387 OA
HETATM   24  C1  UNL     1      31.926   4.695  47.447  1.00  0.00     0.202 C 
ENDBRANCH  21  23
ENDBRANCH  20  21
ENDBRANCH  17  19
ENDBRANCH   1  17
TORSDOF 7
ENDMDL
