MODEL 1
REMARK VINA RESULT:      -9.1      0.000      0.000
REMARK  5 active torsions:
REMARK  status: ('A' for Active; 'I' for Inactive)
REMARK    1  A    between atoms: C1_2  and  C2_3 
REMARK       I    between atoms: C1_2  and  N4_22 
REMARK    2  A    between atoms: C2_3  and  C3_4 
REMARK    3  A    between atoms: C4_5  and  C5_6 
REMARK    4  A    between atoms: C5_6  and  N1_7 
REMARK    5  A    between atoms: N4_22  and  C16_23 
ROOT
HETATM    1  C3  UNL     1      20.640  -0.247  53.507  1.00  0.00    -0.096 C 
HETATM    2  C4  UNL     1      20.274   0.779  52.961  1.00  0.00    -0.087 C 
ENDROOT
BRANCH   2   3
HETATM    3  C5  UNL     1      19.816   2.025  52.321  1.00  0.00     0.211 C 
BRANCH   3   4
HETATM    4  N1  UNL     1      19.460   1.758  50.946  1.00  0.00    -0.398 N 
HETATM    5  C6  UNL     1      20.379   2.122  49.958  1.00  0.00     0.145 C 
HETATM    6  C7  UNL     1      21.679   1.318  50.139  1.00  0.00    -0.011 C 
HETATM    7  C8  UNL     1      22.797   2.057  50.402  1.00  0.00    -0.017 C 
HETATM    8  C9  UNL     1      22.439   3.500  50.436  1.00  0.00     0.086 C 
HETATM    9  C10 UNL     1      23.156   4.620  50.666  1.00  0.00     0.125 C 
HETATM   10  F1  UNL     1      24.421   5.146  50.972  1.00  0.00    -0.208 F 
HETATM   11  C11 UNL     1      22.316   5.788  50.440  1.00  0.00     0.086 C 
HETATM   12 CL1  UNL     1      22.947   7.428  50.679  1.00  0.00    -0.080 Cl
HETATM   13  C12 UNL     1      21.049   6.077  50.062  1.00  0.00     0.144 C 
HETATM   14  N2  UNL     1      19.738   5.809  49.656  1.00  0.00    -0.255 NA
HETATM   15  C13 UNL     1      18.859   5.028  49.938  1.00  0.00     0.202 C 
HETATM   16  N3  UNL     1      17.771   4.175  50.181  1.00  0.00    -0.383 N 
HETATM   17  C14 UNL     1      17.352   3.070  50.978  1.00  0.00     0.139 C 
HETATM   18  H12 UNL     1      17.346   4.781  49.419  1.00  0.00     0.160 HD
HETATM   19  C15 UNL     1      18.065   1.759  50.723  1.00  0.00     0.137 C 
ENDBRANCH   3   4
ENDBRANCH   2   3
BRANCH   1  20
HETATM   20  C2  UNL     1      21.091  -1.466  54.181  1.00  0.00     0.197 C 
BRANCH  20  21
HETATM   21  C1  UNL     1      22.494  -1.164  54.654  1.00  0.00     0.234 C 
HETATM   22  O1  UNL     1      23.000  -1.581  55.732  1.00  0.00    -0.272 OA
HETATM   23  N4  UNL     1      23.253  -0.340  53.778  1.00  0.00    -0.311 N 
HETATM   24  H17 UNL     1      22.870   0.025  52.878  1.00  0.00     0.170 HD
BRANCH  23  25
HETATM   25  C16 UNL     1      24.584   0.173  53.849  1.00  0.00     0.130 A 
HETATM   26  C17 UNL     1      25.803  -0.342  54.225  1.00  0.00     0.065 A 
HETATM   27  C18 UNL     1      26.911   0.436  54.173  1.00  0.00     0.015 A 
HETATM   28  C19 UNL     1      28.083  -0.170  54.568  1.00  0.00     0.132 A 
HETATM   29  C21 UNL     1      26.883   1.748  53.754  1.00  0.00     0.087 A 
HETATM   30  N5  UNL     1      29.231   0.537  54.543  1.00  0.00    -0.253 NA
HETATM   31  C20 UNL     1      29.170   1.835  54.122  1.00  0.00     0.233 A 
HETATM   32  N6  UNL     1      28.024   2.463  53.726  1.00  0.00    -0.240 NA
HETATM   33  C22 UNL     1      25.645   2.245  53.381  1.00  0.00     0.151 A 
HETATM   34  N7  UNL     1      24.538   1.475  53.430  1.00  0.00    -0.241 NA
ENDBRANCH  23  25
ENDBRANCH  20  21
ENDBRANCH   1  20
TORSDOF 5
ENDMDL
MODEL 2
REMARK VINA RESULT:      -9.0      6.358      8.617
REMARK  5 active torsions:
REMARK  status: ('A' for Active; 'I' for Inactive)
REMARK    1  A    between atoms: C1_2  and  C2_3 
REMARK       I    between atoms: C1_2  and  N4_22 
REMARK    2  A    between atoms: C2_3  and  C3_4 
REMARK    3  A    between atoms: C4_5  and  C5_6 
REMARK    4  A    between atoms: C5_6  and  N1_7 
REMARK    5  A    between atoms: N4_22  and  C16_23 
ROOT
HETATM    1  C3  UNL     1      26.569   4.168  49.252  1.00  0.00    -0.096 C 
HETATM    2  C4  UNL     1      25.536   3.841  49.809  1.00  0.00    -0.087 C 
ENDROOT
BRANCH   2   3
HETATM    3  C5  UNL     1      24.293   3.460  50.504  1.00  0.00     0.211 C 
BRANCH   3   4
HETATM    4  N1  UNL     1      24.146   4.257  51.701  1.00  0.00    -0.398 N 
HETATM    5  C6  UNL     1      23.762   3.600  52.873  1.00  0.00     0.145 C 
HETATM    6  C7  UNL     1      24.842   2.578  53.270  1.00  0.00    -0.011 C 
HETATM    7  C8  UNL     1      24.440   1.272  53.291  1.00  0.00    -0.017 C 
HETATM    8  C9  UNL     1      23.004   1.192  52.914  1.00  0.00     0.086 C 
HETATM    9  C10 UNL     1      22.148   0.159  52.769  1.00  0.00     0.125 C 
HETATM   10  F1  UNL     1      21.989  -1.235  52.832  1.00  0.00    -0.208 F 
HETATM   11  C11 UNL     1      20.809   0.671  52.512  1.00  0.00     0.086 C 
HETATM   12 CL1  UNL     1      19.444  -0.429  52.249  1.00  0.00    -0.080 Cl
HETATM   13  C12 UNL     1      20.178   1.862  52.388  1.00  0.00     0.144 C 
HETATM   14  N2  UNL     1      20.059   3.255  52.361  1.00  0.00    -0.255 NA
HETATM   15  C13 UNL     1      20.680   4.195  51.923  1.00  0.00     0.202 C 
HETATM   16  N3  UNL     1      21.317   5.358  51.462  1.00  0.00    -0.383 N 
HETATM   17  C14 UNL     1      22.464   5.818  50.752  1.00  0.00     0.139 C 
HETATM   18  H12 UNL     1      20.471   5.800  51.929  1.00  0.00     0.160 HD
HETATM   19  C15 UNL     1      23.798   5.600  51.434  1.00  0.00     0.137 C 
ENDBRANCH   3   4
ENDBRANCH   2   3
BRANCH   1  20
HETATM   20  C2  UNL     1      27.802   4.586  48.581  1.00  0.00     0.197 C 
BRANCH  20  21
HETATM   21  C1  UNL     1      27.693   6.087  48.445  1.00  0.00     0.234 C 
HETATM   22  O1  UNL     1      26.677   6.703  48.020  1.00  0.00    -0.272 OA
HETATM   23  N4  UNL     1      28.855   6.807  48.837  1.00  0.00    -0.311 N 
HETATM   24  H17 UNL     1      29.715   6.334  49.194  1.00  0.00     0.170 HD
BRANCH  23  25
HETATM   25  C16 UNL     1      29.163   8.201  48.861  1.00  0.00     0.130 A 
HETATM   26  C17 UNL     1      28.420   9.359  48.832  1.00  0.00     0.065 A 
HETATM   27  C18 UNL     1      29.042  10.562  48.870  1.00  0.00     0.015 A 
HETATM   28  C19 UNL     1      28.213  11.662  48.839  1.00  0.00     0.132 A 
HETATM   29  C21 UNL     1      30.412  10.692  48.936  1.00  0.00     0.087 A 
HETATM   30  N5  UNL     1      28.755  12.896  48.875  1.00  0.00    -0.253 NA
HETATM   31  C20 UNL     1      30.116  12.992  48.941  1.00  0.00     0.233 A 
HETATM   32  N6  UNL     1      30.963  11.921  48.972  1.00  0.00    -0.240 NA
HETATM   33  C22 UNL     1      31.139   9.514  48.964  1.00  0.00     0.151 A 
HETATM   34  N7  UNL     1      30.525   8.313  48.927  1.00  0.00    -0.241 NA
ENDBRANCH  23  25
ENDBRANCH  20  21
ENDBRANCH   1  20
TORSDOF 5
ENDMDL
MODEL 3
REMARK VINA RESULT:      -8.7      7.645     10.510
REMARK  5 active torsions:
REMARK  status: ('A' for Active; 'I' for Inactive)
REMARK    1  A    between atoms: C1_2  and  C2_3 
REMARK       I    between atoms: C1_2  and  N4_22 
REMARK    2  A    between atoms: C2_3  and  C3_4 
REMARK    3  A    between atoms: C4_5  and  C5_6 
REMARK    4  A    between atoms: C5_6  and  N1_7 
REMARK    5  A    between atoms: N4_22  and  C16_23 
ROOT
HETATM    1  C3  UNL     1      27.624   6.312  48.463  1.00  0.00    -0.096 C 
HETATM    2  C4  UNL     1      28.727   6.728  48.153  1.00  0.00    -0.087 C 
ENDROOT
BRANCH   2   3
HETATM    3  C5  UNL     1      30.050   7.250  47.767  1.00  0.00     0.211 C 
BRANCH   3   4
HETATM    4  N1  UNL     1      30.922   7.254  48.919  1.00  0.00    -0.398 N 
HETATM    5  C6  UNL     1      31.617   8.433  49.200  1.00  0.00     0.145 C 
HETATM    6  C7  UNL     1      30.618   9.558  49.522  1.00  0.00    -0.011 C 
HETATM    7  C8  UNL     1      30.640  10.628  48.672  1.00  0.00    -0.017 C 
HETATM    8  C9  UNL     1      31.673  10.406  47.626  1.00  0.00     0.086 C 
HETATM    9  C10 UNL     1      32.076  11.133  46.563  1.00  0.00     0.125 C 
HETATM   10  F1  UNL     1      31.888  12.312  45.824  1.00  0.00    -0.208 F 
HETATM   11  C11 UNL     1      33.231  10.494  45.948  1.00  0.00     0.086 C 
HETATM   12 CL1  UNL     1      33.998  11.183  44.505  1.00  0.00    -0.080 Cl
HETATM   13  C12 UNL     1      34.015   9.406  46.133  1.00  0.00     0.144 C 
HETATM   14  N2  UNL     1      34.457   8.233  46.753  1.00  0.00    -0.255 NA
HETATM   15  C13 UNL     1      33.965   7.244  47.244  1.00  0.00     0.202 C 
HETATM   16  N3  UNL     1      33.507   6.058  47.839  1.00  0.00    -0.383 N 
HETATM   17  C14 UNL     1      32.321   5.342  48.173  1.00  0.00     0.139 C 
HETATM   18  H12 UNL     1      34.553   5.909  47.947  1.00  0.00     0.160 HD
HETATM   19  C15 UNL     1      31.438   5.975  49.228  1.00  0.00     0.137 C 
ENDBRANCH   3   4
ENDBRANCH   2   3
BRANCH   1  20
HETATM   20  C2  UNL     1      26.295   5.833  48.850  1.00  0.00     0.197 C 
BRANCH  20  21
HETATM   21  C1  UNL     1      26.526   4.474  49.468  1.00  0.00     0.234 C 
HETATM   22  O1  UNL     1      27.355   3.620  49.051  1.00  0.00    -0.272 OA
HETATM   23  N4  UNL     1      25.716   4.190  50.603  1.00  0.00    -0.311 N 
HETATM   24  H17 UNL     1      25.018   4.871  50.979  1.00  0.00     0.170 HD
BRANCH  23  25
HETATM   25  C16 UNL     1      25.619   3.050  51.456  1.00  0.00     0.130 A 
HETATM   26  C17 UNL     1      26.512   2.322  52.208  1.00  0.00     0.065 A 
HETATM   27  C18 UNL     1      26.080   1.260  52.930  1.00  0.00     0.015 A 
HETATM   28  C19 UNL     1      27.048   0.597  53.651  1.00  0.00     0.132 A 
HETATM   29  C21 UNL     1      24.762   0.858  52.951  1.00  0.00     0.087 A 
HETATM   30  N5  UNL     1      26.698  -0.471  54.397  1.00  0.00    -0.253 NA
HETATM   31  C20 UNL     1      25.385  -0.844  54.397  1.00  0.00     0.233 A 
HETATM   32  N6  UNL     1      24.403  -0.208  53.693  1.00  0.00    -0.240 NA
HETATM   33  C22 UNL     1      23.881   1.605  52.187  1.00  0.00     0.151 A 
HETATM   34  N7  UNL     1      24.306   2.664  51.466  1.00  0.00    -0.241 NA
ENDBRANCH  23  25
ENDBRANCH  20  21
ENDBRANCH   1  20
TORSDOF 5
ENDMDL
MODEL 4
REMARK VINA RESULT:      -8.7      3.630      5.467
REMARK  5 active torsions:
REMARK  status: ('A' for Active; 'I' for Inactive)
REMARK    1  A    between atoms: C1_2  and  C2_3 
REMARK       I    between atoms: C1_2  and  N4_22 
REMARK    2  A    between atoms: C2_3  and  C3_4 
REMARK    3  A    between atoms: C4_5  and  C5_6 
REMARK    4  A    between atoms: C5_6  and  N1_7 
REMARK    5  A    between atoms: N4_22  and  C16_23 
ROOT
HETATM    1  C3  UNL     1      22.356   3.652  52.162  1.00  0.00    -0.096 C 
HETATM    2  C4  UNL     1      21.384   2.938  52.332  1.00  0.00    -0.087 C 
ENDROOT
BRANCH   2   3
HETATM    3  C5  UNL     1      20.212   2.062  52.515  1.00  0.00     0.211 C 
BRANCH   3   4
HETATM    4  N1  UNL     1      20.439   0.806  51.837  1.00  0.00    -0.398 N 
HETATM    5  C6  UNL     1      19.482   0.391  50.907  1.00  0.00     0.145 C 
HETATM    6  C7  UNL     1      19.415   1.402  49.748  1.00  0.00    -0.011 C 
HETATM    7  C8  UNL     1      18.215   2.035  49.586  1.00  0.00    -0.017 C 
HETATM    8  C9  UNL     1      17.257   1.548  50.614  1.00  0.00     0.086 C 
HETATM    9  C10 UNL     1      15.974   1.859  50.895  1.00  0.00     0.125 C 
HETATM   10  F1  UNL     1      14.869   2.652  50.549  1.00  0.00    -0.208 F 
HETATM   11  C11 UNL     1      15.477   0.969  51.937  1.00  0.00     0.086 C 
HETATM   12 CL1  UNL     1      13.825   1.124  52.559  1.00  0.00    -0.080 Cl
HETATM   13  C12 UNL     1      15.915  -0.069  52.687  1.00  0.00     0.144 C 
HETATM   14  N2  UNL     1      16.824  -1.026  53.147  1.00  0.00    -0.255 NA
HETATM   15  C13 UNL     1      17.997  -1.077  53.435  1.00  0.00     0.202 C 
HETATM   16  N3  UNL     1      19.342  -1.252  53.795  1.00  0.00    -0.383 N 
HETATM   17  C14 UNL     1      20.587  -0.566  53.901  1.00  0.00     0.139 C 
HETATM   18  H12 UNL     1      18.988  -2.238  53.973  1.00  0.00     0.160 HD
HETATM   19  C15 UNL     1      21.205  -0.106  52.597  1.00  0.00     0.137 C 
ENDBRANCH   3   4
ENDBRANCH   2   3
BRANCH   1  20
HETATM   20  C2  UNL     1      23.541   4.490  51.962  1.00  0.00     0.197 C 
BRANCH  20  21
HETATM   21  C1  UNL     1      24.668   3.524  51.677  1.00  0.00     0.234 C 
HETATM   22  O1  UNL     1      25.262   3.411  50.569  1.00  0.00    -0.272 OA
HETATM   23  N4  UNL     1      25.042   2.703  52.777  1.00  0.00    -0.311 N 
HETATM   24  H17 UNL     1      24.575   2.766  53.709  1.00  0.00     0.170 HD
BRANCH  23  25
HETATM   25  C16 UNL     1      26.030   1.683  52.926  1.00  0.00     0.130 A 
HETATM   26  C17 UNL     1      26.046   0.317  52.762  1.00  0.00     0.065 A 
HETATM   27  C18 UNL     1      27.186  -0.378  52.993  1.00  0.00     0.015 A 
HETATM   28  C19 UNL     1      27.102  -1.739  52.801  1.00  0.00     0.132 A 
HETATM   29  C21 UNL     1      28.359   0.224  53.393  1.00  0.00     0.087 A 
HETATM   30  N5  UNL     1      28.195  -2.502  53.008  1.00  0.00    -0.253 NA
HETATM   31  C20 UNL     1      29.342  -1.875  53.403  1.00  0.00     0.233 A 
HETATM   32  N6  UNL     1      29.456  -0.529  53.603  1.00  0.00    -0.240 NA
HETATM   33  C22 UNL     1      28.319   1.599  53.551  1.00  0.00     0.151 A 
HETATM   34  N7  UNL     1      27.187   2.297  53.322  1.00  0.00    -0.241 NA
ENDBRANCH  23  25
ENDBRANCH  20  21
ENDBRANCH   1  20
TORSDOF 5
ENDMDL
MODEL 5
REMARK VINA RESULT:      -8.6      5.585      7.531
REMARK  5 active torsions:
REMARK  status: ('A' for Active; 'I' for Inactive)
REMARK    1  A    between atoms: C1_2  and  C2_3 
REMARK       I    between atoms: C1_2  and  N4_22 
REMARK    2  A    between atoms: C2_3  and  C3_4 
REMARK    3  A    between atoms: C4_5  and  C5_6 
REMARK    4  A    between atoms: C5_6  and  N1_7 
REMARK    5  A    between atoms: N4_22  and  C16_23 
ROOT
HETATM    1  C3  UNL     1      25.409   5.504  48.942  1.00  0.00    -0.096 C 
HETATM    2  C4  UNL     1      24.519   4.720  49.222  1.00  0.00    -0.087 C 
ENDROOT
BRANCH   2   3
HETATM    3  C5  UNL     1      23.424   3.789  49.551  1.00  0.00     0.211 C 
BRANCH   3   4
HETATM    4  N1  UNL     1      22.373   4.505  50.238  1.00  0.00    -0.398 N 
HETATM    5  C6  UNL     1      22.177   4.222  51.593  1.00  0.00     0.145 C 
HETATM    6  C7  UNL     1      23.435   4.609  52.390  1.00  0.00    -0.011 C 
HETATM    7  C8  UNL     1      24.066   3.581  53.033  1.00  0.00    -0.017 C 
HETATM    8  C9  UNL     1      23.328   2.314  52.781  1.00  0.00     0.086 C 
HETATM    9  C10 UNL     1      23.537   1.037  53.163  1.00  0.00     0.125 C 
HETATM   10  F1  UNL     1      24.369   0.161  53.877  1.00  0.00    -0.208 F 
HETATM   11  C11 UNL     1      22.414   0.214  52.736  1.00  0.00     0.086 C 
HETATM   12 CL1  UNL     1      22.383  -1.529  53.061  1.00  0.00    -0.080 Cl
HETATM   13  C12 UNL     1      21.234   0.353  52.088  1.00  0.00     0.144 C 
HETATM   14  N2  UNL     1      20.211   1.028  51.415  1.00  0.00    -0.255 NA
HETATM   15  C13 UNL     1      20.115   1.886  50.569  1.00  0.00     0.202 C 
HETATM   16  N3  UNL     1      19.883   2.873  49.597  1.00  0.00    -0.383 N 
HETATM   17  C14 UNL     1      20.547   3.779  48.720  1.00  0.00     0.139 C 
HETATM   18  H12 UNL     1      18.877   2.621  49.828  1.00  0.00     0.160 HD
HETATM   19  C15 UNL     1      21.319   4.899  49.384  1.00  0.00     0.137 C 
ENDBRANCH   3   4
ENDBRANCH   2   3
BRANCH   1  20
HETATM   20  C2  UNL     1      26.473   6.443  48.582  1.00  0.00     0.197 C 
BRANCH  20  21
HETATM   21  C1  UNL     1      27.742   5.624  48.576  1.00  0.00     0.234 C 
HETATM   22  O1  UNL     1      27.792   4.366  48.658  1.00  0.00    -0.272 OA
HETATM   23  N4  UNL     1      28.941   6.382  48.473  1.00  0.00    -0.311 N 
HETATM   24  H17 UNL     1      28.942   7.424  48.404  1.00  0.00     0.170 HD
BRANCH  23  25
HETATM   25  C16 UNL     1      30.319   6.008  48.439  1.00  0.00     0.130 A 
HETATM   26  C17 UNL     1      31.028   4.969  47.881  1.00  0.00     0.065 A 
HETATM   27  C18 UNL     1      32.372   4.906  48.040  1.00  0.00     0.015 A 
HETATM   28  C19 UNL     1      32.992   3.831  47.443  1.00  0.00     0.132 A 
HETATM   29  C21 UNL     1      33.085   5.849  48.748  1.00  0.00     0.087 A 
HETATM   30  N5  UNL     1      34.329   3.697  47.554  1.00  0.00    -0.253 NA
HETATM   31  C20 UNL     1      35.007   4.648  48.262  1.00  0.00     0.233 A 
HETATM   32  N6  UNL     1      34.421   5.724  48.865  1.00  0.00    -0.240 NA
HETATM   33  C22 UNL     1      32.351   6.884  49.301  1.00  0.00     0.151 A 
HETATM   34  N7  UNL     1      31.012   6.953  49.146  1.00  0.00    -0.241 NA
ENDBRANCH  23  25
ENDBRANCH  20  21
ENDBRANCH   1  20
TORSDOF 5
ENDMDL
MODEL 6
REMARK VINA RESULT:      -8.5      2.152      2.632
REMARK  5 active torsions:
REMARK  status: ('A' for Active; 'I' for Inactive)
REMARK    1  A    between atoms: C1_2  and  C2_3 
REMARK       I    between atoms: C1_2  and  N4_22 
REMARK    2  A    between atoms: C2_3  and  C3_4 
REMARK    3  A    between atoms: C4_5  and  C5_6 
REMARK    4  A    between atoms: C5_6  and  N1_7 
REMARK    5  A    between atoms: N4_22  and  C16_23 
ROOT
HETATM    1  C3  UNL     1      21.056   1.396  52.633  1.00  0.00    -0.096 C 
HETATM    2  C4  UNL     1      21.264   2.184  51.727  1.00  0.00    -0.087 C 
ENDROOT
BRANCH   2   3
HETATM    3  C5  UNL     1      21.539   3.128  50.628  1.00  0.00     0.211 C 
BRANCH   3   4
HETATM    4  N1  UNL     1      22.189   2.428  49.544  1.00  0.00    -0.398 N 
HETATM    5  C6  UNL     1      23.476   2.840  49.187  1.00  0.00     0.145 C 
HETATM    6  C7  UNL     1      24.437   2.615  50.367  1.00  0.00    -0.011 C 
HETATM    7  C8  UNL     1      25.023   3.740  50.874  1.00  0.00    -0.017 C 
HETATM    8  C9  UNL     1      24.557   4.927  50.109  1.00  0.00     0.086 C 
HETATM    9  C10 UNL     1      24.814   6.247  50.214  1.00  0.00     0.125 C 
HETATM   10  F1  UNL     1      25.509   7.242  50.920  1.00  0.00    -0.208 F 
HETATM   11  C11 UNL     1      24.184   6.953  49.106  1.00  0.00     0.086 C 
HETATM   12 CL1  UNL     1      24.308   8.716  48.957  1.00  0.00    -0.080 Cl
HETATM   13  C12 UNL     1      23.437   6.677  48.013  1.00  0.00     0.144 C 
HETATM   14  N2  UNL     1      22.741   5.875  47.103  1.00  0.00    -0.255 NA
HETATM   15  C13 UNL     1      21.990   4.928  47.141  1.00  0.00     0.202 C 
HETATM   16  N3  UNL     1      21.115   3.833  47.064  1.00  0.00    -0.383 N 
HETATM   17  C14 UNL     1      20.418   2.880  47.863  1.00  0.00     0.139 C 
HETATM   18  H12 UNL     1      21.211   4.047  46.028  1.00  0.00     0.160 HD
HETATM   19  C15 UNL     1      21.279   1.883  48.610  1.00  0.00     0.137 C 
ENDBRANCH   3   4
ENDBRANCH   2   3
BRANCH   1  20
HETATM   20  C2  UNL     1      20.807   0.429  53.705  1.00  0.00     0.197 C 
BRANCH  20  21
HETATM   21  C1  UNL     1      22.170  -0.091  54.096  1.00  0.00     0.234 C 
HETATM   22  O1  UNL     1      22.390  -0.922  55.019  1.00  0.00    -0.272 OA
HETATM   23  N4  UNL     1      23.250   0.435  53.334  1.00  0.00    -0.311 N 
HETATM   24  H17 UNL     1      23.109   1.125  52.563  1.00  0.00     0.170 HD
BRANCH  23  25
HETATM   25  C16 UNL     1      24.660   0.215  53.382  1.00  0.00     0.130 A 
HETATM   26  C17 UNL     1      25.479  -0.873  53.191  1.00  0.00     0.065 A 
HETATM   27  C18 UNL     1      26.822  -0.739  53.314  1.00  0.00     0.015 A 
HETATM   28  C19 UNL     1      27.557  -1.885  53.102  1.00  0.00     0.132 A 
HETATM   29  C21 UNL     1      27.427   0.458  53.630  1.00  0.00     0.087 A 
HETATM   30  N5  UNL     1      28.900  -1.834  53.204  1.00  0.00    -0.253 NA
HETATM   31  C20 UNL     1      29.469  -0.633  53.518  1.00  0.00     0.233 A 
HETATM   32  N6  UNL     1      28.768   0.519  53.735  1.00  0.00    -0.240 NA
HETATM   33  C22 UNL     1      26.583   1.540  53.819  1.00  0.00     0.151 A 
HETATM   34  N7  UNL     1      25.245   1.412  53.697  1.00  0.00    -0.241 NA
ENDBRANCH  23  25
ENDBRANCH  20  21
ENDBRANCH   1  20
TORSDOF 5
ENDMDL
MODEL 7
REMARK VINA RESULT:      -8.4      4.975      7.788
REMARK  5 active torsions:
REMARK  status: ('A' for Active; 'I' for Inactive)
REMARK    1  A    between atoms: C1_2  and  C2_3 
REMARK       I    between atoms: C1_2  and  N4_22 
REMARK    2  A    between atoms: C2_3  and  C3_4 
REMARK    3  A    between atoms: C4_5  and  C5_6 
REMARK    4  A    between atoms: C5_6  and  N1_7 
REMARK    5  A    between atoms: N4_22  and  C16_23 
ROOT
HETATM    1  C3  UNL     1      21.786   6.079  51.022  1.00  0.00    -0.096 C 
HETATM    2  C4  UNL     1      22.084   4.943  51.348  1.00  0.00    -0.087 C 
ENDROOT
BRANCH   2   3
HETATM    3  C5  UNL     1      22.464   3.579  51.756  1.00  0.00     0.211 C 
BRANCH   3   4
HETATM    4  N1  UNL     1      22.941   2.847  50.605  1.00  0.00    -0.398 N 
HETATM    5  C6  UNL     1      22.642   1.484  50.535  1.00  0.00     0.145 C 
HETATM    6  C7  UNL     1      21.117   1.293  50.457  1.00  0.00    -0.011 C 
HETATM    7  C8  UNL     1      20.554   0.603  51.493  1.00  0.00    -0.017 C 
HETATM    8  C9  UNL     1      21.617   0.201  52.453  1.00  0.00     0.086 C 
HETATM    9  C10 UNL     1      21.592  -0.468  53.625  1.00  0.00     0.125 C 
HETATM   10  F1  UNL     1      20.787  -1.111  54.578  1.00  0.00    -0.208 F 
HETATM   11  C11 UNL     1      22.957  -0.700  54.079  1.00  0.00     0.086 C 
HETATM   12 CL1  UNL     1      23.282  -1.539  55.607  1.00  0.00    -0.080 Cl
HETATM   13  C12 UNL     1      24.224  -0.455  53.672  1.00  0.00     0.144 C 
HETATM   14  N2  UNL     1      25.231   0.028  52.830  1.00  0.00    -0.255 NA
HETATM   15  C13 UNL     1      25.445   1.020  52.172  1.00  0.00     0.202 C 
HETATM   16  N3  UNL     1      25.796   2.119  51.375  1.00  0.00    -0.383 N 
HETATM   17  C14 UNL     1      25.340   3.397  50.940  1.00  0.00     0.139 C 
HETATM   18  H12 UNL     1      26.654   1.512  51.215  1.00  0.00     0.160 HD
HETATM   19  C15 UNL     1      24.117   3.396  50.046  1.00  0.00     0.137 C 
ENDBRANCH   3   4
ENDBRANCH   2   3
BRANCH   1  20
HETATM   20  C2  UNL     1      21.422   7.449  50.655  1.00  0.00     0.197 C 
BRANCH  20  21
HETATM   21  C1  UNL     1      22.645   8.017  49.974  1.00  0.00     0.234 C 
HETATM   22  O1  UNL     1      22.643   9.002  49.186  1.00  0.00    -0.272 OA
HETATM   23  N4  UNL     1      23.862   7.347  50.278  1.00  0.00    -0.311 N 
HETATM   24  H17 UNL     1      23.905   6.528  50.925  1.00  0.00     0.170 HD
BRANCH  23  25
HETATM   25  C16 UNL     1      25.209   7.555  49.854  1.00  0.00     0.130 A 
HETATM   26  C17 UNL     1      26.153   8.534  50.066  1.00  0.00     0.065 A 
HETATM   27  C18 UNL     1      27.378   8.425  49.498  1.00  0.00     0.015 A 
HETATM   28  C19 UNL     1      28.254   9.453  49.772  1.00  0.00     0.132 A 
HETATM   29  C21 UNL     1      27.740   7.363  48.699  1.00  0.00     0.087 A 
HETATM   30  N5  UNL     1      29.495   9.419  49.245  1.00  0.00    -0.253 NA
HETATM   31  C20 UNL     1      29.822   8.352  48.458  1.00  0.00     0.233 A 
HETATM   32  N6  UNL     1      28.977   7.319  48.168  1.00  0.00    -0.240 NA
HETATM   33  C22 UNL     1      26.774   6.390  48.499  1.00  0.00     0.151 A 
HETATM   34  N7  UNL     1      25.552   6.492  49.062  1.00  0.00    -0.241 NA
ENDBRANCH  23  25
ENDBRANCH  20  21
ENDBRANCH   1  20
TORSDOF 5
ENDMDL
MODEL 8
REMARK VINA RESULT:      -8.4      7.329     10.336
REMARK  5 active torsions:
REMARK  status: ('A' for Active; 'I' for Inactive)
REMARK    1  A    between atoms: C1_2  and  C2_3 
REMARK       I    between atoms: C1_2  and  N4_22 
REMARK    2  A    between atoms: C2_3  and  C3_4 
REMARK    3  A    between atoms: C4_5  and  C5_6 
REMARK    4  A    between atoms: C5_6  and  N1_7 
REMARK    5  A    between atoms: N4_22  and  C16_23 
ROOT
HETATM    1  C3  UNL     1      27.829   5.584  48.667  1.00  0.00    -0.096 C 
HETATM    2  C4  UNL     1      28.993   5.921  48.541  1.00  0.00    -0.087 C 
ENDROOT
BRANCH   2   3
HETATM    3  C5  UNL     1      30.393   6.353  48.382  1.00  0.00     0.211 C 
BRANCH   3   4
HETATM    4  N1  UNL     1      30.613   6.781  47.019  1.00  0.00    -0.398 N 
HETATM    5  C6  UNL     1      31.751   6.301  46.366  1.00  0.00     0.145 C 
HETATM    6  C7  UNL     1      31.666   4.770  46.236  1.00  0.00    -0.011 C 
HETATM    7  C8  UNL     1      32.647   4.067  46.876  1.00  0.00    -0.017 C 
HETATM    8  C9  UNL     1      33.576   5.016  47.547  1.00  0.00     0.086 C 
HETATM    9  C10 UNL     1      34.676   4.841  48.309  1.00  0.00     0.125 C 
HETATM   10  F1  UNL     1      35.544   3.909  48.898  1.00  0.00    -0.208 F 
HETATM   11  C11 UNL     1      35.278   6.137  48.594  1.00  0.00     0.086 C 
HETATM   12 CL1  UNL     1      36.734   6.267  49.598  1.00  0.00    -0.080 Cl
HETATM   13  C12 UNL     1      35.067   7.444  48.315  1.00  0.00     0.144 C 
HETATM   14  N2  UNL     1      34.419   8.548  47.753  1.00  0.00    -0.255 NA
HETATM   15  C13 UNL     1      33.283   8.929  47.591  1.00  0.00     0.202 C 
HETATM   16  N3  UNL     1      32.010   9.468  47.348  1.00  0.00    -0.383 N 
HETATM   17  C14 UNL     1      30.618   9.213  47.522  1.00  0.00     0.139 C 
HETATM   18  H12 UNL     1      32.605  10.240  46.926  1.00  0.00     0.160 HD
HETATM   19  C15 UNL     1      30.054   8.048  46.737  1.00  0.00     0.137 C 
ENDBRANCH   3   4
ENDBRANCH   2   3
BRANCH   1  20
HETATM   20  C2  UNL     1      26.428   5.194  48.839  1.00  0.00     0.197 C 
BRANCH  20  21
HETATM   21  C1  UNL     1      26.470   3.847  49.522  1.00  0.00     0.234 C 
HETATM   22  O1  UNL     1      27.100   2.840  49.097  1.00  0.00    -0.272 OA
HETATM   23  N4  UNL     1      25.720   3.766  50.728  1.00  0.00    -0.311 N 
HETATM   24  H17 UNL     1      25.185   4.577  51.112  1.00  0.00     0.170 HD
BRANCH  23  25
HETATM   25  C16 UNL     1      25.498   2.703  51.654  1.00  0.00     0.130 A 
HETATM   26  C17 UNL     1      26.223   2.143  52.681  1.00  0.00     0.065 A 
HETATM   27  C18 UNL     1      25.705   1.110  53.389  1.00  0.00     0.015 A 
HETATM   28  C19 UNL     1      26.506   0.619  54.397  1.00  0.00     0.132 A 
HETATM   29  C21 UNL     1      24.462   0.576  53.131  1.00  0.00     0.087 A 
HETATM   30  N5  UNL     1      26.062  -0.408  55.149  1.00  0.00    -0.253 NA
HETATM   31  C20 UNL     1      24.825  -0.914  54.868  1.00  0.00     0.233 A 
HETATM   32  N6  UNL     1      24.009  -0.450  53.876  1.00  0.00    -0.240 NA
HETATM   33  C22 UNL     1      23.750   1.155  52.093  1.00  0.00     0.151 A 
HETATM   34  N7  UNL     1      24.260   2.184  51.384  1.00  0.00    -0.241 NA
ENDBRANCH  23  25
ENDBRANCH  20  21
ENDBRANCH   1  20
TORSDOF 5
ENDMDL
MODEL 9
REMARK VINA RESULT:      -8.0      5.466      7.465
REMARK  5 active torsions:
REMARK  status: ('A' for Active; 'I' for Inactive)
REMARK    1  A    between atoms: C1_2  and  C2_3 
REMARK       I    between atoms: C1_2  and  N4_22 
REMARK    2  A    between atoms: C2_3  and  C3_4 
REMARK    3  A    between atoms: C4_5  and  C5_6 
REMARK    4  A    between atoms: C5_6  and  N1_7 
REMARK    5  A    between atoms: N4_22  and  C16_23 
ROOT
HETATM    1  C3  UNL     1      24.166   6.099  48.505  1.00  0.00    -0.096 C 
HETATM    2  C4  UNL     1      23.675   5.018  48.778  1.00  0.00    -0.087 C 
ENDROOT
BRANCH   2   3
HETATM    3  C5  UNL     1      23.086   3.702  49.085  1.00  0.00     0.211 C 
BRANCH   3   4
HETATM    4  N1  UNL     1      21.777   3.883  49.669  1.00  0.00    -0.398 N 
HETATM    5  C6  UNL     1      21.684   3.877  51.064  1.00  0.00     0.145 C 
HETATM    6  C7  UNL     1      22.485   5.058  51.640  1.00  0.00    -0.011 C 
HETATM    7  C8  UNL     1      23.532   4.721  52.452  1.00  0.00    -0.017 C 
HETATM    8  C9  UNL     1      23.610   3.240  52.567  1.00  0.00     0.086 C 
HETATM    9  C10 UNL     1      24.452   2.413  53.221  1.00  0.00     0.125 C 
HETATM   10  F1  UNL     1      25.582   2.323  54.049  1.00  0.00    -0.208 F 
HETATM   11  C11 UNL     1      23.978   1.041  53.094  1.00  0.00     0.086 C 
HETATM   12 CL1  UNL     1      24.873  -0.306  53.822  1.00  0.00    -0.080 Cl
HETATM   13  C12 UNL     1      22.950   0.364  52.532  1.00  0.00     0.144 C 
HETATM   14  N2  UNL     1      21.767   0.198  51.806  1.00  0.00    -0.255 NA
HETATM   15  C13 UNL     1      21.273   0.636  50.793  1.00  0.00     0.202 C 
HETATM   16  N3  UNL     1      20.604   1.073  49.639  1.00  0.00    -0.383 N 
HETATM   17  C14 UNL     1      20.725   1.949  48.521  1.00  0.00     0.139 C 
HETATM   18  H12 UNL     1      19.881   0.387  50.005  1.00  0.00     0.160 HD
HETATM   19  C15 UNL     1      20.729   3.430  48.837  1.00  0.00     0.137 C 
ENDBRANCH   3   4
ENDBRANCH   2   3
BRANCH   1  20
HETATM   20  C2  UNL     1      24.780   7.387  48.176  1.00  0.00     0.197 C 
BRANCH  20  21
HETATM   21  C1  UNL     1      26.149   7.351  48.816  1.00  0.00     0.234 C 
HETATM   22  O1  UNL     1      26.384   7.582  50.033  1.00  0.00    -0.272 OA
HETATM   23  N4  UNL     1      27.213   7.031  47.929  1.00  0.00    -0.311 N 
HETATM   24  H17 UNL     1      27.059   6.834  46.915  1.00  0.00     0.170 HD
BRANCH  23  25
HETATM   25  C16 UNL     1      28.622   6.900  48.122  1.00  0.00     0.130 A 
HETATM   26  C17 UNL     1      29.531   5.879  47.971  1.00  0.00     0.065 A 
HETATM   27  C18 UNL     1      30.840   6.092  48.249  1.00  0.00     0.015 A 
HETATM   28  C19 UNL     1      31.671   5.009  48.065  1.00  0.00     0.132 A 
HETATM   29  C21 UNL     1      31.323   7.307  48.684  1.00  0.00     0.087 A 
HETATM   30  N5  UNL     1      32.990   5.141  48.318  1.00  0.00    -0.253 NA
HETATM   31  C20 UNL     1      33.436   6.358  48.748  1.00  0.00     0.233 A 
HETATM   32  N6  UNL     1      32.637   7.449  48.940  1.00  0.00    -0.240 NA
HETATM   33  C22 UNL     1      30.390   8.320  48.829  1.00  0.00     0.151 A 
HETATM   34  N7  UNL     1      29.085   8.114  48.554  1.00  0.00    -0.241 NA
ENDBRANCH  23  25
ENDBRANCH  20  21
ENDBRANCH   1  20
TORSDOF 5
ENDMDL
