MODEL 1
REMARK VINA RESULT:      -7.8      0.000      0.000
REMARK  2 active torsions:
REMARK  status: ('A' for Active; 'I' for Inactive)
REMARK       I    between atoms: N1_1  and  C1_2 
REMARK       I    between atoms: C1_2  and  N2_4 
REMARK    1  A    between atoms: N2_4  and  C2_5 
REMARK    2  A    between atoms: C3_6  and  N3_7 
ROOT
HETATM    1  C2  UNL     1      23.936   2.238  52.632  1.00  0.00     0.047 A 
HETATM    2  C3  UNL     1      24.292   1.024  53.047  1.00  0.00     0.070 A 
HETATM    3  C9  UNL     1      23.040   0.323  53.300  1.00  0.00     0.035 A 
HETATM    4  C10 UNL     1      22.633  -0.922  53.730  1.00  0.00     0.134 A 
HETATM    5  N4  UNL     1      21.352  -1.308  53.873  1.00  0.00    -0.253 NA
HETATM    6  C11 UNL     1      20.380  -0.456  53.589  1.00  0.00     0.232 A 
HETATM    7  N5  UNL     1      20.662   0.782  53.162  1.00  0.00    -0.245 NA
HETATM    8  C12 UNL     1      21.952   1.125  53.034  1.00  0.00     0.055 A 
HETATM    9  C13 UNL     1      22.464   2.435  52.581  1.00  0.00     0.119 A 
ENDROOT
BRANCH   1  10
HETATM   10  N2  UNL     1      24.802   3.295  52.256  1.00  0.00    -0.310 N 
HETATM   11  C1  UNL     1      25.164   3.559  50.906  1.00  0.00     0.318 C 
HETATM   12  N1  UNL     1      26.015   4.579  50.407  1.00  0.00    -0.352 N 
HETATM   13  O1  UNL     1      24.709   2.836  49.961  1.00  0.00    -0.247 OA
HETATM   14  H1  UNL     1      25.869   5.576  50.085  1.00  0.00     0.160 HD
HETATM   15  H2  UNL     1      27.020   4.264  50.346  1.00  0.00     0.160 HD
HETATM   16  H3  UNL     1      25.300   4.017  52.820  1.00  0.00     0.170 HD
ENDBRANCH   1  10
BRANCH   2  17
HETATM   17  N3  UNL     1      25.583   0.450  53.230  1.00  0.00    -0.344 N 
HETATM   18  C4  UNL     1      26.144   0.269  54.555  1.00  0.00     0.153 C 
HETATM   19  C5  UNL     1      27.646   0.203  54.546  1.00  0.00    -0.011 C 
HETATM   20  C6  UNL     1      28.288  -0.522  53.637  1.00  0.00    -0.025 C 
HETATM   21  C7  UNL     1      27.284  -1.182  52.727  1.00  0.00     0.086 C 
HETATM   22  C8  UNL     1      26.464  -0.007  52.171  1.00  0.00     0.275 C 
HETATM   23  F1  UNL     1      27.431   0.989  51.965  1.00  0.00    -0.227 F 
ENDBRANCH   2  17
TORSDOF 2
ENDMDL
MODEL 2
REMARK VINA RESULT:      -7.4      2.664      5.821
REMARK  2 active torsions:
REMARK  status: ('A' for Active; 'I' for Inactive)
REMARK       I    between atoms: N1_1  and  C1_2 
REMARK       I    between atoms: C1_2  and  N2_4 
REMARK    1  A    between atoms: N2_4  and  C2_5 
REMARK    2  A    between atoms: C3_6  and  N3_7 
ROOT
HETATM    1  C2  UNL     1      24.270  -0.050  53.630  1.00  0.00     0.047 A 
HETATM    2  C3  UNL     1      24.777   1.093  53.173  1.00  0.00     0.070 A 
HETATM    3  C9  UNL     1      26.158   1.112  53.638  1.00  0.00     0.035 A 
HETATM    4  C10 UNL     1      27.255   1.943  53.553  1.00  0.00     0.134 A 
HETATM    5  N4  UNL     1      28.456   1.693  54.104  1.00  0.00    -0.253 NA
HETATM    6  C11 UNL     1      28.640   0.573  54.786  1.00  0.00     0.232 A 
HETATM    7  N5  UNL     1      27.641  -0.307  54.931  1.00  0.00    -0.245 NA
HETATM    8  C12 UNL     1      26.459  -0.017  54.366  1.00  0.00     0.055 A 
HETATM    9  C13 UNL     1      25.242  -0.855  54.414  1.00  0.00     0.119 A 
ENDROOT
BRANCH   1  10
HETATM   10  N2  UNL     1      22.950  -0.531  53.438  1.00  0.00    -0.310 N 
HETATM   11  C1  UNL     1      22.179  -1.118  54.479  1.00  0.00     0.318 C 
HETATM   12  N1  UNL     1      20.859  -1.633  54.412  1.00  0.00    -0.352 N 
HETATM   13  O1  UNL     1      22.660  -1.235  55.653  1.00  0.00    -0.247 OA
HETATM   14  H1  UNL     1      19.894  -1.221  54.550  1.00  0.00     0.160 HD
HETATM   15  H2  UNL     1      20.844  -2.659  54.171  1.00  0.00     0.160 HD
HETATM   16  H3  UNL     1      22.337  -0.555  52.595  1.00  0.00     0.170 HD
ENDBRANCH   1  10
BRANCH   2  17
HETATM   17  N3  UNL     1      24.179   2.125  52.393  1.00  0.00    -0.344 N 
HETATM   18  C4  UNL     1      23.929   3.440  52.952  1.00  0.00     0.153 C 
HETATM   19  C5  UNL     1      22.832   4.176  52.234  1.00  0.00    -0.011 C 
HETATM   20  C6  UNL     1      22.778   4.188  50.907  1.00  0.00    -0.025 C 
HETATM   21  C7  UNL     1      23.930   3.388  50.356  1.00  0.00     0.086 C 
HETATM   22  C8  UNL     1      23.764   2.006  51.009  1.00  0.00     0.275 C 
HETATM   23  F1  UNL     1      22.374   1.813  50.998  1.00  0.00    -0.227 F 
ENDBRANCH   2  17
TORSDOF 2
ENDMDL
MODEL 3
REMARK VINA RESULT:      -7.3      2.057      4.751
REMARK  2 active torsions:
REMARK  status: ('A' for Active; 'I' for Inactive)
REMARK       I    between atoms: N1_1  and  C1_2 
REMARK       I    between atoms: C1_2  and  N2_4 
REMARK    1  A    between atoms: N2_4  and  C2_5 
REMARK    2  A    between atoms: C3_6  and  N3_7 
ROOT
HETATM    1  C2  UNL     1      25.175   2.150  53.396  1.00  0.00     0.047 A 
HETATM    2  C3  UNL     1      24.644   0.931  53.335  1.00  0.00     0.070 A 
HETATM    3  C9  UNL     1      25.780   0.023  53.237  1.00  0.00     0.035 A 
HETATM    4  C10 UNL     1      25.999  -1.334  53.144  1.00  0.00     0.134 A 
HETATM    5  N4  UNL     1      27.210  -1.916  53.066  1.00  0.00    -0.253 NA
HETATM    6  C11 UNL     1      28.297  -1.161  53.078  1.00  0.00     0.232 A 
HETATM    7  N5  UNL     1      28.200   0.172  53.165  1.00  0.00    -0.245 NA
HETATM    8  C12 UNL     1      26.973   0.710  53.240  1.00  0.00     0.055 A 
HETATM    9  C13 UNL     1      26.659   2.151  53.342  1.00  0.00     0.119 A 
ENDROOT
BRANCH   1  10
HETATM   10  N2  UNL     1      24.473   3.378  53.503  1.00  0.00    -0.310 N 
HETATM   11  C1  UNL     1      24.003   4.103  52.373  1.00  0.00     0.318 C 
HETATM   12  N1  UNL     1      23.295   5.333  52.350  1.00  0.00    -0.352 N 
HETATM   13  O1  UNL     1      24.200   3.663  51.193  1.00  0.00    -0.247 OA
HETATM   14  H1  UNL     1      22.272   5.600  52.376  1.00  0.00     0.160 HD
HETATM   15  H2  UNL     1      23.942   6.163  52.293  1.00  0.00     0.160 HD
HETATM   16  H3  UNL     1      24.188   3.944  54.331  1.00  0.00     0.170 HD
ENDBRANCH   1  10
BRANCH   2  17
HETATM   17  N3  UNL     1      23.282   0.512  53.357  1.00  0.00    -0.344 N 
HETATM   18  C4  UNL     1      22.812  -0.463  54.323  1.00  0.00     0.153 C 
HETATM   19  C5  UNL     1      21.576  -1.186  53.864  1.00  0.00    -0.011 C 
HETATM   20  C6  UNL     1      20.570  -0.522  53.306  1.00  0.00    -0.025 C 
HETATM   21  C7  UNL     1      20.913   0.944  53.246  1.00  0.00     0.086 C 
HETATM   22  C8  UNL     1      22.238   0.980  52.466  1.00  0.00     0.275 C 
HETATM   23  F1  UNL     1      22.054  -0.000  51.478  1.00  0.00    -0.227 F 
ENDBRANCH   2  17
TORSDOF 2
ENDMDL
MODEL 4
REMARK VINA RESULT:      -7.3      2.608      5.865
REMARK  2 active torsions:
REMARK  status: ('A' for Active; 'I' for Inactive)
REMARK       I    between atoms: N1_1  and  C1_2 
REMARK       I    between atoms: C1_2  and  N2_4 
REMARK    1  A    between atoms: N2_4  and  C2_5 
REMARK    2  A    between atoms: C3_6  and  N3_7 
ROOT
HETATM    1  C2  UNL     1      24.080  -0.151  53.561  1.00  0.00     0.047 A 
HETATM    2  C3  UNL     1      24.525   1.014  53.097  1.00  0.00     0.070 A 
HETATM    3  C9  UNL     1      25.906   1.106  53.555  1.00  0.00     0.035 A 
HETATM    4  C10 UNL     1      26.958   1.992  53.463  1.00  0.00     0.134 A 
HETATM    5  N4  UNL     1      28.173   1.806  54.009  1.00  0.00    -0.253 NA
HETATM    6  C11 UNL     1      28.416   0.701  54.696  1.00  0.00     0.232 A 
HETATM    7  N5  UNL     1      27.464  -0.228  54.850  1.00  0.00    -0.245 NA
HETATM    8  C12 UNL     1      26.267  -0.002  54.288  1.00  0.00     0.055 A 
HETATM    9  C13 UNL     1      25.095  -0.901  54.345  1.00  0.00     0.119 A 
ENDROOT
BRANCH   1  10
HETATM   10  N2  UNL     1      22.786  -0.700  53.377  1.00  0.00    -0.310 N 
HETATM   11  C1  UNL     1      21.992  -1.193  54.449  1.00  0.00     0.318 C 
HETATM   12  N1  UNL     1      20.693  -1.761  54.393  1.00  0.00    -0.352 N 
HETATM   13  O1  UNL     1      22.427  -1.157  55.646  1.00  0.00    -0.247 OA
HETATM   14  H1  UNL     1      19.711  -1.373  54.446  1.00  0.00     0.160 HD
HETATM   15  H2  UNL     1      20.722  -2.809  54.272  1.00  0.00     0.160 HD
HETATM   16  H3  UNL     1      22.210  -0.844  52.520  1.00  0.00     0.170 HD
ENDBRANCH   1  10
BRANCH   2  17
HETATM   17  N3  UNL     1      23.873   2.010  52.314  1.00  0.00    -0.344 N 
HETATM   18  C4  UNL     1      23.399   1.721  50.974  1.00  0.00     0.153 C 
HETATM   19  C5  UNL     1      23.274   2.954  50.124  1.00  0.00    -0.011 C 
HETATM   20  C6  UNL     1      22.726   4.062  50.611  1.00  0.00    -0.025 C 
HETATM   21  C7  UNL     1      22.310   3.824  52.040  1.00  0.00     0.086 C 
HETATM   22  C8  UNL     1      23.607   3.373  52.731  1.00  0.00     0.275 C 
HETATM   23  F1  UNL     1      24.583   4.194  52.143  1.00  0.00    -0.227 F 
ENDBRANCH   2  17
TORSDOF 2
ENDMDL
MODEL 5
REMARK VINA RESULT:      -7.3      2.207      4.033
REMARK  2 active torsions:
REMARK  status: ('A' for Active; 'I' for Inactive)
REMARK       I    between atoms: N1_1  and  C1_2 
REMARK       I    between atoms: C1_2  and  N2_4 
REMARK    1  A    between atoms: N2_4  and  C2_5 
REMARK    2  A    between atoms: C3_6  and  N3_7 
ROOT
HETATM    1  C2  UNL     1      25.458   0.021  54.287  1.00  0.00     0.047 A 
HETATM    2  C3  UNL     1      24.666   0.507  53.335  1.00  0.00     0.070 A 
HETATM    3  C9  UNL     1      23.370  -0.122  53.556  1.00  0.00     0.035 A 
HETATM    4  C10 UNL     1      22.113  -0.104  52.989  1.00  0.00     0.134 A 
HETATM    5  N4  UNL     1      21.060  -0.819  53.425  1.00  0.00    -0.253 NA
HETATM    6  C11 UNL     1      21.202  -1.612  54.476  1.00  0.00     0.232 A 
HETATM    7  N5  UNL     1      22.381  -1.707  55.104  1.00  0.00    -0.245 NA
HETATM    8  C12 UNL     1      23.404  -0.977  54.636  1.00  0.00     0.055 A 
HETATM    9  C13 UNL     1      24.775  -0.944  55.187  1.00  0.00     0.119 A 
ENDROOT
BRANCH   1  10
HETATM   10  N2  UNL     1      26.824   0.334  54.497  1.00  0.00    -0.310 N 
HETATM   11  C1  UNL     1      27.889  -0.474  54.011  1.00  0.00     0.318 C 
HETATM   12  N1  UNL     1      29.286  -0.268  54.155  1.00  0.00    -0.352 N 
HETATM   13  O1  UNL     1      27.646  -1.536  53.350  1.00  0.00    -0.247 OA
HETATM   14  H1  UNL     1      30.022   0.242  53.593  1.00  0.00     0.160 HD
HETATM   15  H2  UNL     1      29.669  -0.734  55.020  1.00  0.00     0.160 HD
HETATM   16  H3  UNL     1      27.286   1.126  54.995  1.00  0.00     0.170 HD
ENDBRANCH   1  10
BRANCH   2  17
HETATM   17  N3  UNL     1      24.936   1.441  52.293  1.00  0.00    -0.344 N 
HETATM   18  C4  UNL     1      26.144   1.349  51.497  1.00  0.00     0.153 C 
HETATM   19  C5  UNL     1      26.534   2.664  50.880  1.00  0.00    -0.011 C 
HETATM   20  C6  UNL     1      25.623   3.440  50.303  1.00  0.00    -0.025 C 
HETATM   21  C7  UNL     1      24.273   2.778  50.400  1.00  0.00     0.086 C 
HETATM   22  C8  UNL     1      24.082   2.549  51.908  1.00  0.00     0.275 C 
HETATM   23  F1  UNL     1      24.619   3.715  52.478  1.00  0.00    -0.227 F 
ENDBRANCH   2  17
TORSDOF 2
ENDMDL
MODEL 6
REMARK VINA RESULT:      -7.0      2.211      4.222
REMARK  2 active torsions:
REMARK  status: ('A' for Active; 'I' for Inactive)
REMARK       I    between atoms: N1_1  and  C1_2 
REMARK       I    between atoms: C1_2  and  N2_4 
REMARK    1  A    between atoms: N2_4  and  C2_5 
REMARK    2  A    between atoms: C3_6  and  N3_7 
ROOT
HETATM    1  C2  UNL     1      24.774   0.619  52.767  1.00  0.00     0.047 A 
HETATM    2  C3  UNL     1      23.670   1.163  52.262  1.00  0.00     0.070 A 
HETATM    3  C9  UNL     1      22.569   0.401  52.838  1.00  0.00     0.035 A 
HETATM    4  C10 UNL     1      21.192   0.390  52.782  1.00  0.00     0.134 A 
HETATM    5  N4  UNL     1      20.399  -0.466  53.452  1.00  0.00    -0.253 NA
HETATM    6  C11 UNL     1      20.946  -1.383  54.235  1.00  0.00     0.232 A 
HETATM    7  N5  UNL     1      22.277  -1.463  54.364  1.00  0.00    -0.245 NA
HETATM    8  C12 UNL     1      23.029  -0.589  53.678  1.00  0.00     0.055 A 
HETATM    9  C13 UNL     1      24.505  -0.517  53.687  1.00  0.00     0.119 A 
ENDROOT
BRANCH   1  10
HETATM   10  N2  UNL     1      26.111   1.015  52.509  1.00  0.00    -0.310 N 
HETATM   11  C1  UNL     1      26.812   1.951  53.319  1.00  0.00     0.318 C 
HETATM   12  N1  UNL     1      28.141   2.424  53.166  1.00  0.00    -0.352 N 
HETATM   13  O1  UNL     1      26.249   2.479  54.333  1.00  0.00    -0.247 OA
HETATM   14  H1  UNL     1      29.087   2.105  53.513  1.00  0.00     0.160 HD
HETATM   15  H2  UNL     1      28.187   3.294  52.570  1.00  0.00     0.160 HD
HETATM   16  H3  UNL     1      26.783   0.741  51.761  1.00  0.00     0.170 HD
ENDBRANCH   1  10
BRANCH   2  17
HETATM   17  N3  UNL     1      23.503   2.253  51.359  1.00  0.00    -0.344 N 
HETATM   18  C4  UNL     1      22.969   2.048  50.026  1.00  0.00     0.153 C 
HETATM   19  C5  UNL     1      23.383   3.126  49.063  1.00  0.00    -0.011 C 
HETATM   20  C6  UNL     1      23.342   4.406  49.419  1.00  0.00    -0.025 C 
HETATM   21  C7  UNL     1      22.846   4.512  50.838  1.00  0.00     0.086 C 
HETATM   22  C8  UNL     1      23.827   3.639  51.636  1.00  0.00     0.275 C 
HETATM   23  F1  UNL     1      25.064   3.914  51.033  1.00  0.00    -0.227 F 
ENDBRANCH   2  17
TORSDOF 2
ENDMDL
MODEL 7
REMARK VINA RESULT:      -6.6      2.414      4.486
REMARK  2 active torsions:
REMARK  status: ('A' for Active; 'I' for Inactive)
REMARK       I    between atoms: N1_1  and  C1_2 
REMARK       I    between atoms: C1_2  and  N2_4 
REMARK    1  A    between atoms: N2_4  and  C2_5 
REMARK    2  A    between atoms: C3_6  and  N3_7 
ROOT
HETATM    1  C2  UNL     1      22.364   0.634  51.647  1.00  0.00     0.047 A 
HETATM    2  C3  UNL     1      23.520   1.293  51.651  1.00  0.00     0.070 A 
HETATM    3  C9  UNL     1      23.410   2.266  50.571  1.00  0.00     0.035 A 
HETATM    4  C10 UNL     1      24.182   3.257  50.004  1.00  0.00     0.134 A 
HETATM    5  N4  UNL     1      23.805   4.033  48.971  1.00  0.00    -0.253 NA
HETATM    6  C11 UNL     1      22.608   3.862  48.432  1.00  0.00     0.232 A 
HETATM    7  N5  UNL     1      21.775   2.927  48.905  1.00  0.00    -0.245 NA
HETATM    8  C12 UNL     1      22.192   2.175  49.936  1.00  0.00     0.055 A 
HETATM    9  C13 UNL     1      21.424   1.098  50.594  1.00  0.00     0.119 A 
ENDROOT
BRANCH   1  10
HETATM   10  N2  UNL     1      21.983  -0.417  52.519  1.00  0.00    -0.310 N 
HETATM   11  C1  UNL     1      21.129  -0.223  53.640  1.00  0.00     0.318 C 
HETATM   12  N1  UNL     1      20.679  -1.187  54.579  1.00  0.00    -0.352 N 
HETATM   13  O1  UNL     1      20.663   0.933  53.907  1.00  0.00    -0.247 OA
HETATM   14  H1  UNL     1      19.847  -1.837  54.634  1.00  0.00     0.160 HD
HETATM   15  H2  UNL     1      21.325  -1.265  55.409  1.00  0.00     0.160 HD
HETATM   16  H3  UNL     1      22.219  -1.433  52.525  1.00  0.00     0.170 HD
ENDBRANCH   1  10
BRANCH   2  17
HETATM   17  N3  UNL     1      24.664   1.152  52.489  1.00  0.00    -0.344 N 
HETATM   18  C4  UNL     1      25.062   2.207  53.401  1.00  0.00     0.153 C 
HETATM   19  C5  UNL     1      26.522   2.147  53.755  1.00  0.00    -0.011 C 
HETATM   20  C6  UNL     1      27.100   0.991  54.059  1.00  0.00    -0.025 C 
HETATM   21  C7  UNL     1      26.078  -0.113  53.975  1.00  0.00     0.086 C 
HETATM   22  C8  UNL     1      25.537  -0.005  52.540  1.00  0.00     0.275 C 
HETATM   23  F1  UNL     1      26.684   0.295  51.788  1.00  0.00    -0.227 F 
ENDBRANCH   2  17
TORSDOF 2
ENDMDL
MODEL 8
REMARK VINA RESULT:      -6.6      2.395      5.100
REMARK  2 active torsions:
REMARK  status: ('A' for Active; 'I' for Inactive)
REMARK       I    between atoms: N1_1  and  C1_2 
REMARK       I    between atoms: C1_2  and  N2_4 
REMARK    1  A    between atoms: N2_4  and  C2_5 
REMARK    2  A    between atoms: C3_6  and  N3_7 
ROOT
HETATM    1  C2  UNL     1      23.327   1.121  51.953  1.00  0.00     0.047 A 
HETATM    2  C3  UNL     1      24.315   2.012  51.919  1.00  0.00     0.070 A 
HETATM    3  C9  UNL     1      25.268   1.566  52.928  1.00  0.00     0.035 A 
HETATM    4  C10 UNL     1      26.484   1.969  53.436  1.00  0.00     0.134 A 
HETATM    5  N4  UNL     1      27.163   1.332  54.408  1.00  0.00    -0.253 NA
HETATM    6  C11 UNL     1      26.657   0.232  54.942  1.00  0.00     0.232 A 
HETATM    7  N5  UNL     1      25.480  -0.250  54.523  1.00  0.00    -0.245 NA
HETATM    8  C12 UNL     1      24.837   0.416  53.552  1.00  0.00     0.055 A 
HETATM    9  C13 UNL     1      23.534   0.047  52.958  1.00  0.00     0.119 A 
ENDROOT
BRANCH   1  10
HETATM   10  N2  UNL     1      22.158   1.118  51.150  1.00  0.00    -0.310 N 
HETATM   11  C1  UNL     1      20.976   1.828  51.498  1.00  0.00     0.318 C 
HETATM   12  N1  UNL     1      19.753   1.903  50.783  1.00  0.00    -0.352 N 
HETATM   13  O1  UNL     1      20.925   2.513  52.572  1.00  0.00    -0.247 OA
HETATM   14  H1  UNL     1      19.370   2.542  50.032  1.00  0.00     0.160 HD
HETATM   15  H2  UNL     1      19.076   1.148  51.073  1.00  0.00     0.160 HD
HETATM   16  H3  UNL     1      21.941   0.650  50.244  1.00  0.00     0.170 HD
ENDBRANCH   1  10
BRANCH   2  17
HETATM   17  N3  UNL     1      24.490   3.170  51.108  1.00  0.00    -0.344 N 
HETATM   18  C4  UNL     1      23.949   4.455  51.507  1.00  0.00     0.153 C 
HETATM   19  C5  UNL     1      23.726   5.378  50.341  1.00  0.00    -0.011 C 
HETATM   20  C6  UNL     1      24.645   5.506  49.391  1.00  0.00    -0.025 C 
HETATM   21  C7  UNL     1      25.820   4.618  49.713  1.00  0.00     0.086 C 
HETATM   22  C8  UNL     1      25.198   3.218  49.843  1.00  0.00     0.275 C 
HETATM   23  F1  UNL     1      24.237   3.199  48.819  1.00  0.00    -0.227 F 
ENDBRANCH   2  17
TORSDOF 2
ENDMDL
MODEL 9
REMARK VINA RESULT:      -6.3      9.120     10.936
REMARK  2 active torsions:
REMARK  status: ('A' for Active; 'I' for Inactive)
REMARK       I    between atoms: N1_1  and  C1_2 
REMARK       I    between atoms: C1_2  and  N2_4 
REMARK    1  A    between atoms: N2_4  and  C2_5 
REMARK    2  A    between atoms: C3_6  and  N3_7 
ROOT
HETATM    1  C2  UNL     1      30.583   8.649  49.342  1.00  0.00     0.047 A 
HETATM    2  C3  UNL     1      29.793   7.858  48.619  1.00  0.00     0.070 A 
HETATM    3  C9  UNL     1      30.576   6.652  48.379  1.00  0.00     0.035 A 
HETATM    4  C10 UNL     1      30.421   5.444  47.734  1.00  0.00     0.134 A 
HETATM    5  N4  UNL     1      31.354   4.476  47.676  1.00  0.00    -0.253 NA
HETATM    6  C11 UNL     1      32.522   4.661  48.271  1.00  0.00     0.232 A 
HETATM    7  N5  UNL     1      32.780   5.799  48.927  1.00  0.00    -0.245 NA
HETATM    8  C12 UNL     1      31.821   6.738  48.960  1.00  0.00     0.055 A 
HETATM    9  C13 UNL     1      31.913   8.053  49.628  1.00  0.00     0.119 A 
ENDROOT
BRANCH   1  10
HETATM   10  N2  UNL     1      30.270   9.943  49.831  1.00  0.00    -0.310 N 
HETATM   11  C1  UNL     1      30.556  11.135  49.111  1.00  0.00     0.318 C 
HETATM   12  N1  UNL     1      30.294  12.477  49.491  1.00  0.00    -0.352 N 
HETATM   13  O1  UNL     1      31.117  11.081  47.967  1.00  0.00    -0.247 OA
HETATM   14  H1  UNL     1      29.479  13.138  49.365  1.00  0.00     0.160 HD
HETATM   15  H2  UNL     1      31.102  12.906  50.016  1.00  0.00     0.160 HD
HETATM   16  H3  UNL     1      29.821  10.259  50.718  1.00  0.00     0.170 HD
ENDBRANCH   1  10
BRANCH   2  17
HETATM   17  N3  UNL     1      28.465   8.060  48.143  1.00  0.00    -0.344 N 
HETATM   18  C4  UNL     1      27.329   7.447  48.805  1.00  0.00     0.153 C 
HETATM   19  C5  UNL     1      26.144   7.288  47.894  1.00  0.00    -0.011 C 
HETATM   20  C6  UNL     1      25.770   8.275  47.088  1.00  0.00    -0.025 C 
HETATM   21  C7  UNL     1      26.697   9.448  47.275  1.00  0.00     0.086 C 
HETATM   22  C8  UNL     1      28.090   8.863  46.996  1.00  0.00     0.275 C 
HETATM   23  F1  UNL     1      27.860   7.988  45.922  1.00  0.00    -0.227 F 
ENDBRANCH   2  17
TORSDOF 2
ENDMDL
