MODEL 1
REMARK VINA RESULT:      -7.9      0.000      0.000
REMARK  5 active torsions:
REMARK  status: ('A' for Active; 'I' for Inactive)
REMARK       I    between atoms: C2_2  and  N1_4 
REMARK    1  A    between atoms: C6_8  and  C7_9 
REMARK    2  A    between atoms: C8_10  and  C9_11 
REMARK    3  A    between atoms: C13_17  and  N4_18 
REMARK    4  A    between atoms: N4_18  and  C14_19 
REMARK    5  A    between atoms: C14_19  and  C15_20 
ROOT
HETATM    1  C9  UNL     1      23.184   0.310  53.025  1.00  0.00     0.061 A 
HETATM    2  C10 UNL     1      24.291  -0.371  53.412  1.00  0.00     0.061 A 
HETATM    3  C11 UNL     1      25.541   0.109  53.152  1.00  0.00     0.081 A 
HETATM    4  N2  UNL     1      26.753  -0.393  53.440  1.00  0.00    -0.241 NA
HETATM    5  C12 UNL     1      27.855   0.250  53.088  1.00  0.00     0.236 A 
HETATM    6  N3  UNL     1      27.946   1.437  52.425  1.00  0.00    -0.223 NA
HETATM    7  C13 UNL     1      26.770   1.995  52.107  1.00  0.00     0.144 A 
HETATM    8  C17 UNL     1      25.579   1.326  52.474  1.00  0.00     0.080 A 
HETATM    9  S1  UNL     1      23.850   1.788  52.205  1.00  0.00    -0.075 SA
ENDROOT
BRANCH   1  10
HETATM   10  C8  UNL     1      21.807   0.020  53.179  1.00  0.00    -0.057 C 
HETATM   11  C7  UNL     1      20.650  -0.243  53.317  1.00  0.00    -0.075 C 
BRANCH  11  12
HETATM   12  C6  UNL     1      19.239  -0.586  53.495  1.00  0.00     0.167 C 
HETATM   13  N1  UNL     1      18.466  -0.337  52.306  1.00  0.00    -0.337 N 
HETATM   14  C2  UNL     1      18.944   0.277  51.122  1.00  0.00     0.216 C 
HETATM   15  C3  UNL     1      17.172  -0.888  52.735  1.00  0.00     0.127 C 
HETATM   16  C1  UNL     1      17.886   0.382  50.084  1.00  0.00     0.117 C 
HETATM   17  O1  UNL     1      20.112   0.721  50.868  1.00  0.00    -0.274 OA
HETATM   18  C4  UNL     1      17.568  -2.212  53.365  1.00  0.00     0.023 C 
HETATM   19  C5  UNL     1      19.059  -2.069  53.683  1.00  0.00     0.040 C 
ENDBRANCH  11  12
ENDBRANCH   1  10
BRANCH   7  20
HETATM   20  N4  UNL     1      26.632   3.229  51.421  1.00  0.00    -0.370 N 
HETATM   21  H13 UNL     1      26.659   4.138  51.920  1.00  0.00     0.161 HD
BRANCH  20  22
HETATM   22  C14 UNL     1      26.450   3.189  49.987  1.00  0.00     0.150 C 
BRANCH  22  23
HETATM   23  C15 UNL     1      25.929   4.508  49.551  1.00  0.00     0.017 C 
HETATM   24  C16 UNL     1      26.512   5.514  48.929  1.00  0.00     0.028 A 
HETATM   25  P1  UNL     1      27.214   6.976  48.071  1.00  0.00    -0.040 P 
HETATM   26 CL1  UNL     1      28.211   5.124  48.605  1.00  0.00    -0.158 Cl
HETATM   27  H17 UNL     1      26.577   7.181  46.782  1.00  0.00     0.071 HD
HETATM   28  H18 UNL     1      27.007   8.189  48.843  1.00  0.00     0.071 HD
ENDBRANCH  22  23
ENDBRANCH  20  22
ENDBRANCH   7  20
TORSDOF 5
ENDMDL
MODEL 2
REMARK VINA RESULT:      -7.8      4.311      9.211
REMARK  5 active torsions:
REMARK  status: ('A' for Active; 'I' for Inactive)
REMARK       I    between atoms: C2_2  and  N1_4 
REMARK    1  A    between atoms: C6_8  and  C7_9 
REMARK    2  A    between atoms: C8_10  and  C9_11 
REMARK    3  A    between atoms: C13_17  and  N4_18 
REMARK    4  A    between atoms: N4_18  and  C14_19 
REMARK    5  A    between atoms: C14_19  and  C15_20 
ROOT
HETATM    1  C9  UNL     1      25.761   3.681  49.848  1.00  0.00     0.061 A 
HETATM    2  C10 UNL     1      24.489   3.318  49.550  1.00  0.00     0.061 A 
HETATM    3  C11 UNL     1      23.805   2.436  50.334  1.00  0.00     0.081 A 
HETATM    4  N2  UNL     1      22.558   1.948  50.227  1.00  0.00    -0.241 NA
HETATM    5  C12 UNL     1      22.088   1.087  51.116  1.00  0.00     0.236 A 
HETATM    6  N3  UNL     1      22.733   0.587  52.207  1.00  0.00    -0.223 NA
HETATM    7  C13 UNL     1      23.985   1.035  52.374  1.00  0.00     0.144 A 
HETATM    8  C17 UNL     1      24.508   1.956  51.437  1.00  0.00     0.080 A 
HETATM    9  S1  UNL     1      26.133   2.749  51.362  1.00  0.00    -0.075 SA
ENDROOT
BRANCH   1  10
HETATM   10  C8  UNL     1      26.657   4.562  49.198  1.00  0.00    -0.057 C 
HETATM   11  C7  UNL     1      27.423   5.291  48.641  1.00  0.00    -0.075 C 
BRANCH  11  12
HETATM   12  C6  UNL     1      28.371   6.164  47.947  1.00  0.00     0.167 C 
HETATM   13  N1  UNL     1      28.282   7.528  48.399  1.00  0.00    -0.337 N 
HETATM   14  C2  UNL     1      27.329   8.035  49.315  1.00  0.00     0.216 C 
HETATM   15  C3  UNL     1      29.406   8.107  47.649  1.00  0.00     0.127 C 
HETATM   16  C1  UNL     1      27.518   9.488  49.567  1.00  0.00     0.117 C 
HETATM   17  O1  UNL     1      26.385   7.418  49.909  1.00  0.00    -0.274 OA
HETATM   18  C4  UNL     1      30.512   7.091  47.870  1.00  0.00     0.023 C 
HETATM   19  C5  UNL     1      29.793   5.808  48.294  1.00  0.00     0.040 C 
ENDBRANCH  11  12
ENDBRANCH   1  10
BRANCH   7  20
HETATM   20  N4  UNL     1      24.834   0.648  53.443  1.00  0.00    -0.370 N 
HETATM   21  H13 UNL     1      25.173   1.331  54.146  1.00  0.00     0.161 HD
BRANCH  20  22
HETATM   22  C14 UNL     1      25.222  -0.743  53.530  1.00  0.00     0.150 C 
BRANCH  22  23
HETATM   23  C15 UNL     1      26.524  -0.903  52.839  1.00  0.00     0.017 C 
HETATM   24  C16 UNL     1      27.757  -0.640  53.229  1.00  0.00     0.028 A 
HETATM   25  P1  UNL     1      29.511  -0.315  53.658  1.00  0.00    -0.040 P 
HETATM   26 CL1  UNL     1      27.745   0.014  54.877  1.00  0.00    -0.158 Cl
HETATM   27  H17 UNL     1      30.276  -1.548  53.701  1.00  0.00     0.071 HD
HETATM   28  H18 UNL     1      30.144   0.541  52.670  1.00  0.00     0.071 HD
ENDBRANCH  22  23
ENDBRANCH  20  22
ENDBRANCH   7  20
TORSDOF 5
ENDMDL
MODEL 3
REMARK VINA RESULT:      -7.7      4.133      8.228
REMARK  5 active torsions:
REMARK  status: ('A' for Active; 'I' for Inactive)
REMARK       I    between atoms: C2_2  and  N1_4 
REMARK    1  A    between atoms: C6_8  and  C7_9 
REMARK    2  A    between atoms: C8_10  and  C9_11 
REMARK    3  A    between atoms: C13_17  and  N4_18 
REMARK    4  A    between atoms: N4_18  and  C14_19 
REMARK    5  A    between atoms: C14_19  and  C15_20 
ROOT
HETATM    1  C9  UNL     1      23.828   1.576  52.033  1.00  0.00     0.061 A 
HETATM    2  C10 UNL     1      24.450   0.767  52.925  1.00  0.00     0.061 A 
HETATM    3  C11 UNL     1      23.738  -0.041  53.761  1.00  0.00     0.081 A 
HETATM    4  N2  UNL     1      24.144  -0.908  54.704  1.00  0.00    -0.241 NA
HETATM    5  C12 UNL     1      23.266  -1.602  55.411  1.00  0.00     0.236 A 
HETATM    6  N3  UNL     1      21.908  -1.563  55.313  1.00  0.00    -0.223 NA
HETATM    7  C13 UNL     1      21.434  -0.717  54.388  1.00  0.00     0.144 A 
HETATM    8  C17 UNL     1      22.354   0.035  53.621  1.00  0.00     0.080 A 
HETATM    9  S1  UNL     1      22.063   1.248  52.310  1.00  0.00    -0.075 SA
ENDROOT
BRANCH   1  10
HETATM   10  C8  UNL     1      24.343   2.486  51.079  1.00  0.00    -0.057 C 
HETATM   11  C7  UNL     1      24.796   3.251  50.281  1.00  0.00    -0.075 C 
BRANCH  11  12
HETATM   12  C6  UNL     1      25.373   4.183  49.311  1.00  0.00     0.167 C 
HETATM   13  N1  UNL     1      25.140   5.556  49.673  1.00  0.00    -0.337 N 
HETATM   14  C2  UNL     1      24.350   6.002  50.761  1.00  0.00     0.216 C 
HETATM   15  C3  UNL     1      25.927   6.222  48.625  1.00  0.00     0.127 C 
HETATM   16  C1  UNL     1      24.317   7.485  50.854  1.00  0.00     0.117 C 
HETATM   17  O1  UNL     1      23.705   5.310  51.616  1.00  0.00    -0.274 OA
HETATM   18  C4  UNL     1      27.224   5.434  48.632  1.00  0.00     0.023 C 
HETATM   19  C5  UNL     1      26.878   4.107  49.314  1.00  0.00     0.040 C 
ENDBRANCH  11  12
ENDBRANCH   1  10
BRANCH   7  20
HETATM   20  N4  UNL     1      20.055  -0.522  54.118  1.00  0.00    -0.370 N 
HETATM   21  H13 UNL     1      19.571   0.363  54.362  1.00  0.00     0.161 HD
BRANCH  20  22
HETATM   22  C14 UNL     1      19.329  -1.601  53.487  1.00  0.00     0.150 C 
BRANCH  22  23
HETATM   23  C15 UNL     1      17.921  -1.170  53.311  1.00  0.00     0.017 C 
HETATM   24  C16 UNL     1      17.331  -0.491  52.346  1.00  0.00     0.028 A 
HETATM   25  P1  UNL     1      16.402   0.445  51.070  1.00  0.00    -0.040 P 
HETATM   26 CL1  UNL     1      18.512  -0.066  51.093  1.00  0.00    -0.158 Cl
HETATM   27  H17 UNL     1      15.399  -0.391  50.436  1.00  0.00     0.071 HD
HETATM   28  H18 UNL     1      15.703   1.577  51.652  1.00  0.00     0.071 HD
ENDBRANCH  22  23
ENDBRANCH  20  22
ENDBRANCH   7  20
TORSDOF 5
ENDMDL
MODEL 4
REMARK VINA RESULT:      -7.6      4.214      8.772
REMARK  5 active torsions:
REMARK  status: ('A' for Active; 'I' for Inactive)
REMARK       I    between atoms: C2_2  and  N1_4 
REMARK    1  A    between atoms: C6_8  and  C7_9 
REMARK    2  A    between atoms: C8_10  and  C9_11 
REMARK    3  A    between atoms: C13_17  and  N4_18 
REMARK    4  A    between atoms: N4_18  and  C14_19 
REMARK    5  A    between atoms: C14_19  and  C15_20 
ROOT
HETATM    1  C9  UNL     1      26.033   2.845  50.717  1.00  0.00     0.061 A 
HETATM    2  C10 UNL     1      26.673   1.824  51.338  1.00  0.00     0.061 A 
HETATM    3  C11 UNL     1      26.003   0.966  52.157  1.00  0.00     0.081 A 
HETATM    4  N2  UNL     1      26.432  -0.096  52.860  1.00  0.00    -0.241 NA
HETATM    5  C12 UNL     1      25.595  -0.801  53.604  1.00  0.00     0.236 A 
HETATM    6  N3  UNL     1      24.259  -0.592  53.773  1.00  0.00    -0.223 NA
HETATM    7  C13 UNL     1      23.764   0.453  53.097  1.00  0.00     0.144 A 
HETATM    8  C17 UNL     1      24.640   1.221  52.296  1.00  0.00     0.080 A 
HETATM    9  S1  UNL     1      24.311   2.675  51.269  1.00  0.00    -0.075 SA
ENDROOT
BRANCH   1  10
HETATM   10  C8  UNL     1      26.506   3.847  49.836  1.00  0.00    -0.057 C 
HETATM   11  C7  UNL     1      26.921   4.695  49.104  1.00  0.00    -0.075 C 
BRANCH  11  12
HETATM   12  C6  UNL     1      27.449   5.737  48.222  1.00  0.00     0.167 C 
HETATM   13  N1  UNL     1      27.049   7.055  48.639  1.00  0.00    -0.337 N 
HETATM   14  C2  UNL     1      26.155   7.352  49.697  1.00  0.00     0.216 C 
HETATM   15  C3  UNL     1      27.818   7.860  47.679  1.00  0.00     0.127 C 
HETATM   16  C1  UNL     1      25.958   8.816  49.864  1.00  0.00     0.117 C 
HETATM   17  O1  UNL     1      25.540   6.548  50.473  1.00  0.00    -0.274 OA
HETATM   18  C4  UNL     1      29.190   7.211  47.727  1.00  0.00     0.023 C 
HETATM   19  C5  UNL     1      28.950   5.819  48.315  1.00  0.00     0.040 C 
ENDBRANCH  11  12
ENDBRANCH   1  10
BRANCH   7  20
HETATM   20  N4  UNL     1      22.402   0.848  53.127  1.00  0.00    -0.370 N 
HETATM   21  H13 UNL     1      22.113   1.790  53.451  1.00  0.00     0.161 HD
BRANCH  20  22
HETATM   22  C14 UNL     1      21.410  -0.108  52.689  1.00  0.00     0.150 C 
BRANCH  22  23
HETATM   23  C15 UNL     1      20.731   0.445  51.492  1.00  0.00     0.017 C 
HETATM   24  C16 UNL     1      19.469   0.412  51.111  1.00  0.00     0.028 A 
HETATM   25  P1  UNL     1      17.746   0.431  50.479  1.00  0.00    -0.040 P 
HETATM   26 CL1  UNL     1      18.498  -0.469  52.306  1.00  0.00    -0.158 Cl
HETATM   27  H17 UNL     1      17.223   1.785  50.429  1.00  0.00     0.071 HD
HETATM   28  H18 UNL     1      17.675  -0.100  49.129  1.00  0.00     0.071 HD
ENDBRANCH  22  23
ENDBRANCH  20  22
ENDBRANCH   7  20
TORSDOF 5
ENDMDL
MODEL 5
REMARK VINA RESULT:      -7.6      3.991      8.403
REMARK  5 active torsions:
REMARK  status: ('A' for Active; 'I' for Inactive)
REMARK       I    between atoms: C2_2  and  N1_4 
REMARK    1  A    between atoms: C6_8  and  C7_9 
REMARK    2  A    between atoms: C8_10  and  C9_11 
REMARK    3  A    between atoms: C13_17  and  N4_18 
REMARK    4  A    between atoms: N4_18  and  C14_19 
REMARK    5  A    between atoms: C14_19  and  C15_20 
ROOT
HETATM    1  C9  UNL     1      26.200   2.465  51.449  1.00  0.00     0.061 A 
HETATM    2  C10 UNL     1      26.996   2.017  52.450  1.00  0.00     0.061 A 
HETATM    3  C11 UNL     1      26.553   1.083  53.339  1.00  0.00     0.081 A 
HETATM    4  N2  UNL     1      27.163   0.508  54.388  1.00  0.00    -0.241 NA
HETATM    5  C12 UNL     1      26.536  -0.391  55.130  1.00  0.00     0.236 A 
HETATM    6  N3  UNL     1      25.264  -0.854  54.971  1.00  0.00    -0.223 NA
HETATM    7  C13 UNL     1      24.597  -0.321  53.938  1.00  0.00     0.144 A 
HETATM    8  C17 UNL     1      25.248   0.642  53.133  1.00  0.00     0.080 A 
HETATM    9  S1  UNL     1      24.650   1.548  51.685  1.00  0.00    -0.075 SA
ENDROOT
BRANCH   1  10
HETATM   10  C8  UNL     1      26.432   3.413  50.423  1.00  0.00    -0.057 C 
HETATM   11  C7  UNL     1      26.640   4.222  49.570  1.00  0.00    -0.075 C 
BRANCH  11  12
HETATM   12  C6  UNL     1      26.910   5.226  48.539  1.00  0.00     0.167 C 
HETATM   13  N1  UNL     1      26.328   6.503  48.860  1.00  0.00    -0.337 N 
HETATM   14  C2  UNL     1      25.487   6.774  49.967  1.00  0.00     0.216 C 
HETATM   15  C3  UNL     1      26.869   7.304  47.752  1.00  0.00     0.127 C 
HETATM   16  C1  UNL     1      25.060   8.197  50.006  1.00  0.00     0.117 C 
HETATM   17  O1  UNL     1      25.083   5.977  50.877  1.00  0.00    -0.274 OA
HETATM   18  C4  UNL     1      28.330   6.892  47.726  1.00  0.00     0.023 C 
HETATM   19  C5  UNL     1      28.378   5.556  48.473  1.00  0.00     0.040 C 
ENDBRANCH  11  12
ENDBRANCH   1  10
BRANCH   7  20
HETATM   20  N4  UNL     1      23.264  -0.662  53.590  1.00  0.00    -0.370 N 
HETATM   21  H13 UNL     1      23.003  -0.923  52.621  1.00  0.00     0.161 HD
BRANCH  20  22
HETATM   22  C14 UNL     1      22.263  -0.634  54.633  1.00  0.00     0.150 C 
BRANCH  22  23
HETATM   23  C15 UNL     1      21.020  -1.239  54.097  1.00  0.00     0.017 C 
HETATM   24  C16 UNL     1      20.053  -0.733  53.356  1.00  0.00     0.028 A 
HETATM   25  P1  UNL     1      18.651  -0.142  52.330  1.00  0.00    -0.040 P 
HETATM   26 CL1  UNL     1      20.393   0.969  52.994  1.00  0.00    -0.158 Cl
HETATM   27  H17 UNL     1      18.604  -0.840  51.058  1.00  0.00     0.071 HD
HETATM   28  H18 UNL     1      17.379  -0.380  52.990  1.00  0.00     0.071 HD
ENDBRANCH  22  23
ENDBRANCH  20  22
ENDBRANCH   7  20
TORSDOF 5
ENDMDL
MODEL 6
REMARK VINA RESULT:      -7.4      3.479      5.792
REMARK  5 active torsions:
REMARK  status: ('A' for Active; 'I' for Inactive)
REMARK       I    between atoms: C2_2  and  N1_4 
REMARK    1  A    between atoms: C6_8  and  C7_9 
REMARK    2  A    between atoms: C8_10  and  C9_11 
REMARK    3  A    between atoms: C13_17  and  N4_18 
REMARK    4  A    between atoms: N4_18  and  C14_19 
REMARK    5  A    between atoms: C14_19  and  C15_20 
ROOT
HETATM    1  C9  UNL     1      24.518   3.509  50.235  1.00  0.00     0.061 A 
HETATM    2  C10 UNL     1      24.037   4.595  49.583  1.00  0.00     0.061 A 
HETATM    3  C11 UNL     1      24.876   5.484  48.979  1.00  0.00     0.081 A 
HETATM    4  N2  UNL     1      24.619   6.608  48.290  1.00  0.00    -0.241 NA
HETATM    5  C12 UNL     1      25.602   7.333  47.781  1.00  0.00     0.236 A 
HETATM    6  N3  UNL     1      26.940   7.086  47.859  1.00  0.00    -0.223 NA
HETATM    7  C13 UNL     1      27.268   5.976  48.535  1.00  0.00     0.144 A 
HETATM    8  C17 UNL     1      26.233   5.186  49.087  1.00  0.00     0.080 A 
HETATM    9  S1  UNL     1      26.319   3.651  50.043  1.00  0.00    -0.075 SA
ENDROOT
BRANCH   1  10
HETATM   10  C8  UNL     1      23.858   2.464  50.925  1.00  0.00    -0.057 C 
HETATM   11  C7  UNL     1      23.290   1.578  51.490  1.00  0.00    -0.075 C 
BRANCH  11  12
HETATM   12  C6  UNL     1      22.584   0.486  52.163  1.00  0.00     0.167 C 
HETATM   13  N1  UNL     1      23.400  -0.153  53.162  1.00  0.00    -0.337 N 
HETATM   14  C2  UNL     1      24.765   0.126  53.418  1.00  0.00     0.216 C 
HETATM   15  C3  UNL     1      22.408  -1.075  53.734  1.00  0.00     0.127 C 
HETATM   16  C1  UNL     1      25.307  -0.713  54.519  1.00  0.00     0.117 C 
HETATM   17  O1  UNL     1      25.530   0.967  52.841  1.00  0.00    -0.274 OA
HETATM   18  C4  UNL     1      21.191  -0.185  53.911  1.00  0.00     0.023 C 
HETATM   19  C5  UNL     1      21.432   1.006  52.981  1.00  0.00     0.040 C 
ENDBRANCH  11  12
ENDBRANCH   1  10
BRANCH   7  20
HETATM   20  N4  UNL     1      28.599   5.529  48.735  1.00  0.00    -0.370 N 
HETATM   21  H13 UNL     1      28.815   4.702  49.324  1.00  0.00     0.161 HD
BRANCH  20  22
HETATM   22  C14 UNL     1      29.665   6.264  48.091  1.00  0.00     0.150 C 
BRANCH  22  23
HETATM   23  C15 UNL     1      30.806   5.339  47.885  1.00  0.00     0.017 C 
HETATM   24  C16 UNL     1      32.100   5.491  48.091  1.00  0.00     0.028 A 
HETATM   25  P1  UNL     1      33.916   5.585  48.335  1.00  0.00    -0.040 P 
HETATM   26 CL1  UNL     1      32.427   7.116  48.722  1.00  0.00    -0.158 Cl
HETATM   27  H17 UNL     1      34.356   4.644  49.349  1.00  0.00     0.071 HD
HETATM   28  H18 UNL     1      34.629   5.253  47.113  1.00  0.00     0.071 HD
ENDBRANCH  22  23
ENDBRANCH  20  22
ENDBRANCH   7  20
TORSDOF 5
ENDMDL
MODEL 7
REMARK VINA RESULT:      -7.4      3.298      5.465
REMARK  5 active torsions:
REMARK  status: ('A' for Active; 'I' for Inactive)
REMARK       I    between atoms: C2_2  and  N1_4 
REMARK    1  A    between atoms: C6_8  and  C7_9 
REMARK    2  A    between atoms: C8_10  and  C9_11 
REMARK    3  A    between atoms: C13_17  and  N4_18 
REMARK    4  A    between atoms: N4_18  and  C14_19 
REMARK    5  A    between atoms: C14_19  and  C15_20 
ROOT
HETATM    1  C9  UNL     1      24.879   3.299  50.372  1.00  0.00     0.061 A 
HETATM    2  C10 UNL     1      26.142   3.235  49.884  1.00  0.00     0.061 A 
HETATM    3  C11 UNL     1      26.728   4.318  49.298  1.00  0.00     0.081 A 
HETATM    4  N2  UNL     1      27.948   4.473  48.758  1.00  0.00    -0.241 NA
HETATM    5  C12 UNL     1      28.316   5.632  48.234  1.00  0.00     0.236 A 
HETATM    6  N3  UNL     1      27.582   6.777  48.159  1.00  0.00    -0.223 NA
HETATM    7  C13 UNL     1      26.351   6.692  48.682  1.00  0.00     0.144 A 
HETATM    8  C17 UNL     1      25.936   5.464  49.247  1.00  0.00     0.080 A 
HETATM    9  S1  UNL     1      24.368   5.007  50.025  1.00  0.00    -0.075 SA
ENDROOT
BRANCH   1  10
HETATM   10  C8  UNL     1      24.074   2.326  51.011  1.00  0.00    -0.057 C 
HETATM   11  C7  UNL     1      23.400   1.513  51.569  1.00  0.00    -0.075 C 
BRANCH  11  12
HETATM   12  C6  UNL     1      22.581   0.525  52.274  1.00  0.00     0.167 C 
HETATM   13  N1  UNL     1      23.315  -0.143  53.317  1.00  0.00    -0.337 N 
HETATM   14  C2  UNL     1      24.696   0.015  53.588  1.00  0.00     0.216 C 
HETATM   15  C3  UNL     1      22.230  -0.940  53.907  1.00  0.00     0.127 C 
HETATM   16  C1  UNL     1      25.138  -0.821  54.735  1.00  0.00     0.117 C 
HETATM   17  O1  UNL     1      25.548   0.752  52.991  1.00  0.00    -0.274 OA
HETATM   18  C4  UNL     1      21.101   0.069  54.021  1.00  0.00     0.023 C 
HETATM   19  C5  UNL     1      21.471   1.189  53.045  1.00  0.00     0.040 C 
ENDBRANCH  11  12
ENDBRANCH   1  10
BRANCH   7  20
HETATM   20  N4  UNL     1      25.422   7.764  48.713  1.00  0.00    -0.370 N 
HETATM   21  H13 UNL     1      24.600   7.792  48.080  1.00  0.00     0.161 HD
BRANCH  20  22
HETATM   22  C14 UNL     1      25.652   8.832  49.659  1.00  0.00     0.150 C 
BRANCH  22  23
HETATM   23  C15 UNL     1      26.131  10.019  48.909  1.00  0.00     0.017 C 
HETATM   24  C16 UNL     1      27.332  10.552  48.796  1.00  0.00     0.028 A 
HETATM   25  P1  UNL     1      28.952  11.382  48.563  1.00  0.00    -0.040 P 
HETATM   26 CL1  UNL     1      28.504   9.614  49.740  1.00  0.00    -0.158 Cl
HETATM   27  H17 UNL     1      29.380  11.314  47.177  1.00  0.00     0.071 HD
HETATM   28  H18 UNL     1      28.877  12.789  48.914  1.00  0.00     0.071 HD
ENDBRANCH  22  23
ENDBRANCH  20  22
ENDBRANCH   7  20
TORSDOF 5
ENDMDL
MODEL 8
REMARK VINA RESULT:      -7.3      5.061     10.296
REMARK  5 active torsions:
REMARK  status: ('A' for Active; 'I' for Inactive)
REMARK       I    between atoms: C2_2  and  N1_4 
REMARK    1  A    between atoms: C6_8  and  C7_9 
REMARK    2  A    between atoms: C8_10  and  C9_11 
REMARK    3  A    between atoms: C13_17  and  N4_18 
REMARK    4  A    between atoms: N4_18  and  C14_19 
REMARK    5  A    between atoms: C14_19  and  C15_20 
ROOT
HETATM    1  C9  UNL     1      26.639   4.923  49.024  1.00  0.00     0.061 A 
HETATM    2  C10 UNL     1      25.377   5.406  48.916  1.00  0.00     0.061 A 
HETATM    3  C11 UNL     1      24.322   4.757  49.486  1.00  0.00     0.081 A 
HETATM    4  N2  UNL     1      23.012   5.054  49.503  1.00  0.00    -0.241 NA
HETATM    5  C12 UNL     1      22.147   4.271  50.128  1.00  0.00     0.236 A 
HETATM    6  N3  UNL     1      22.412   3.121  50.809  1.00  0.00    -0.223 NA
HETATM    7  C13 UNL     1      23.704   2.766  50.832  1.00  0.00     0.144 A 
HETATM    8  C17 UNL     1      24.646   3.588  50.171  1.00  0.00     0.080 A 
HETATM    9  S1  UNL     1      26.439   3.408  50.006  1.00  0.00    -0.075 SA
ENDROOT
BRANCH   1  10
HETATM   10  C8  UNL     1      27.872   5.411  48.528  1.00  0.00    -0.057 C 
HETATM   11  C7  UNL     1      28.920   5.822  48.129  1.00  0.00    -0.075 C 
BRANCH  11  12
HETATM   12  C6  UNL     1      30.212   6.326  47.662  1.00  0.00     0.167 C 
HETATM   13  N1  UNL     1      30.458   7.676  48.098  1.00  0.00    -0.337 N 
HETATM   14  C2  UNL     1      29.540   8.500  48.794  1.00  0.00     0.216 C 
HETATM   15  C3  UNL     1      31.834   7.844  47.611  1.00  0.00     0.127 C 
HETATM   16  C1  UNL     1      30.111   9.839  49.095  1.00  0.00     0.117 C 
HETATM   17  O1  UNL     1      28.350   8.233  49.167  1.00  0.00    -0.274 OA
HETATM   18  C4  UNL     1      32.502   6.554  48.053  1.00  0.00     0.023 C 
HETATM   19  C5  UNL     1      31.351   5.576  48.301  1.00  0.00     0.040 C 
ENDBRANCH  11  12
ENDBRANCH   1  10
BRANCH   7  20
HETATM   20  N4  UNL     1      24.201   1.609  51.485  1.00  0.00    -0.370 N 
HETATM   21  H13 UNL     1      24.613   0.817  50.956  1.00  0.00     0.161 HD
BRANCH  20  22
HETATM   22  C14 UNL     1      24.119   1.558  52.928  1.00  0.00     0.150 C 
BRANCH  22  23
HETATM   23  C15 UNL     1      25.443   1.935  53.480  1.00  0.00     0.017 C 
HETATM   24  C16 UNL     1      26.479   1.202  53.838  1.00  0.00     0.028 A 
HETATM   25  P1  UNL     1      27.980   0.290  54.368  1.00  0.00    -0.040 P 
HETATM   26 CL1  UNL     1      26.127  -0.516  53.576  1.00  0.00    -0.158 Cl
HETATM   27  H17 UNL     1      29.117   0.619  53.527  1.00  0.00     0.071 HD
HETATM   28  H18 UNL     1      28.350   0.632  55.731  1.00  0.00     0.071 HD
ENDBRANCH  22  23
ENDBRANCH  20  22
ENDBRANCH   7  20
TORSDOF 5
ENDMDL
MODEL 9
REMARK VINA RESULT:      -7.0      2.808      7.576
REMARK  5 active torsions:
REMARK  status: ('A' for Active; 'I' for Inactive)
REMARK       I    between atoms: C2_2  and  N1_4 
REMARK    1  A    between atoms: C6_8  and  C7_9 
REMARK    2  A    between atoms: C8_10  and  C9_11 
REMARK    3  A    between atoms: C13_17  and  N4_18 
REMARK    4  A    between atoms: N4_18  and  C14_19 
REMARK    5  A    between atoms: C14_19  and  C15_20 
ROOT
HETATM    1  C9  UNL     1      22.266  -0.558  53.278  1.00  0.00     0.061 A 
HETATM    2  C10 UNL     1      21.346  -1.404  53.804  1.00  0.00     0.061 A 
HETATM    3  C11 UNL     1      20.020  -1.267  53.520  1.00  0.00     0.081 A 
HETATM    4  N2  UNL     1      18.956  -1.981  53.924  1.00  0.00    -0.241 NA
HETATM    5  C12 UNL     1      17.735  -1.669  53.519  1.00  0.00     0.236 A 
HETATM    6  N3  UNL     1      17.373  -0.652  52.688  1.00  0.00    -0.223 NA
HETATM    7  C13 UNL     1      18.389   0.102  52.245  1.00  0.00     0.144 A 
HETATM    8  C17 UNL     1      19.702  -0.214  52.665  1.00  0.00     0.080 A 
HETATM    9  S1  UNL     1      21.278   0.582  52.267  1.00  0.00    -0.075 SA
ENDROOT
BRANCH   1  10
HETATM   10  C8  UNL     1      23.673  -0.500  53.423  1.00  0.00    -0.057 C 
HETATM   11  C7  UNL     1      24.861  -0.435  53.534  1.00  0.00    -0.075 C 
BRANCH  11  12
HETATM   12  C6  UNL     1      26.315  -0.333  53.658  1.00  0.00     0.167 C 
HETATM   13  N1  UNL     1      26.854   0.741  52.866  1.00  0.00    -0.337 N 
HETATM   14  C2  UNL     1      26.121   1.553  51.966  1.00  0.00     0.216 C 
HETATM   15  C3  UNL     1      28.260   0.679  53.292  1.00  0.00     0.127 C 
HETATM   16  C1  UNL     1      26.981   2.571  51.307  1.00  0.00     0.117 C 
HETATM   17  O1  UNL     1      24.880   1.506  51.678  1.00  0.00    -0.274 OA
HETATM   18  C4  UNL     1      28.144   0.562  54.801  1.00  0.00     0.023 C 
HETATM   19  C5  UNL     1      26.715   0.072  55.053  1.00  0.00     0.040 C 
ENDBRANCH  11  12
ENDBRANCH   1  10
BRANCH   7  20
HETATM   20  N4  UNL     1      18.239   1.208  51.371  1.00  0.00    -0.370 N 
HETATM   21  H13 UNL     1      18.024   2.160  51.724  1.00  0.00     0.161 HD
BRANCH  20  22
HETATM   22  C14 UNL     1      18.393   0.975  49.952  1.00  0.00     0.150 C 
BRANCH  22  23
HETATM   23  C15 UNL     1      18.944   2.208  49.338  1.00  0.00     0.017 C 
HETATM   24  C16 UNL     1      20.111   2.455  48.775  1.00  0.00     0.028 A 
HETATM   25  P1  UNL     1      21.695   2.917  47.972  1.00  0.00    -0.040 P 
HETATM   26 CL1  UNL     1      21.122   0.998  48.808  1.00  0.00    -0.158 Cl
HETATM   27  H17 UNL     1      21.493   3.257  46.575  1.00  0.00     0.071 HD
HETATM   28  H18 UNL     1      22.288   4.081  48.609  1.00  0.00     0.071 HD
ENDBRANCH  22  23
ENDBRANCH  20  22
ENDBRANCH   7  20
TORSDOF 5
ENDMDL
