MODEL 1
REMARK VINA RESULT:      -7.8      0.000      0.000
REMARK  6 active torsions:
REMARK  status: ('A' for Active; 'I' for Inactive)
REMARK    1  A    between atoms: C2_2  and  C3_3 
REMARK    2  A    between atoms: C2_2  and  N1_10 
REMARK    3  A    between atoms: N1_10  and  N2_11 
REMARK    4  A    between atoms: N1_10  and  C16_19 
REMARK    5  A    between atoms: C9_12  and  C10_13 
REMARK    6  A    between atoms: C17_21  and  O1_22 
ROOT
HETATM    1  N1  UNL     1      23.517   1.322  52.321  1.00  0.00    -0.238 N 
ENDROOT
BRANCH   1   2
HETATM    2  C2  UNL     1      23.839   0.051  52.926  1.00  0.00     0.141 C 
HETATM    3  C1  UNL     1      23.064  -0.175  54.218  1.00  0.00     0.040 C 
BRANCH   2   4
HETATM    4  C3  UNL     1      25.295  -0.065  53.228  1.00  0.00    -0.034 A 
HETATM    5  C4  UNL     1      25.847   0.416  54.393  1.00  0.00     0.011 A 
HETATM    6  C5  UNL     1      27.189   0.296  54.649  1.00  0.00     0.024 A 
HETATM    7  C6  UNL     1      28.049  -0.314  53.746  1.00  0.00     0.034 A 
HETATM    8 CL1  UNL     1      29.772  -0.493  54.022  1.00  0.00    -0.084 Cl
HETATM    9  C7  UNL     1      27.519  -0.807  52.562  1.00  0.00     0.024 A 
HETATM   10  C8  UNL     1      26.152  -0.672  52.327  1.00  0.00     0.011 A 
ENDBRANCH   2   4
ENDBRANCH   1   2
BRANCH   1  11
HETATM   11  N2  UNL     1      24.260   2.445  51.874  1.00  0.00    -0.181 NA
HETATM   12  C9  UNL     1      24.468   2.552  50.624  1.00  0.00     0.150 C 
BRANCH  12  13
HETATM   13  C10 UNL     1      25.224   3.667  50.017  1.00  0.00    -0.017 A 
HETATM   14  C11 UNL     1      24.758   4.979  49.890  1.00  0.00     0.013 A 
HETATM   15  C12 UNL     1      25.584   5.913  49.298  1.00  0.00     0.001 A 
HETATM   16  C13 UNL     1      26.857   5.602  48.826  1.00  0.00     0.000 A 
HETATM   17  C14 UNL     1      27.314   4.299  48.955  1.00  0.00     0.001 A 
HETATM   18  C15 UNL     1      26.492   3.361  49.546  1.00  0.00     0.013 A 
ENDBRANCH  12  13
ENDBRANCH   1  11
BRANCH   1  19
HETATM   19  C16 UNL     1      22.158   1.608  52.078  1.00  0.00     0.192 A 
HETATM   20  N3  UNL     1      21.351   2.448  52.396  1.00  0.00    -0.198 NA
HETATM   21  C17 UNL     1      20.083   2.413  51.963  1.00  0.00     0.171 A 
HETATM   22  C18 UNL     1      19.638   1.367  51.097  1.00  0.00     0.111 A 
HETATM   23  S1  UNL     1      21.199   0.404  50.937  1.00  0.00    -0.058 SA
BRANCH  21  24
HETATM   24  O1  UNL     1      19.262   3.464  52.422  1.00  0.00    -0.344 OA
HETATM   25  H15 UNL     1      19.667   4.403  52.486  1.00  0.00     0.219 HD
ENDBRANCH  21  24
ENDBRANCH   1  19
TORSDOF 6
ENDMDL
MODEL 2
REMARK VINA RESULT:      -7.7      4.011      5.749
REMARK  6 active torsions:
REMARK  status: ('A' for Active; 'I' for Inactive)
REMARK    1  A    between atoms: C2_2  and  C3_3 
REMARK    2  A    between atoms: C2_2  and  N1_10 
REMARK    3  A    between atoms: N1_10  and  N2_11 
REMARK    4  A    between atoms: N1_10  and  C16_19 
REMARK    5  A    between atoms: C9_12  and  C10_13 
REMARK    6  A    between atoms: C17_21  and  O1_22 
ROOT
HETATM    1  N1  UNL     1      25.353   0.143  53.381  1.00  0.00    -0.238 N 
ENDROOT
BRANCH   1   2
HETATM    2  C2  UNL     1      24.494  -0.026  54.529  1.00  0.00     0.141 C 
HETATM    3  C1  UNL     1      24.911  -1.220  55.378  1.00  0.00     0.040 C 
BRANCH   2   4
HETATM    4  C3  UNL     1      23.068  -0.210  54.132  1.00  0.00    -0.034 A 
HETATM    5  C4  UNL     1      22.401   0.695  53.338  1.00  0.00     0.011 A 
HETATM    6  C5  UNL     1      21.090   0.504  52.986  1.00  0.00     0.024 A 
HETATM    7  C6  UNL     1      20.378  -0.609  53.414  1.00  0.00     0.034 A 
HETATM    8 CL1  UNL     1      18.699  -0.902  52.994  1.00  0.00    -0.084 Cl
HETATM    9  C7  UNL     1      21.025  -1.537  54.217  1.00  0.00     0.024 A 
HETATM   10  C8  UNL     1      22.358  -1.318  54.560  1.00  0.00     0.011 A 
ENDBRANCH   2   4
ENDBRANCH   1   2
BRANCH   1  11
HETATM   11  N2  UNL     1      25.313   0.923  52.196  1.00  0.00    -0.181 NA
HETATM   12  C9  UNL     1      25.435   2.182  52.318  1.00  0.00     0.150 C 
BRANCH  12  13
HETATM   13  C10 UNL     1      25.412   3.117  51.173  1.00  0.00    -0.017 A 
HETATM   14  C11 UNL     1      24.315   3.898  50.795  1.00  0.00     0.013 A 
HETATM   15  C12 UNL     1      24.449   4.725  49.699  1.00  0.00     0.001 A 
HETATM   16  C13 UNL     1      25.625   4.814  48.959  1.00  0.00     0.000 A 
HETATM   17  C14 UNL     1      26.710   4.038  49.339  1.00  0.00     0.001 A 
HETATM   18  C15 UNL     1      26.582   3.207  50.434  1.00  0.00     0.013 A 
ENDBRANCH  12  13
ENDBRANCH   1  11
BRANCH   1  19
HETATM   19  C16 UNL     1      26.544  -0.610  53.335  1.00  0.00     0.192 A 
HETATM   20  N3  UNL     1      26.880  -1.735  53.050  1.00  0.00    -0.198 NA
HETATM   21  C17 UNL     1      28.158  -2.133  53.124  1.00  0.00     0.171 A 
HETATM   22  C18 UNL     1      29.179  -1.227  53.548  1.00  0.00     0.111 A 
HETATM   23  S1  UNL     1      28.163   0.280  53.845  1.00  0.00    -0.058 SA
BRANCH  21  24
HETATM   24  O1  UNL     1      28.391  -3.474  52.759  1.00  0.00    -0.344 OA
HETATM   25  H15 UNL     1      27.670  -4.168  52.977  1.00  0.00     0.219 HD
ENDBRANCH  21  24
ENDBRANCH   1  19
TORSDOF 6
ENDMDL
MODEL 3
REMARK VINA RESULT:      -7.6      3.433      6.195
REMARK  6 active torsions:
REMARK  status: ('A' for Active; 'I' for Inactive)
REMARK    1  A    between atoms: C2_2  and  C3_3 
REMARK    2  A    between atoms: C2_2  and  N1_10 
REMARK    3  A    between atoms: N1_10  and  N2_11 
REMARK    4  A    between atoms: N1_10  and  C16_19 
REMARK    5  A    between atoms: C9_12  and  C10_13 
REMARK    6  A    between atoms: C17_21  and  O1_22 
ROOT
HETATM    1  N1  UNL     1      25.198   2.719  51.240  1.00  0.00    -0.238 N 
ENDROOT
BRANCH   1   2
HETATM    2  C2  UNL     1      23.878   3.060  51.717  1.00  0.00     0.141 C 
HETATM    3  C1  UNL     1      23.931   4.045  52.878  1.00  0.00     0.040 C 
BRANCH   2   4
HETATM    4  C3  UNL     1      23.122   1.854  52.162  1.00  0.00    -0.034 A 
HETATM    5  C4  UNL     1      22.117   1.294  51.406  1.00  0.00     0.011 A 
HETATM    6  C5  UNL     1      21.436   0.184  51.837  1.00  0.00     0.024 A 
HETATM    7  C6  UNL     1      21.729  -0.422  53.051  1.00  0.00     0.034 A 
HETATM    8 CL1  UNL     1      20.889  -1.842  53.650  1.00  0.00    -0.084 Cl
HETATM    9  C7  UNL     1      22.736   0.123  53.834  1.00  0.00     0.024 A 
HETATM   10  C8  UNL     1      23.413   1.251  53.373  1.00  0.00     0.011 A 
ENDBRANCH   2   4
ENDBRANCH   1   2
BRANCH   1  11
HETATM   11  N2  UNL     1      26.096   1.639  51.439  1.00  0.00    -0.181 NA
HETATM   12  C9  UNL     1      26.734   1.601  52.538  1.00  0.00     0.150 C 
BRANCH  12  13
HETATM   13  C10 UNL     1      27.701   0.538  52.882  1.00  0.00    -0.017 A 
HETATM   14  C11 UNL     1      27.456  -0.835  52.775  1.00  0.00     0.013 A 
HETATM   15  C12 UNL     1      28.462  -1.709  53.136  1.00  0.00     0.001 A 
HETATM   16  C13 UNL     1      29.703  -1.281  53.599  1.00  0.00     0.000 A 
HETATM   17  C14 UNL     1      29.940   0.082  53.703  1.00  0.00     0.001 A 
HETATM   18  C15 UNL     1      28.938   0.961  53.344  1.00  0.00     0.013 A 
ENDBRANCH  12  13
ENDBRANCH   1  11
BRANCH   1  19
HETATM   19  C16 UNL     1      25.830   3.619  50.357  1.00  0.00     0.192 A 
HETATM   20  N3  UNL     1      26.914   3.752  49.841  1.00  0.00    -0.198 NA
HETATM   21  C17 UNL     1      27.185   4.773  49.015  1.00  0.00     0.171 A 
HETATM   22  C18 UNL     1      26.187   5.750  48.714  1.00  0.00     0.111 A 
HETATM   23  S1  UNL     1      24.790   5.097  49.720  1.00  0.00    -0.058 SA
BRANCH  21  24
HETATM   24  O1  UNL     1      28.494   4.789  48.492  1.00  0.00    -0.344 OA
HETATM   25  H15 UNL     1      29.116   4.007  48.716  1.00  0.00     0.219 HD
ENDBRANCH  21  24
ENDBRANCH   1  19
TORSDOF 6
ENDMDL
MODEL 4
REMARK VINA RESULT:      -7.6      2.888      5.405
REMARK  6 active torsions:
REMARK  status: ('A' for Active; 'I' for Inactive)
REMARK    1  A    between atoms: C2_2  and  C3_3 
REMARK    2  A    between atoms: C2_2  and  N1_10 
REMARK    3  A    between atoms: N1_10  and  N2_11 
REMARK    4  A    between atoms: N1_10  and  C16_19 
REMARK    5  A    between atoms: C9_12  and  C10_13 
REMARK    6  A    between atoms: C17_21  and  O1_22 
ROOT
HETATM    1  N1  UNL     1      23.215   1.758  52.322  1.00  0.00    -0.238 N 
ENDROOT
BRANCH   1   2
HETATM    2  C2  UNL     1      22.655   2.531  51.239  1.00  0.00     0.141 C 
HETATM    3  C1  UNL     1      22.595   1.731  49.943  1.00  0.00     0.040 C 
BRANCH   2   4
HETATM    4  C3  UNL     1      23.437   3.775  50.984  1.00  0.00    -0.034 A 
HETATM    5  C4  UNL     1      23.212   4.942  51.677  1.00  0.00     0.011 A 
HETATM    6  C5  UNL     1      23.944   6.074  51.425  1.00  0.00     0.024 A 
HETATM    7  C6  UNL     1      24.944   6.092  50.461  1.00  0.00     0.034 A 
HETATM    8 CL1  UNL     1      25.910   7.511  50.098  1.00  0.00    -0.084 Cl
HETATM    9  C7  UNL     1      25.191   4.929  49.746  1.00  0.00     0.024 A 
HETATM   10  C8  UNL     1      24.432   3.793  50.023  1.00  0.00     0.011 A 
ENDBRANCH   2   4
ENDBRANCH   1   2
BRANCH   1  11
HETATM   11  N2  UNL     1      24.492   1.651  52.931  1.00  0.00    -0.181 NA
HETATM   12  C9  UNL     1      25.384   0.988  52.314  1.00  0.00     0.150 C 
BRANCH  12  13
HETATM   13  C10 UNL     1      26.756   0.794  52.827  1.00  0.00    -0.017 A 
HETATM   14  C11 UNL     1      27.403  -0.441  52.943  1.00  0.00     0.013 A 
HETATM   15  C12 UNL     1      28.689  -0.460  53.443  1.00  0.00     0.001 A 
HETATM   16  C13 UNL     1      29.365   0.693  53.832  1.00  0.00     0.000 A 
HETATM   17  C14 UNL     1      28.719   1.915  53.714  1.00  0.00     0.001 A 
HETATM   18  C15 UNL     1      27.432   1.940  53.216  1.00  0.00     0.013 A 
ENDBRANCH  12  13
ENDBRANCH   1  11
BRANCH   1  19
HETATM   19  C16 UNL     1      22.362   0.863  53.000  1.00  0.00     0.192 A 
HETATM   20  N3  UNL     1      22.469  -0.102  53.720  1.00  0.00    -0.198 NA
HETATM   21  C17 UNL     1      21.397  -0.743  54.208  1.00  0.00     0.171 A 
HETATM   22  C18 UNL     1      20.077  -0.300  53.890  1.00  0.00     0.111 A 
HETATM   23  S1  UNL     1      20.475   1.138  52.812  1.00  0.00    -0.058 SA
BRANCH  21  24
HETATM   24  O1  UNL     1      21.685  -1.849  55.033  1.00  0.00    -0.344 OA
HETATM   25  H15 UNL     1      22.552  -2.369  54.862  1.00  0.00     0.219 HD
ENDBRANCH  21  24
ENDBRANCH   1  19
TORSDOF 6
ENDMDL
MODEL 5
REMARK VINA RESULT:      -7.6      3.412      6.242
REMARK  6 active torsions:
REMARK  status: ('A' for Active; 'I' for Inactive)
REMARK    1  A    between atoms: C2_2  and  C3_3 
REMARK    2  A    between atoms: C2_2  and  N1_10 
REMARK    3  A    between atoms: N1_10  and  N2_11 
REMARK    4  A    between atoms: N1_10  and  C16_19 
REMARK    5  A    between atoms: C9_12  and  C10_13 
REMARK    6  A    between atoms: C17_21  and  O1_22 
ROOT
HETATM    1  N1  UNL     1      23.694   1.046  52.878  1.00  0.00    -0.238 N 
ENDROOT
BRANCH   1   2
HETATM    2  C2  UNL     1      22.403   0.630  53.373  1.00  0.00     0.141 C 
HETATM    3  C1  UNL     1      22.364  -0.864  53.669  1.00  0.00     0.040 C 
BRANCH   2   4
HETATM    4  C3  UNL     1      21.311   0.943  52.406  1.00  0.00    -0.034 A 
HETATM    5  C4  UNL     1      21.222   0.337  51.174  1.00  0.00     0.011 A 
HETATM    6  C5  UNL     1      20.208   0.641  50.302  1.00  0.00     0.024 A 
HETATM    7  C6  UNL     1      19.229   1.572  50.623  1.00  0.00     0.034 A 
HETATM    8 CL1  UNL     1      17.911   1.998  49.546  1.00  0.00    -0.084 Cl
HETATM    9  C7  UNL     1      19.296   2.199  51.859  1.00  0.00     0.024 A 
HETATM   10  C8  UNL     1      20.336   1.871  52.726  1.00  0.00     0.011 A 
ENDBRANCH   2   4
ENDBRANCH   1   2
BRANCH   1  11
HETATM   11  N2  UNL     1      24.950   0.418  52.679  1.00  0.00    -0.181 NA
HETATM   12  C9  UNL     1      25.841   0.591  53.569  1.00  0.00     0.150 C 
BRANCH  12  13
HETATM   13  C10 UNL     1      27.193  -0.002  53.494  1.00  0.00    -0.017 A 
HETATM   14  C11 UNL     1      27.477  -1.302  53.064  1.00  0.00     0.013 A 
HETATM   15  C12 UNL     1      28.795  -1.713  53.050  1.00  0.00     0.001 A 
HETATM   16  C13 UNL     1      29.846  -0.890  53.445  1.00  0.00     0.000 A 
HETATM   17  C14 UNL     1      29.558   0.399  53.870  1.00  0.00     0.001 A 
HETATM   18  C15 UNL     1      28.242   0.815  53.887  1.00  0.00     0.013 A 
ENDBRANCH  12  13
ENDBRANCH   1  11
BRANCH   1  19
HETATM   19  C16 UNL     1      23.839   2.388  52.470  1.00  0.00     0.192 A 
HETATM   20  N3  UNL     1      23.801   3.485  52.975  1.00  0.00    -0.198 NA
HETATM   21  C17 UNL     1      23.991   4.602  52.258  1.00  0.00     0.171 A 
HETATM   22  C18 UNL     1      24.248   4.531  50.855  1.00  0.00     0.111 A 
HETATM   23  S1  UNL     1      24.200   2.706  50.615  1.00  0.00    -0.058 SA
BRANCH  21  24
HETATM   24  O1  UNL     1      23.916   5.805  52.990  1.00  0.00    -0.344 OA
HETATM   25  H15 UNL     1      24.672   6.020  53.647  1.00  0.00     0.219 HD
ENDBRANCH  21  24
ENDBRANCH   1  19
TORSDOF 6
ENDMDL
MODEL 6
REMARK VINA RESULT:      -7.5      1.766      1.876
REMARK  6 active torsions:
REMARK  status: ('A' for Active; 'I' for Inactive)
REMARK    1  A    between atoms: C2_2  and  C3_3 
REMARK    2  A    between atoms: C2_2  and  N1_10 
REMARK    3  A    between atoms: N1_10  and  N2_11 
REMARK    4  A    between atoms: N1_10  and  C16_19 
REMARK    5  A    between atoms: C9_12  and  C10_13 
REMARK    6  A    between atoms: C17_21  and  O1_22 
ROOT
HETATM    1  N1  UNL     1      23.477   2.408  51.279  1.00  0.00    -0.238 N 
ENDROOT
BRANCH   1   2
HETATM    2  C2  UNL     1      23.706   1.201  52.037  1.00  0.00     0.141 C 
HETATM    3  C1  UNL     1      22.749   1.081  53.216  1.00  0.00     0.040 C 
BRANCH   2   4
HETATM    4  C3  UNL     1      25.101   1.130  52.559  1.00  0.00    -0.034 A 
HETATM    5  C4  UNL     1      25.572   1.993  53.523  1.00  0.00     0.011 A 
HETATM    6  C5  UNL     1      26.860   1.908  53.987  1.00  0.00     0.024 A 
HETATM    7  C6  UNL     1      27.743   0.950  53.508  1.00  0.00     0.034 A 
HETATM    8 CL1  UNL     1      29.400   0.797  54.067  1.00  0.00    -0.084 Cl
HETATM    9  C7  UNL     1      27.295   0.068  52.535  1.00  0.00     0.024 A 
HETATM   10  C8  UNL     1      25.982   0.176  52.081  1.00  0.00     0.011 A 
ENDBRANCH   2   4
ENDBRANCH   1   2
BRANCH   1  11
HETATM   11  N2  UNL     1      24.268   3.520  50.889  1.00  0.00    -0.181 NA
HETATM   12  C9  UNL     1      24.875   3.448  49.775  1.00  0.00     0.150 C 
BRANCH  12  13
HETATM   13  C10 UNL     1      25.731   4.528  49.243  1.00  0.00    -0.017 A 
HETATM   14  C11 UNL     1      25.291   5.815  48.915  1.00  0.00     0.013 A 
HETATM   15  C12 UNL     1      26.214   6.717  48.426  1.00  0.00     0.001 A 
HETATM   16  C13 UNL     1      27.559   6.400  48.249  1.00  0.00     0.000 A 
HETATM   17  C14 UNL     1      27.989   5.123  48.576  1.00  0.00     0.001 A 
HETATM   18  C15 UNL     1      27.070   4.216  49.064  1.00  0.00     0.013 A 
ENDBRANCH  12  13
ENDBRANCH   1  11
BRANCH   1  19
HETATM   19  C16 UNL     1      22.184   2.623  50.760  1.00  0.00     0.192 A 
HETATM   20  N3  UNL     1      21.449   2.110  49.950  1.00  0.00    -0.198 NA
HETATM   21  C17 UNL     1      20.229   2.600  49.691  1.00  0.00     0.171 A 
HETATM   22  C18 UNL     1      19.750   3.760  50.373  1.00  0.00     0.111 A 
HETATM   23  S1  UNL     1      21.203   4.120  51.444  1.00  0.00    -0.058 SA
BRANCH  21  24
HETATM   24  O1  UNL     1      19.491   1.890  48.721  1.00  0.00    -0.344 OA
HETATM   25  H15 UNL     1      19.089   0.985  48.985  1.00  0.00     0.219 HD
ENDBRANCH  21  24
ENDBRANCH   1  19
TORSDOF 6
ENDMDL
MODEL 7
REMARK VINA RESULT:      -7.5      2.066      2.752
REMARK  6 active torsions:
REMARK  status: ('A' for Active; 'I' for Inactive)
REMARK    1  A    between atoms: C2_2  and  C3_3 
REMARK    2  A    between atoms: C2_2  and  N1_10 
REMARK    3  A    between atoms: N1_10  and  N2_11 
REMARK    4  A    between atoms: N1_10  and  C16_19 
REMARK    5  A    between atoms: C9_12  and  C10_13 
REMARK    6  A    between atoms: C17_21  and  O1_22 
ROOT
HETATM    1  N1  UNL     1      24.463   2.493  50.791  1.00  0.00    -0.238 N 
ENDROOT
BRANCH   1   2
HETATM    2  C2  UNL     1      24.466   2.033  52.160  1.00  0.00     0.141 C 
HETATM    3  C1  UNL     1      24.217   3.172  53.141  1.00  0.00     0.040 C 
BRANCH   2   4
HETATM    4  C3  UNL     1      25.757   1.379  52.522  1.00  0.00    -0.034 A 
HETATM    5  C4  UNL     1      26.010   0.052  52.261  1.00  0.00     0.011 A 
HETATM    6  C5  UNL     1      27.204  -0.527  52.603  1.00  0.00     0.024 A 
HETATM    7  C6  UNL     1      28.211   0.198  53.227  1.00  0.00     0.034 A 
HETATM    8 CL1  UNL     1      29.757  -0.493  53.687  1.00  0.00    -0.084 Cl
HETATM    9  C7  UNL     1      27.982   1.538  53.504  1.00  0.00     0.024 A 
HETATM   10  C8  UNL     1      26.759   2.102  53.145  1.00  0.00     0.011 A 
ENDBRANCH   2   4
ENDBRANCH   1   2
BRANCH   1  11
HETATM   11  N2  UNL     1      25.398   3.139  49.941  1.00  0.00    -0.181 NA
HETATM   12  C9  UNL     1      25.524   4.398  50.057  1.00  0.00     0.150 C 
BRANCH  12  13
HETATM   13  C10 UNL     1      26.457   5.202  49.240  1.00  0.00    -0.017 A 
HETATM   14  C11 UNL     1      27.737   4.796  48.848  1.00  0.00     0.013 A 
HETATM   15  C12 UNL     1      28.492   5.661  48.083  1.00  0.00     0.001 A 
HETATM   16  C13 UNL     1      28.033   6.915  47.687  1.00  0.00     0.000 A 
HETATM   17  C14 UNL     1      26.763   7.312  48.079  1.00  0.00     0.001 A 
HETATM   18  C15 UNL     1      26.004   6.451  48.845  1.00  0.00     0.013 A 
ENDBRANCH  12  13
ENDBRANCH   1  11
BRANCH   1  19
HETATM   19  C16 UNL     1      23.290   2.296  50.035  1.00  0.00     0.192 A 
HETATM   20  N3  UNL     1      22.840   2.657  48.973  1.00  0.00    -0.198 NA
HETATM   21  C17 UNL     1      21.634   2.260  48.543  1.00  0.00     0.171 A 
HETATM   22  C18 UNL     1      20.830   1.385  49.337  1.00  0.00     0.111 A 
HETATM   23  S1  UNL     1      21.944   1.158  50.786  1.00  0.00    -0.058 SA
BRANCH  21  24
HETATM   24  O1  UNL     1      21.249   2.766  47.285  1.00  0.00    -0.344 OA
HETATM   25  H15 UNL     1      21.154   3.780  47.178  1.00  0.00     0.219 HD
ENDBRANCH  21  24
ENDBRANCH   1  19
TORSDOF 6
ENDMDL
MODEL 8
REMARK VINA RESULT:      -7.3      2.374      5.310
REMARK  6 active torsions:
REMARK  status: ('A' for Active; 'I' for Inactive)
REMARK    1  A    between atoms: C2_2  and  C3_3 
REMARK    2  A    between atoms: C2_2  and  N1_10 
REMARK    3  A    between atoms: N1_10  and  N2_11 
REMARK    4  A    between atoms: N1_10  and  C16_19 
REMARK    5  A    between atoms: C9_12  and  C10_13 
REMARK    6  A    between atoms: C17_21  and  O1_22 
ROOT
HETATM    1  N1  UNL     1      24.565   2.419  51.007  1.00  0.00    -0.238 N 
ENDROOT
BRANCH   1   2
HETATM    2  C2  UNL     1      25.914   2.897  51.193  1.00  0.00     0.141 C 
HETATM    3  C1  UNL     1      26.585   3.235  49.868  1.00  0.00     0.040 C 
BRANCH   2   4
HETATM    4  C3  UNL     1      26.763   1.897  51.904  1.00  0.00    -0.034 A 
HETATM    5  C4  UNL     1      26.581   0.541  51.761  1.00  0.00     0.011 A 
HETATM    6  C5  UNL     1      27.374  -0.359  52.425  1.00  0.00     0.024 A 
HETATM    7  C6  UNL     1      28.394   0.057  53.270  1.00  0.00     0.034 A 
HETATM    8 CL1  UNL     1      29.438  -1.051  54.144  1.00  0.00    -0.084 Cl
HETATM    9  C7  UNL     1      28.599   1.419  53.434  1.00  0.00     0.024 A 
HETATM   10  C8  UNL     1      27.779   2.312  52.747  1.00  0.00     0.011 A 
ENDBRANCH   2   4
ENDBRANCH   1   2
BRANCH   1  11
HETATM   11  N2  UNL     1      23.807   1.321  51.490  1.00  0.00    -0.181 NA
HETATM   12  C9  UNL     1      23.263   1.441  52.633  1.00  0.00     0.150 C 
BRANCH  12  13
HETATM   13  C10 UNL     1      22.447   0.381  53.261  1.00  0.00    -0.017 A 
HETATM   14  C11 UNL     1      22.943  -0.629  54.092  1.00  0.00     0.013 A 
HETATM   15  C12 UNL     1      22.051  -1.550  54.605  1.00  0.00     0.001 A 
HETATM   16  C13 UNL     1      20.687  -1.513  54.331  1.00  0.00     0.000 A 
HETATM   17  C14 UNL     1      20.201  -0.509  53.507  1.00  0.00     0.001 A 
HETATM   18  C15 UNL     1      21.087   0.414  52.990  1.00  0.00     0.013 A 
ENDBRANCH  12  13
ENDBRANCH   1  11
BRANCH   1  19
HETATM   19  C16 UNL     1      23.719   3.156  50.153  1.00  0.00     0.192 A 
HETATM   20  N3  UNL     1      23.165   2.999  49.091  1.00  0.00    -0.198 NA
HETATM   21  C17 UNL     1      22.400   3.954  48.543  1.00  0.00     0.171 A 
HETATM   22  C18 UNL     1      22.213   5.206  49.205  1.00  0.00     0.111 A 
HETATM   23  S1  UNL     1      23.233   4.923  50.712  1.00  0.00    -0.058 SA
BRANCH  21  24
HETATM   24  O1  UNL     1      21.821   3.620  47.302  1.00  0.00    -0.344 OA
HETATM   25  H15 UNL     1      22.116   4.145  46.472  1.00  0.00     0.219 HD
ENDBRANCH  21  24
ENDBRANCH   1  19
TORSDOF 6
ENDMDL
MODEL 9
REMARK VINA RESULT:      -7.1      7.360     10.732
REMARK  6 active torsions:
REMARK  status: ('A' for Active; 'I' for Inactive)
REMARK    1  A    between atoms: C2_2  and  C3_3 
REMARK    2  A    between atoms: C2_2  and  N1_10 
REMARK    3  A    between atoms: N1_10  and  N2_11 
REMARK    4  A    between atoms: N1_10  and  C16_19 
REMARK    5  A    between atoms: C9_12  and  C10_13 
REMARK    6  A    between atoms: C17_21  and  O1_22 
ROOT
HETATM    1  N1  UNL     1      31.431   6.431  48.079  1.00  0.00    -0.238 N 
ENDROOT
BRANCH   1   2
HETATM    2  C2  UNL     1      32.118   7.660  47.761  1.00  0.00     0.141 C 
HETATM    3  C1  UNL     1      33.436   7.785  48.515  1.00  0.00     0.040 C 
BRANCH   2   4
HETATM    4  C3  UNL     1      31.286   8.857  48.074  1.00  0.00    -0.034 A 
HETATM    5  C4  UNL     1      31.213   9.394  49.340  1.00  0.00     0.011 A 
HETATM    6  C5  UNL     1      30.441  10.496  49.603  1.00  0.00     0.024 A 
HETATM    7  C6  UNL     1      29.699  11.118  48.608  1.00  0.00     0.034 A 
HETATM    8 CL1  UNL     1      28.694  12.529  48.890  1.00  0.00    -0.084 Cl
HETATM    9  C7  UNL     1      29.753  10.597  47.323  1.00  0.00     0.024 A 
HETATM   10  C8  UNL     1      30.546   9.476  47.083  1.00  0.00     0.011 A 
ENDBRANCH   2   4
ENDBRANCH   1   2
BRANCH   1  11
HETATM   11  N2  UNL     1      30.183   6.094  48.664  1.00  0.00    -0.181 NA
HETATM   12  C9  UNL     1      29.169   6.048  47.899  1.00  0.00     0.150 C 
BRANCH  12  13
HETATM   13  C10 UNL     1      27.809   5.711  48.368  1.00  0.00    -0.017 A 
HETATM   14  C11 UNL     1      27.426   4.477  48.903  1.00  0.00     0.013 A 
HETATM   15  C12 UNL     1      26.114   4.315  49.299  1.00  0.00     0.001 A 
HETATM   16  C13 UNL     1      25.162   5.324  49.188  1.00  0.00     0.000 A 
HETATM   17  C14 UNL     1      25.548   6.546  48.657  1.00  0.00     0.001 A 
HETATM   18  C15 UNL     1      26.859   6.714  48.259  1.00  0.00     0.013 A 
ENDBRANCH  12  13
ENDBRANCH   1  11
BRANCH   1  19
HETATM   19  C16 UNL     1      32.080   5.217  47.772  1.00  0.00     0.192 A 
HETATM   20  N3  UNL     1      32.348   4.180  48.331  1.00  0.00    -0.198 NA
HETATM   21  C17 UNL     1      33.007   3.191  47.712  1.00  0.00     0.171 A 
HETATM   22  C18 UNL     1      33.420   3.332  46.351  1.00  0.00     0.111 A 
HETATM   23  S1  UNL     1      32.785   5.024  46.001  1.00  0.00    -0.058 SA
BRANCH  21  24
HETATM   24  O1  UNL     1      33.245   2.044  48.497  1.00  0.00    -0.344 OA
HETATM   25  H15 UNL     1      33.243   1.130  48.034  1.00  0.00     0.219 HD
ENDBRANCH  21  24
ENDBRANCH   1  19
TORSDOF 6
ENDMDL
