MODEL 1
REMARK VINA RESULT:      -8.5      0.000      0.000
REMARK  3 active torsions:
REMARK  status: ('A' for Active; 'I' for Inactive)
REMARK    1  A    between atoms: C2_2  and  C3_3 
REMARK       I    between atoms: C3_3  and  N1_5 
REMARK    2  A    between atoms: N1_5  and  C4_6 
REMARK    3  A    between atoms: C8_10  and  C9_11 
ROOT
HETATM    1  C4  UNL     1      24.570   0.625  52.587  1.00  0.00     0.009 C 
HETATM    2  C5  UNL     1      24.211   1.524  51.691  1.00  0.00     0.017 C 
HETATM    3  C6  UNL     1      23.056   2.229  51.082  1.00  0.00     0.131 C 
HETATM    4  C7  UNL     1      23.455   3.574  50.575  1.00  0.00     0.021 C 
HETATM    5  C8  UNL     1      24.129   3.732  49.446  1.00  0.00     0.027 C 
HETATM    6  N3  UNL     1      23.067   4.687  51.383  1.00  0.00    -0.374 N 
HETATM    7  C15 UNL     1      21.920   4.766  52.257  1.00  0.00     0.272 C 
HETATM    8  N4  UNL     1      21.471   3.421  52.550  1.00  0.00    -0.254 NA
HETATM    9  C16 UNL     1      21.944   2.350  52.059  1.00  0.00     0.135 C 
HETATM   10  N5  UNL     1      21.169   1.315  52.656  1.00  0.00    -0.249 NA
HETATM   11  C17 UNL     1      21.389   0.079  52.968  1.00  0.00     0.092 C 
HETATM   12  C18 UNL     1      22.572  -0.852  52.845  1.00  0.00     0.053 C 
HETATM   13  C19 UNL     1      23.749  -0.180  53.519  1.00  0.00     0.062 C 
HETATM   14  H20 UNL     1      23.672   5.560  51.353  1.00  0.00     0.161 HD
ENDROOT
BRANCH   5  15
HETATM   15  C9  UNL     1      24.531   5.032  48.930  1.00  0.00     0.027 C 
HETATM   16  C10 UNL     1      25.812   5.360  48.889  1.00  0.00     0.006 C 
HETATM   17  C11 UNL     1      26.975   4.536  49.323  1.00  0.00     0.058 C 
HETATM   18  N2  UNL     1      26.380   6.577  48.419  1.00  0.00    -0.388 N 
HETATM   19  C12 UNL     1      28.109   5.054  48.483  1.00  0.00     0.026 C 
HETATM   20  C13 UNL     1      27.755   6.433  48.027  1.00  0.00     0.122 C 
HETATM   21  C14 UNL     1      25.666   7.855  48.333  1.00  0.00     0.149 C 
ENDBRANCH   5  15
BRANCH   1  22
HETATM   22  N1  UNL     1      25.975   0.419  52.647  1.00  0.00    -0.331 N 
HETATM   23  C3  UNL     1      26.693   1.150  53.617  1.00  0.00     0.221 C 
HETATM   24  O1  UNL     1      26.254   1.982  54.458  1.00  0.00    -0.273 OA
HETATM   25  H6  UNL     1      26.579  -0.212  52.066  1.00  0.00     0.168 HD
BRANCH  23  26
HETATM   26  C2  UNL     1      28.167   1.093  53.859  1.00  0.00     0.098 C 
HETATM   27  C1  UNL     1      28.701   2.496  53.627  1.00  0.00     0.014 C 
ENDBRANCH  23  26
ENDBRANCH   1  22
TORSDOF 3
ENDMDL
MODEL 2
REMARK VINA RESULT:      -8.4      1.154      1.762
REMARK  3 active torsions:
REMARK  status: ('A' for Active; 'I' for Inactive)
REMARK    1  A    between atoms: C2_2  and  C3_3 
REMARK       I    between atoms: C3_3  and  N1_5 
REMARK    2  A    between atoms: N1_5  and  C4_6 
REMARK    3  A    between atoms: C8_10  and  C9_11 
ROOT
HETATM    1  C4  UNL     1      24.963   0.090  53.082  1.00  0.00     0.009 C 
HETATM    2  C5  UNL     1      24.954   1.041  52.169  1.00  0.00     0.017 C 
HETATM    3  C6  UNL     1      24.092   1.989  51.421  1.00  0.00     0.131 C 
HETATM    4  C7  UNL     1      24.857   3.204  51.014  1.00  0.00     0.021 C 
HETATM    5  C8  UNL     1      25.707   3.195  49.998  1.00  0.00     0.027 C 
HETATM    6  N3  UNL     1      24.620   4.381  51.788  1.00  0.00    -0.374 N 
HETATM    7  C15 UNL     1      23.406   4.727  52.490  1.00  0.00     0.272 C 
HETATM    8  N4  UNL     1      22.623   3.523  52.678  1.00  0.00    -0.254 NA
HETATM    9  C16 UNL     1      22.907   2.369  52.231  1.00  0.00     0.135 C 
HETATM   10  N5  UNL     1      21.837   1.543  52.682  1.00  0.00    -0.249 NA
HETATM   11  C17 UNL     1      21.721   0.291  52.987  1.00  0.00     0.092 C 
HETATM   12  C18 UNL     1      22.666  -0.887  53.010  1.00  0.00     0.053 C 
HETATM   13  C19 UNL     1      23.853  -0.500  53.864  1.00  0.00     0.062 C 
HETATM   14  H20 UNL     1      25.406   5.091  51.869  1.00  0.00     0.161 HD
ENDROOT
BRANCH   5  15
HETATM   15  C9  UNL     1      26.465   4.365  49.581  1.00  0.00     0.027 C 
HETATM   16  C10 UNL     1      25.865   5.342  48.919  1.00  0.00     0.006 C 
HETATM   17  C11 UNL     1      24.432   5.418  48.517  1.00  0.00     0.058 C 
HETATM   18  N2  UNL     1      26.446   6.547  48.439  1.00  0.00    -0.388 N 
HETATM   19  C12 UNL     1      24.167   6.896  48.431  1.00  0.00     0.026 C 
HETATM   20  C13 UNL     1      25.477   7.591  48.241  1.00  0.00     0.122 C 
HETATM   21  C14 UNL     1      27.874   6.737  48.165  1.00  0.00     0.149 C 
ENDBRANCH   5  15
BRANCH   1  22
HETATM   22  N1  UNL     1      26.260  -0.434  53.338  1.00  0.00    -0.331 N 
HETATM   23  C3  UNL     1      27.059   0.254  54.276  1.00  0.00     0.221 C 
HETATM   24  O1  UNL     1      26.779   1.293  54.935  1.00  0.00    -0.273 OA
HETATM   25  H6  UNL     1      26.729  -1.277  52.926  1.00  0.00     0.168 HD
BRANCH  23  26
HETATM   26  C2  UNL     1      28.446  -0.113  54.698  1.00  0.00     0.098 C 
HETATM   27  C1  UNL     1      29.092  -0.806  53.511  1.00  0.00     0.014 C 
ENDBRANCH  23  26
ENDBRANCH   1  22
TORSDOF 3
ENDMDL
MODEL 3
REMARK VINA RESULT:      -7.9      2.630      7.174
REMARK  3 active torsions:
REMARK  status: ('A' for Active; 'I' for Inactive)
REMARK    1  A    between atoms: C2_2  and  C3_3 
REMARK       I    between atoms: C3_3  and  N1_5 
REMARK    2  A    between atoms: N1_5  and  C4_6 
REMARK    3  A    between atoms: C8_10  and  C9_11 
ROOT
HETATM    1  C4  UNL     1      25.163   2.423  53.249  1.00  0.00     0.009 C 
HETATM    2  C5  UNL     1      24.351   1.398  53.085  1.00  0.00     0.017 C 
HETATM    3  C6  UNL     1      24.238  -0.080  53.174  1.00  0.00     0.131 C 
HETATM    4  C7  UNL     1      22.832  -0.493  53.455  1.00  0.00     0.021 C 
HETATM    5  C8  UNL     1      21.895  -0.491  52.518  1.00  0.00     0.027 C 
HETATM    6  N3  UNL     1      22.553  -0.893  54.798  1.00  0.00    -0.374 N 
HETATM    7  C15 UNL     1      23.480  -1.482  55.737  1.00  0.00     0.272 C 
HETATM    8  N4  UNL     1      24.829  -1.201  55.291  1.00  0.00    -0.254 NA
HETATM    9  C16 UNL     1      25.153  -0.612  54.214  1.00  0.00     0.135 C 
HETATM   10  N5  UNL     1      26.578  -0.585  54.242  1.00  0.00    -0.249 NA
HETATM   11  C17 UNL     1      27.482   0.207  53.764  1.00  0.00     0.092 C 
HETATM   12  C18 UNL     1      27.455   1.478  52.950  1.00  0.00     0.053 C 
HETATM   13  C19 UNL     1      26.577   2.468  53.685  1.00  0.00     0.062 C 
HETATM   14  H20 UNL     1      21.567  -0.750  55.166  1.00  0.00     0.161 HD
ENDROOT
BRANCH   5  15
HETATM   15  C9  UNL     1      20.518  -0.890  52.765  1.00  0.00     0.027 C 
HETATM   16  C10 UNL     1      19.528  -0.281  52.130  1.00  0.00     0.006 C 
HETATM   17  C11 UNL     1      19.632   0.824  51.136  1.00  0.00     0.058 C 
HETATM   18  N2  UNL     1      18.135  -0.539  52.248  1.00  0.00    -0.388 N 
HETATM   19  C12 UNL     1      18.394   0.663  50.298  1.00  0.00     0.026 C 
HETATM   20  C13 UNL     1      17.390  -0.104  51.098  1.00  0.00     0.122 C 
HETATM   21  C14 UNL     1      17.497  -1.178  53.403  1.00  0.00     0.149 C 
ENDBRANCH   5  15
BRANCH   1  22
HETATM   22  N1  UNL     1      24.556   3.675  52.954  1.00  0.00    -0.331 N 
HETATM   23  C3  UNL     1      24.346   3.986  51.594  1.00  0.00     0.221 C 
HETATM   24  O1  UNL     1      24.629   3.293  50.577  1.00  0.00    -0.273 OA
HETATM   25  H6  UNL     1      24.230   4.426  53.611  1.00  0.00     0.168 HD
BRANCH  23  26
HETATM   26  C2  UNL     1      23.730   5.236  51.054  1.00  0.00     0.098 C 
HETATM   27  C1  UNL     1      24.872   6.107  50.561  1.00  0.00     0.014 C 
ENDBRANCH  23  26
ENDBRANCH   1  22
TORSDOF 3
ENDMDL
MODEL 4
REMARK VINA RESULT:      -7.9      2.555      6.421
REMARK  3 active torsions:
REMARK  status: ('A' for Active; 'I' for Inactive)
REMARK    1  A    between atoms: C2_2  and  C3_3 
REMARK       I    between atoms: C3_3  and  N1_5 
REMARK    2  A    between atoms: N1_5  and  C4_6 
REMARK    3  A    between atoms: C8_10  and  C9_11 
ROOT
HETATM    1  C4  UNL     1      24.886   2.286  52.553  1.00  0.00     0.009 C 
HETATM    2  C5  UNL     1      23.850   1.515  52.289  1.00  0.00     0.017 C 
HETATM    3  C6  UNL     1      23.282   0.154  52.458  1.00  0.00     0.131 C 
HETATM    4  C7  UNL     1      21.791   0.191  52.452  1.00  0.00     0.021 C 
HETATM    5  C8  UNL     1      21.093   0.328  51.335  1.00  0.00     0.027 C 
HETATM    6  N3  UNL     1      21.157   0.069  53.727  1.00  0.00    -0.374 N 
HETATM    7  C15 UNL     1      21.667  -0.624  54.887  1.00  0.00     0.272 C 
HETATM    8  N4  UNL     1      23.097  -0.793  54.729  1.00  0.00    -0.254 NA
HETATM    9  C16 UNL     1      23.782  -0.468  53.711  1.00  0.00     0.135 C 
HETATM   10  N5  UNL     1      25.116  -0.836  54.049  1.00  0.00    -0.249 NA
HETATM   11  C17 UNL     1      26.290  -0.399  53.726  1.00  0.00     0.092 C 
HETATM   12  C18 UNL     1      26.801   0.708  52.836  1.00  0.00     0.053 C 
HETATM   13  C19 UNL     1      26.139   1.992  53.285  1.00  0.00     0.062 C 
HETATM   14  H20 UNL     1      20.208   0.529  53.857  1.00  0.00     0.161 HD
ENDROOT
BRANCH   5  15
HETATM   15  C9  UNL     1      19.639   0.367  51.301  1.00  0.00     0.027 C 
HETATM   16  C10 UNL     1      19.002   1.507  51.515  1.00  0.00     0.006 C 
HETATM   17  C11 UNL     1      19.600   2.841  51.803  1.00  0.00     0.058 C 
HETATM   18  N2  UNL     1      17.596   1.727  51.519  1.00  0.00    -0.388 N 
HETATM   19  C12 UNL     1      18.562   3.809  51.307  1.00  0.00     0.026 C 
HETATM   20  C13 UNL     1      17.248   3.098  51.265  1.00  0.00     0.122 C 
HETATM   21  C14 UNL     1      16.588   0.688  51.752  1.00  0.00     0.149 C 
ENDBRANCH   5  15
BRANCH   1  22
HETATM   22  N1  UNL     1      24.751   3.606  52.042  1.00  0.00    -0.331 N 
HETATM   23  C3  UNL     1      25.248   3.848  50.743  1.00  0.00     0.221 C 
HETATM   24  O1  UNL     1      25.808   3.040  49.953  1.00  0.00    -0.273 OA
HETATM   25  H6  UNL     1      24.327   4.453  52.493  1.00  0.00     0.168 HD
BRANCH  23  26
HETATM   26  C2  UNL     1      25.215   5.150  50.009  1.00  0.00     0.098 C 
HETATM   27  C1  UNL     1      26.413   5.155  49.076  1.00  0.00     0.014 C 
ENDBRANCH  23  26
ENDBRANCH   1  22
TORSDOF 3
ENDMDL
MODEL 5
REMARK VINA RESULT:      -7.9      2.587      5.222
REMARK  3 active torsions:
REMARK  status: ('A' for Active; 'I' for Inactive)
REMARK    1  A    between atoms: C2_2  and  C3_3 
REMARK       I    between atoms: C3_3  and  N1_5 
REMARK    2  A    between atoms: N1_5  and  C4_6 
REMARK    3  A    between atoms: C8_10  and  C9_11 
ROOT
HETATM    1  C4  UNL     1      24.024   0.002  53.144  1.00  0.00     0.009 C 
HETATM    2  C5  UNL     1      24.032   1.307  52.954  1.00  0.00     0.017 C 
HETATM    3  C6  UNL     1      24.889   2.518  52.925  1.00  0.00     0.131 C 
HETATM    4  C7  UNL     1      24.324   3.553  52.011  1.00  0.00     0.021 C 
HETATM    5  C8  UNL     1      23.291   4.308  52.353  1.00  0.00     0.027 C 
HETATM    6  N3  UNL     1      24.963   3.682  50.740  1.00  0.00    -0.374 N 
HETATM    7  C15 UNL     1      26.346   3.398  50.432  1.00  0.00     0.272 C 
HETATM    8  N4  UNL     1      26.882   2.541  51.469  1.00  0.00    -0.254 NA
HETATM    9  C16 UNL     1      26.274   2.168  52.520  1.00  0.00     0.135 C 
HETATM   10  N5  UNL     1      27.220   1.351  53.204  1.00  0.00    -0.249 NA
HETATM   11  C17 UNL     1      27.137   0.344  54.011  1.00  0.00     0.092 C 
HETATM   12  C18 UNL     1      25.996  -0.442  54.611  1.00  0.00     0.053 C 
HETATM   13  C19 UNL     1      25.130  -0.927  53.469  1.00  0.00     0.062 C 
HETATM   14  H20 UNL     1      24.379   4.022  49.920  1.00  0.00     0.161 HD
ENDROOT
BRANCH   5  15
HETATM   15  C9  UNL     1      22.721   5.324  51.482  1.00  0.00     0.027 C 
HETATM   16  C10 UNL     1      21.593   5.082  50.832  1.00  0.00     0.006 C 
HETATM   17  C11 UNL     1      20.773   3.838  50.870  1.00  0.00     0.058 C 
HETATM   18  N2  UNL     1      20.899   5.952  49.947  1.00  0.00    -0.388 N 
HETATM   19  C12 UNL     1      19.386   4.318  50.545  1.00  0.00     0.026 C 
HETATM   20  C13 UNL     1      19.505   5.623  49.824  1.00  0.00     0.122 C 
HETATM   21  C14 UNL     1      21.510   7.072  49.224  1.00  0.00     0.149 C 
ENDBRANCH   5  15
BRANCH   1  22
HETATM   22  N1  UNL     1      22.734  -0.579  53.008  1.00  0.00    -0.331 N 
HETATM   23  C3  UNL     1      22.106  -1.038  54.185  1.00  0.00     0.221 C 
HETATM   24  O1  UNL     1      22.538  -1.005  55.370  1.00  0.00    -0.273 OA
HETATM   25  H6  UNL     1      22.158  -0.725  52.142  1.00  0.00     0.168 HD
BRANCH  23  26
HETATM   26  C2  UNL     1      20.758  -1.679  54.280  1.00  0.00     0.098 C 
HETATM   27  C1  UNL     1      19.790  -0.764  53.551  1.00  0.00     0.014 C 
ENDBRANCH  23  26
ENDBRANCH   1  22
TORSDOF 3
ENDMDL
MODEL 6
REMARK VINA RESULT:      -7.6      2.454      4.357
REMARK  3 active torsions:
REMARK  status: ('A' for Active; 'I' for Inactive)
REMARK    1  A    between atoms: C2_2  and  C3_3 
REMARK       I    between atoms: C3_3  and  N1_5 
REMARK    2  A    between atoms: N1_5  and  C4_6 
REMARK    3  A    between atoms: C8_10  and  C9_11 
ROOT
HETATM    1  C4  UNL     1      25.878   2.796  50.794  1.00  0.00     0.009 C 
HETATM    2  C5  UNL     1      26.373   3.707  49.980  1.00  0.00     0.017 C 
HETATM    3  C6  UNL     1      26.028   4.820  49.061  1.00  0.00     0.131 C 
HETATM    4  C7  UNL     1      27.141   5.812  48.980  1.00  0.00     0.021 C 
HETATM    5  C8  UNL     1      28.238   5.585  48.273  1.00  0.00     0.027 C 
HETATM    6  N3  UNL     1      26.953   7.024  49.712  1.00  0.00    -0.374 N 
HETATM    7  C15 UNL     1      25.695   7.660  50.029  1.00  0.00     0.272 C 
HETATM    8  N4  UNL     1      24.638   6.679  49.898  1.00  0.00    -0.254 NA
HETATM    9  C16 UNL     1      24.772   5.484  49.492  1.00  0.00     0.135 C 
HETATM   10  N5  UNL     1      23.455   4.943  49.545  1.00  0.00    -0.249 NA
HETATM   11  C17 UNL     1      22.964   3.760  49.726  1.00  0.00     0.092 C 
HETATM   12  C18 UNL     1      23.557   2.391  49.966  1.00  0.00     0.053 C 
HETATM   13  C19 UNL     1      24.475   2.499  51.164  1.00  0.00     0.062 C 
HETATM   14  H20 UNL     1      27.817   7.528  50.071  1.00  0.00     0.161 HD
ENDROOT
BRANCH   5  15
HETATM   15  C9  UNL     1      29.337   6.534  48.177  1.00  0.00     0.027 C 
HETATM   16  C10 UNL     1      30.555   6.108  47.885  1.00  0.00     0.006 C 
HETATM   17  C11 UNL     1      30.989   4.707  47.623  1.00  0.00     0.058 C 
HETATM   18  N2  UNL     1      31.737   6.889  47.751  1.00  0.00    -0.388 N 
HETATM   19  C12 UNL     1      32.194   4.868  46.739  1.00  0.00     0.026 C 
HETATM   20  C13 UNL     1      32.740   6.244  46.947  1.00  0.00     0.122 C 
HETATM   21  C14 UNL     1      31.940   8.210  48.353  1.00  0.00     0.149 C 
ENDBRANCH   5  15
BRANCH   1  22
HETATM   22  N1  UNL     1      26.874   1.983  51.402  1.00  0.00    -0.331 N 
HETATM   23  C3  UNL     1      26.904   1.948  52.813  1.00  0.00     0.221 C 
HETATM   24  O1  UNL     1      26.154   2.550  53.630  1.00  0.00    -0.273 OA
HETATM   25  H6  UNL     1      27.611   1.388  50.952  1.00  0.00     0.168 HD
BRANCH  23  26
HETATM   26  C2  UNL     1      27.857   1.168  53.660  1.00  0.00     0.098 C 
HETATM   27  C1  UNL     1      27.012   0.321  54.597  1.00  0.00     0.014 C 
ENDBRANCH  23  26
ENDBRANCH   1  22
TORSDOF 3
ENDMDL
MODEL 7
REMARK VINA RESULT:      -7.6      5.866     10.287
REMARK  3 active torsions:
REMARK  status: ('A' for Active; 'I' for Inactive)
REMARK    1  A    between atoms: C2_2  and  C3_3 
REMARK       I    between atoms: C3_3  and  N1_5 
REMARK    2  A    between atoms: N1_5  and  C4_6 
REMARK    3  A    between atoms: C8_10  and  C9_11 
ROOT
HETATM    1  C4  UNL     1      33.218   4.529  45.717  1.00  0.00     0.009 C 
HETATM    2  C5  UNL     1      32.249   4.782  46.575  1.00  0.00     0.017 C 
HETATM    3  C6  UNL     1      31.936   5.033  48.004  1.00  0.00     0.131 C 
HETATM    4  C7  UNL     1      30.712   5.875  48.145  1.00  0.00     0.021 C 
HETATM    5  C8  UNL     1      29.494   5.382  47.978  1.00  0.00     0.027 C 
HETATM    6  N3  UNL     1      30.932   7.248  48.471  1.00  0.00    -0.374 N 
HETATM    7  C15 UNL     1      32.044   7.796  49.214  1.00  0.00     0.272 C 
HETATM    8  N4  UNL     1      33.128   6.836  49.194  1.00  0.00    -0.254 NA
HETATM    9  C16 UNL     1      33.089   5.672  48.687  1.00  0.00     0.135 C 
HETATM   10  N5  UNL     1      34.388   5.139  48.926  1.00  0.00    -0.249 NA
HETATM   11  C17 UNL     1      35.144   4.280  48.322  1.00  0.00     0.092 C 
HETATM   12  C18 UNL     1      35.007   3.438  47.076  1.00  0.00     0.053 C 
HETATM   13  C19 UNL     1      34.674   4.372  45.933  1.00  0.00     0.062 C 
HETATM   14  H20 UNL     1      30.214   7.959  48.144  1.00  0.00     0.161 HD
ENDROOT
BRANCH   5  15
HETATM   15  C9  UNL     1      28.285   6.181  48.110  1.00  0.00     0.027 C 
HETATM   16  C10 UNL     1      27.179   5.633  48.589  1.00  0.00     0.006 C 
HETATM   17  C11 UNL     1      26.985   4.227  49.042  1.00  0.00     0.058 C 
HETATM   18  N2  UNL     1      25.917   6.260  48.785  1.00  0.00    -0.388 N 
HETATM   19  C12 UNL     1      25.869   4.329  50.044  1.00  0.00     0.026 C 
HETATM   20  C13 UNL     1      25.109   5.586  49.765  1.00  0.00     0.122 C 
HETATM   21  C14 UNL     1      25.461   7.462  48.081  1.00  0.00     0.149 C 
ENDBRANCH   5  15
BRANCH   1  22
HETATM   22  N1  UNL     1      32.762   4.391  44.377  1.00  0.00    -0.331 N 
HETATM   23  C3  UNL     1      33.090   5.427  43.475  1.00  0.00     0.221 C 
HETATM   24  O1  UNL     1      33.744   6.482  43.696  1.00  0.00    -0.273 OA
HETATM   25  H6  UNL     1      32.204   3.617  43.941  1.00  0.00     0.168 HD
BRANCH  23  26
HETATM   26  C2  UNL     1      32.718   5.493  42.029  1.00  0.00     0.098 C 
HETATM   27  C1  UNL     1      33.166   4.182  41.405  1.00  0.00     0.014 C 
ENDBRANCH  23  26
ENDBRANCH   1  22
TORSDOF 3
ENDMDL
MODEL 8
REMARK VINA RESULT:      -7.3      2.797      5.124
REMARK  3 active torsions:
REMARK  status: ('A' for Active; 'I' for Inactive)
REMARK    1  A    between atoms: C2_2  and  C3_3 
REMARK       I    between atoms: C3_3  and  N1_5 
REMARK    2  A    between atoms: N1_5  and  C4_6 
REMARK    3  A    between atoms: C8_10  and  C9_11 
ROOT
HETATM    1  C4  UNL     1      22.163   0.388  52.385  1.00  0.00     0.009 C 
HETATM    2  C5  UNL     1      22.742   1.567  52.499  1.00  0.00     0.017 C 
HETATM    3  C6  UNL     1      23.923   2.286  53.038  1.00  0.00     0.131 C 
HETATM    4  C7  UNL     1      24.222   3.506  52.232  1.00  0.00     0.021 C 
HETATM    5  C8  UNL     1      23.511   4.617  52.345  1.00  0.00     0.027 C 
HETATM    6  N3  UNL     1      25.324   3.404  51.328  1.00  0.00    -0.374 N 
HETATM    7  C15 UNL     1      26.489   2.563  51.473  1.00  0.00     0.272 C 
HETATM    8  N4  UNL     1      26.183   1.511  52.420  1.00  0.00    -0.254 NA
HETATM    9  C16 UNL     1      25.106   1.389  53.081  1.00  0.00     0.135 C 
HETATM   10  N5  UNL     1      25.300   0.211  53.859  1.00  0.00    -0.249 NA
HETATM   11  C17 UNL     1      24.517  -0.696  54.346  1.00  0.00     0.092 C 
HETATM   12  C18 UNL     1      23.026  -0.937  54.319  1.00  0.00     0.053 C 
HETATM   13  C19 UNL     1      22.595  -0.943  52.868  1.00  0.00     0.062 C 
HETATM   14  H20 UNL     1      25.305   4.002  50.450  1.00  0.00     0.161 HD
ENDROOT
BRANCH   5  15
HETATM   15  C9  UNL     1      23.781   5.820  51.571  1.00  0.00     0.027 C 
HETATM   16  C10 UNL     1      22.853   6.310  50.764  1.00  0.00     0.006 C 
HETATM   17  C11 UNL     1      21.485   5.772  50.521  1.00  0.00     0.058 C 
HETATM   18  N2  UNL     1      22.944   7.467  49.942  1.00  0.00    -0.388 N 
HETATM   19  C12 UNL     1      20.696   6.983  50.108  1.00  0.00     0.026 C 
HETATM   20  C13 UNL     1      21.657   8.013  49.607  1.00  0.00     0.122 C 
HETATM   21  C14 UNL     1      24.199   8.062  49.470  1.00  0.00     0.149 C 
ENDBRANCH   5  15
BRANCH   1  22
HETATM   22  N1  UNL     1      20.929   0.431  51.680  1.00  0.00    -0.331 N 
HETATM   23  C3  UNL     1      19.760   0.124  52.408  1.00  0.00     0.221 C 
HETATM   24  O1  UNL     1      19.652  -0.191  53.625  1.00  0.00    -0.273 OA
HETATM   25  H6  UNL     1      20.747   0.663  50.673  1.00  0.00     0.168 HD
BRANCH  23  26
HETATM   26  C2  UNL     1      18.363   0.107  51.876  1.00  0.00     0.098 C 
HETATM   27  C1  UNL     1      18.448   0.527  50.418  1.00  0.00     0.014 C 
ENDBRANCH  23  26
ENDBRANCH   1  22
TORSDOF 3
ENDMDL
MODEL 9
REMARK VINA RESULT:      -7.0      3.504      7.106
REMARK  3 active torsions:
REMARK  status: ('A' for Active; 'I' for Inactive)
REMARK    1  A    between atoms: C2_2  and  C3_3 
REMARK       I    between atoms: C3_3  and  N1_5 
REMARK    2  A    between atoms: N1_5  and  C4_6 
REMARK    3  A    between atoms: C8_10  and  C9_11 
ROOT
HETATM    1  C4  UNL     1      25.629   5.657  49.673  1.00  0.00     0.009 C 
HETATM    2  C5  UNL     1      26.792   5.828  49.075  1.00  0.00     0.017 C 
HETATM    3  C6  UNL     1      27.511   6.599  48.031  1.00  0.00     0.131 C 
HETATM    4  C7  UNL     1      28.967   6.700  48.347  1.00  0.00     0.021 C 
HETATM    5  C8  UNL     1      29.801   5.689  48.156  1.00  0.00     0.027 C 
HETATM    6  N3  UNL     1      29.408   7.954  48.869  1.00  0.00    -0.374 N 
HETATM    7  C15 UNL     1      28.828   9.252  48.614  1.00  0.00     0.272 C 
HETATM    8  N4  UNL     1      27.477   9.065  48.126  1.00  0.00    -0.254 NA
HETATM    9  C16 UNL     1      26.918   7.952  47.879  1.00  0.00     0.135 C 
HETATM   10  N5  UNL     1      25.613   8.304  47.429  1.00  0.00    -0.249 NA
HETATM   11  C17 UNL     1      24.453   7.733  47.467  1.00  0.00     0.092 C 
HETATM   12  C18 UNL     1      23.934   6.421  48.006  1.00  0.00     0.053 C 
HETATM   13  C19 UNL     1      24.333   6.340  49.463  1.00  0.00     0.062 C 
HETATM   14  H20 UNL     1      30.252   7.956  49.514  1.00  0.00     0.161 HD
ENDROOT
BRANCH   5  15
HETATM   15  C9  UNL     1      31.224   5.761  48.455  1.00  0.00     0.027 C 
HETATM   16  C10 UNL     1      32.072   6.194  47.536  1.00  0.00     0.006 C 
HETATM   17  C11 UNL     1      31.757   6.647  46.152  1.00  0.00     0.058 C 
HETATM   18  N2  UNL     1      33.483   6.328  47.655  1.00  0.00    -0.388 N 
HETATM   19  C12 UNL     1      32.877   7.597  45.828  1.00  0.00     0.026 C 
HETATM   20  C13 UNL     1      34.031   7.276  46.722  1.00  0.00     0.122 C 
HETATM   21  C14 UNL     1      34.316   5.595  48.613  1.00  0.00     0.149 C 
ENDBRANCH   5  15
BRANCH   1  22
HETATM   22  N1  UNL     1      25.655   4.651  50.678  1.00  0.00    -0.331 N 
HETATM   23  C3  UNL     1      25.081   3.403  50.354  1.00  0.00     0.221 C 
HETATM   24  O1  UNL     1      24.537   3.045  49.274  1.00  0.00    -0.273 OA
HETATM   25  H6  UNL     1      26.045   4.694  51.651  1.00  0.00     0.168 HD
BRANCH  23  26
HETATM   26  C2  UNL     1      24.996   2.208  51.248  1.00  0.00     0.098 C 
HETATM   27  C1  UNL     1      26.423   1.750  51.499  1.00  0.00     0.014 C 
ENDBRANCH  23  26
ENDBRANCH   1  22
TORSDOF 3
ENDMDL
