MODEL 1
REMARK VINA RESULT:      -9.3      0.000      0.000
REMARK  2 active torsions:
REMARK  status: ('A' for Active; 'I' for Inactive)
REMARK    1  A    between atoms: C4_5  and  N1_6 
REMARK    2  A    between atoms: N1_6  and  C5_7 
ROOT
HETATM    1  C5  UNL     1      23.790  -0.204  53.630  1.00  0.00     0.158 A 
HETATM    2  N2  UNL     1      23.819  -0.899  54.772  1.00  0.00    -0.222 NA
HETATM    3  C6  UNL     1      22.747  -1.467  55.327  1.00  0.00     0.236 A 
HETATM    4  N3  UNL     1      21.524  -1.386  54.774  1.00  0.00    -0.239 NA
HETATM    5  C7  UNL     1      21.417  -0.697  53.612  1.00  0.00     0.099 A 
HETATM    6  C8  UNL     1      22.544  -0.122  53.067  1.00  0.00     0.105 A 
HETATM    7  N4  UNL     1      22.276   0.563  51.860  1.00  0.00    -0.381 N 
HETATM    8  C9  UNL     1      21.028   0.734  51.145  1.00  0.00     0.159 A 
HETATM    9  C10 UNL     1      19.890   0.071  51.831  1.00  0.00    -0.027 A 
HETATM   10  C11 UNL     1      18.674   0.195  51.209  1.00  0.00     0.028 A 
HETATM   11  C12 UNL     1      17.573  -0.410  51.816  1.00  0.00     0.011 A 
HETATM   12 BR1  UNL     1      15.803  -0.328  51.069  1.00  0.00    -0.051 Br
HETATM   13  C13 UNL     1      17.746  -1.108  53.013  1.00  0.00     0.020 A 
HETATM   14  C14 UNL     1      18.989  -1.198  53.591  1.00  0.00     0.016 A 
HETATM   15  C15 UNL     1      20.094  -0.609  53.012  1.00  0.00     0.003 A 
HETATM   16  H5  UNL     1      23.023   1.047  51.337  1.00  0.00     0.160 HD
ENDROOT
BRANCH   1  17
HETATM   17  N1  UNL     1      24.880   0.411  53.004  1.00  0.00    -0.339 N 
HETATM   18  H3  UNL     1      24.745   1.165  52.329  1.00  0.00     0.167 HD
BRANCH  17  19
HETATM   19  C4  UNL     1      26.257   0.123  53.181  1.00  0.00     0.035 A 
HETATM   20  C3  UNL     1      26.831  -1.067  52.867  1.00  0.00     0.032 A 
HETATM   21  C2  UNL     1      28.161  -1.362  53.028  1.00  0.00     0.046 A 
HETATM   22  C1  UNL     1      29.025  -0.418  53.545  1.00  0.00     0.138 A 
HETATM   23  F1  UNL     1      30.348  -0.612  53.743  1.00  0.00    -0.204 F 
HETATM   24  C17 UNL     1      28.498   0.796  53.879  1.00  0.00     0.074 A 
HETATM   25  C16 UNL     1      27.157   1.031  53.693  1.00  0.00     0.056 A 
HETATM   26 CL1  UNL     1      29.532   2.044  54.540  1.00  0.00    -0.081 Cl
ENDBRANCH  17  19
ENDBRANCH   1  17
TORSDOF 2
ENDMDL
MODEL 2
REMARK VINA RESULT:      -9.1      0.969      2.228
REMARK  2 active torsions:
REMARK  status: ('A' for Active; 'I' for Inactive)
REMARK    1  A    between atoms: C4_5  and  N1_6 
REMARK    2  A    between atoms: N1_6  and  C5_7 
ROOT
HETATM    1  C5  UNL     1      24.058   0.612  52.892  1.00  0.00     0.158 A 
HETATM    2  N2  UNL     1      24.340   1.379  51.834  1.00  0.00    -0.222 NA
HETATM    3  C6  UNL     1      23.442   1.743  50.916  1.00  0.00     0.236 A 
HETATM    4  N3  UNL     1      22.155   1.361  50.979  1.00  0.00    -0.239 NA
HETATM    5  C7  UNL     1      21.794   0.581  52.027  1.00  0.00     0.099 A 
HETATM    6  C8  UNL     1      22.746   0.223  52.957  1.00  0.00     0.105 A 
HETATM    7  N4  UNL     1      22.223  -0.592  53.987  1.00  0.00    -0.381 N 
HETATM    8  C9  UNL     1      20.875  -1.078  54.192  1.00  0.00     0.159 A 
HETATM    9  C10 UNL     1      19.943  -0.627  53.127  1.00  0.00    -0.027 A 
HETATM   10  C11 UNL     1      18.647  -1.055  53.257  1.00  0.00     0.028 A 
HETATM   11  C12 UNL     1      17.734  -0.657  52.279  1.00  0.00     0.011 A 
HETATM   12 BR1  UNL     1      15.882  -1.173  52.321  1.00  0.00    -0.051 Br
HETATM   13  C13 UNL     1      18.165   0.148  51.224  1.00  0.00     0.020 A 
HETATM   14  C14 UNL     1      19.477   0.546  51.145  1.00  0.00     0.016 A 
HETATM   15  C15 UNL     1      20.400   0.166  52.098  1.00  0.00     0.003 A 
HETATM   16  H5  UNL     1      22.818  -0.940  54.753  1.00  0.00     0.160 HD
ENDROOT
BRANCH   1  17
HETATM   17  N1  UNL     1      24.957   0.201  53.883  1.00  0.00    -0.339 N 
HETATM   18  H3  UNL     1      24.637  -0.024  54.826  1.00  0.00     0.167 HD
BRANCH  17  19
HETATM   19  C4  UNL     1      26.360   0.037  53.766  1.00  0.00     0.035 A 
HETATM   20  C3  UNL     1      26.955  -1.058  53.228  1.00  0.00     0.032 A 
HETATM   21  C2  UNL     1      28.310  -1.233  53.104  1.00  0.00     0.046 A 
HETATM   22  C1  UNL     1      29.180  -0.255  53.542  1.00  0.00     0.138 A 
HETATM   23  F1  UNL     1      30.527  -0.333  53.466  1.00  0.00    -0.204 F 
HETATM   24  C17 UNL     1      28.633   0.869  54.092  1.00  0.00     0.074 A 
HETATM   25  C16 UNL     1      27.267   0.984  54.188  1.00  0.00     0.056 A 
HETATM   26 CL1  UNL     1      29.672   2.152  54.671  1.00  0.00    -0.081 Cl
ENDBRANCH  17  19
ENDBRANCH   1  17
TORSDOF 2
ENDMDL
MODEL 3
REMARK VINA RESULT:      -8.8      5.738      9.034
REMARK  2 active torsions:
REMARK  status: ('A' for Active; 'I' for Inactive)
REMARK    1  A    between atoms: C4_5  and  N1_6 
REMARK    2  A    between atoms: N1_6  and  C5_7 
ROOT
HETATM    1  C5  UNL     1      18.938  -0.584  52.997  1.00  0.00     0.158 A 
HETATM    2  N2  UNL     1      18.655   0.145  51.912  1.00  0.00    -0.222 NA
HETATM    3  C6  UNL     1      19.566   0.813  51.203  1.00  0.00     0.236 A 
HETATM    4  N3  UNL     1      20.871   0.810  51.526  1.00  0.00    -0.239 NA
HETATM    5  C7  UNL     1      21.235   0.090  52.616  1.00  0.00     0.099 A 
HETATM    6  C8  UNL     1      20.268  -0.587  53.326  1.00  0.00     0.105 A 
HETATM    7  N4  UNL     1      20.797  -1.288  54.434  1.00  0.00    -0.381 N 
HETATM    8  C9  UNL     1      22.163  -1.390  54.903  1.00  0.00     0.159 A 
HETATM    9  C10 UNL     1      23.110  -0.618  54.057  1.00  0.00    -0.027 A 
HETATM   10  C11 UNL     1      24.423  -0.668  54.446  1.00  0.00     0.028 A 
HETATM   11  C12 UNL     1      25.351   0.043  53.684  1.00  0.00     0.011 A 
HETATM   12 BR1  UNL     1      27.228   0.072  54.098  1.00  0.00    -0.051 Br
HETATM   13  C13 UNL     1      24.915   0.765  52.572  1.00  0.00     0.020 A 
HETATM   14  C14 UNL     1      23.585   0.779  52.229  1.00  0.00     0.016 A 
HETATM   15  C15 UNL     1      22.648   0.085  52.967  1.00  0.00     0.003 A 
HETATM   16  H5  UNL     1      20.192  -1.840  55.061  1.00  0.00     0.160 HD
ENDROOT
BRANCH   1  17
HETATM   17  N1  UNL     1      18.025  -1.303  53.777  1.00  0.00    -0.339 N 
HETATM   18  H3  UNL     1      17.873  -1.073  54.760  1.00  0.00     0.167 HD
BRANCH  17  19
HETATM   19  C4  UNL     1      17.213  -2.393  53.375  1.00  0.00     0.035 A 
HETATM   20  C3  UNL     1      17.445  -3.684  53.725  1.00  0.00     0.032 A 
HETATM   21  C2  UNL     1      16.668  -4.751  53.349  1.00  0.00     0.046 A 
HETATM   22  C1  UNL     1      15.557  -4.554  52.555  1.00  0.00     0.138 A 
HETATM   23  F1  UNL     1      14.731  -5.537  52.131  1.00  0.00    -0.204 F 
HETATM   24  C17 UNL     1      15.277  -3.274  52.173  1.00  0.00     0.074 A 
HETATM   25  C16 UNL     1      16.095  -2.248  52.584  1.00  0.00     0.056 A 
HETATM   26 CL1  UNL     1      13.884  -2.946  51.167  1.00  0.00    -0.081 Cl
ENDBRANCH  17  19
ENDBRANCH   1  17
TORSDOF 2
ENDMDL
MODEL 4
REMARK VINA RESULT:      -8.5      5.622      7.741
REMARK  2 active torsions:
REMARK  status: ('A' for Active; 'I' for Inactive)
REMARK    1  A    between atoms: C4_5  and  N1_6 
REMARK    2  A    between atoms: N1_6  and  C5_7 
ROOT
HETATM    1  C5  UNL     1      23.196   3.028  51.355  1.00  0.00     0.158 A 
HETATM    2  N2  UNL     1      22.361   3.947  51.851  1.00  0.00    -0.222 NA
HETATM    3  C6  UNL     1      22.537   5.263  51.719  1.00  0.00     0.236 A 
HETATM    4  N3  UNL     1      23.590   5.785  51.066  1.00  0.00    -0.239 NA
HETATM    5  C7  UNL     1      24.481   4.912  50.535  1.00  0.00     0.099 A 
HETATM    6  C8  UNL     1      24.268   3.559  50.690  1.00  0.00     0.105 A 
HETATM    7  N4  UNL     1      25.279   2.777  50.086  1.00  0.00    -0.381 N 
HETATM    8  C9  UNL     1      26.459   3.188  49.353  1.00  0.00     0.159 A 
HETATM    9  C10 UNL     1      26.577   4.665  49.254  1.00  0.00    -0.027 A 
HETATM   10  C11 UNL     1      27.674   5.125  48.575  1.00  0.00     0.028 A 
HETATM   11  C12 UNL     1      27.830   6.507  48.456  1.00  0.00     0.011 A 
HETATM   12 BR1  UNL     1      29.314   7.307  47.532  1.00  0.00    -0.051 Br
HETATM   13  C13 UNL     1      26.878   7.355  49.023  1.00  0.00     0.020 A 
HETATM   14  C14 UNL     1      25.797   6.837  49.695  1.00  0.00     0.016 A 
HETATM   15  C15 UNL     1      25.621   5.475  49.827  1.00  0.00     0.003 A 
HETATM   16  H5  UNL     1      25.257   1.747  50.122  1.00  0.00     0.160 HD
ENDROOT
BRANCH   1  17
HETATM   17  N1  UNL     1      23.060   1.639  51.463  1.00  0.00    -0.339 N 
HETATM   18  H3  UNL     1      22.641   1.089  50.711  1.00  0.00     0.167 HD
BRANCH  17  19
HETATM   19  C4  UNL     1      23.448   0.812  52.546  1.00  0.00     0.035 A 
HETATM   20  C3  UNL     1      22.597   0.003  53.228  1.00  0.00     0.032 A 
HETATM   21  C2  UNL     1      22.956  -0.806  54.277  1.00  0.00     0.046 A 
HETATM   22  C1  UNL     1      24.265  -0.840  54.712  1.00  0.00     0.138 A 
HETATM   23  F1  UNL     1      24.717  -1.600  55.735  1.00  0.00    -0.204 F 
HETATM   24  C17 UNL     1      25.163  -0.044  54.061  1.00  0.00     0.074 A 
HETATM   25  C16 UNL     1      24.741   0.744  53.017  1.00  0.00     0.056 A 
HETATM   26 CL1  UNL     1      26.841  -0.033  54.556  1.00  0.00    -0.081 Cl
ENDBRANCH  17  19
ENDBRANCH   1  17
TORSDOF 2
ENDMDL
MODEL 5
REMARK VINA RESULT:      -8.4      4.205      5.476
REMARK  2 active torsions:
REMARK  status: ('A' for Active; 'I' for Inactive)
REMARK    1  A    between atoms: C4_5  and  N1_6 
REMARK    2  A    between atoms: N1_6  and  C5_7 
ROOT
HETATM    1  C5  UNL     1      24.756   2.386  52.751  1.00  0.00     0.158 A 
HETATM    2  N2  UNL     1      23.709   1.619  53.070  1.00  0.00    -0.222 NA
HETATM    3  C6  UNL     1      22.557   1.610  52.396  1.00  0.00     0.236 A 
HETATM    4  N3  UNL     1      22.349   2.388  51.320  1.00  0.00    -0.239 NA
HETATM    5  C7  UNL     1      23.369   3.195  50.936  1.00  0.00     0.099 A 
HETATM    6  C8  UNL     1      24.545   3.179  51.655  1.00  0.00     0.105 A 
HETATM    7  N4  UNL     1      25.512   4.071  51.137  1.00  0.00    -0.381 N 
HETATM    8  C9  UNL     1      25.439   4.961  49.997  1.00  0.00     0.159 A 
HETATM    9  C10 UNL     1      24.126   4.888  49.306  1.00  0.00    -0.027 A 
HETATM   10  C11 UNL     1      23.986   5.709  48.218  1.00  0.00     0.028 A 
HETATM   11  C12 UNL     1      22.769   5.677  47.535  1.00  0.00     0.011 A 
HETATM   12 BR1  UNL     1      22.418   6.766  45.990  1.00  0.00    -0.051 Br
HETATM   13  C13 UNL     1      21.756   4.825  47.978  1.00  0.00     0.020 A 
HETATM   14  C14 UNL     1      21.953   4.024  49.078  1.00  0.00     0.016 A 
HETATM   15  C15 UNL     1      23.146   4.038  49.770  1.00  0.00     0.003 A 
HETATM   16  H5  UNL     1      26.441   4.170  51.573  1.00  0.00     0.160 HD
ENDROOT
BRANCH   1  17
HETATM   17  N1  UNL     1      25.985   2.435  53.421  1.00  0.00    -0.339 N 
HETATM   18  H3  UNL     1      26.243   3.240  53.993  1.00  0.00     0.167 HD
BRANCH  17  19
HETATM   19  C4  UNL     1      27.009   1.455  53.425  1.00  0.00     0.035 A 
HETATM   20  C3  UNL     1      28.296   1.703  53.776  1.00  0.00     0.032 A 
HETATM   21  C2  UNL     1      29.299   0.767  53.789  1.00  0.00     0.046 A 
HETATM   22  C1  UNL     1      29.036  -0.539  53.426  1.00  0.00     0.138 A 
HETATM   23  F1  UNL     1      29.954  -1.532  53.405  1.00  0.00    -0.204 F 
HETATM   24  C17 UNL     1      27.756  -0.842  53.063  1.00  0.00     0.074 A 
HETATM   25  C16 UNL     1      26.795   0.141  53.071  1.00  0.00     0.056 A 
HETATM   26 CL1  UNL     1      27.346  -2.477  52.591  1.00  0.00    -0.081 Cl
ENDBRANCH  17  19
ENDBRANCH   1  17
TORSDOF 2
ENDMDL
MODEL 6
REMARK VINA RESULT:      -8.3      6.243      8.496
REMARK  2 active torsions:
REMARK  status: ('A' for Active; 'I' for Inactive)
REMARK    1  A    between atoms: C4_5  and  N1_6 
REMARK    2  A    between atoms: N1_6  and  C5_7 
ROOT
HETATM    1  C5  UNL     1      23.602   2.837  51.909  1.00  0.00     0.158 A 
HETATM    2  N2  UNL     1      22.697   3.695  52.390  1.00  0.00    -0.222 NA
HETATM    3  C6  UNL     1      22.691   5.002  52.121  1.00  0.00     0.236 A 
HETATM    4  N3  UNL     1      23.613   5.576  51.329  1.00  0.00    -0.239 NA
HETATM    5  C7  UNL     1      24.564   4.767  50.802  1.00  0.00     0.099 A 
HETATM    6  C8  UNL     1      24.541   3.422  51.101  1.00  0.00     0.105 A 
HETATM    7  N4  UNL     1      25.594   2.709  50.484  1.00  0.00    -0.381 N 
HETATM    8  C9  UNL     1      26.649   3.180  49.611  1.00  0.00     0.159 A 
HETATM    9  C10 UNL     1      26.567   4.643  49.364  1.00  0.00    -0.027 A 
HETATM   10  C11 UNL     1      27.539   5.158  48.547  1.00  0.00     0.028 A 
HETATM   11  C12 UNL     1      27.505   6.529  48.286  1.00  0.00     0.011 A 
HETATM   12 BR1  UNL     1      28.796   7.402  47.160  1.00  0.00    -0.051 Br
HETATM   13  C13 UNL     1      26.499   7.311  48.856  1.00  0.00     0.020 A 
HETATM   14  C14 UNL     1      25.551   6.739  49.669  1.00  0.00     0.016 A 
HETATM   15  C15 UNL     1      25.563   5.387  49.944  1.00  0.00     0.003 A 
HETATM   16  H5  UNL     1      25.708   1.693  50.618  1.00  0.00     0.160 HD
ENDROOT
BRANCH   1  17
HETATM   17  N1  UNL     1      23.656   1.460  52.157  1.00  0.00    -0.339 N 
HETATM   18  H3  UNL     1      24.508   0.925  51.981  1.00  0.00     0.167 HD
BRANCH  17  19
HETATM   19  C4  UNL     1      22.624   0.629  52.658  1.00  0.00     0.035 A 
HETATM   20  C3  UNL     1      22.769  -0.212  53.714  1.00  0.00     0.032 A 
HETATM   21  C2  UNL     1      21.780  -1.021  54.214  1.00  0.00     0.046 A 
HETATM   22  C1  UNL     1      20.525  -1.021  53.639  1.00  0.00     0.138 A 
HETATM   23  F1  UNL     1      19.488  -1.780  54.056  1.00  0.00    -0.204 F 
HETATM   24  C17 UNL     1      20.325  -0.192  52.573  1.00  0.00     0.074 A 
HETATM   25  C16 UNL     1      21.357   0.595  52.119  1.00  0.00     0.056 A 
HETATM   26 CL1  UNL     1      18.760  -0.137  51.792  1.00  0.00    -0.081 Cl
ENDBRANCH  17  19
ENDBRANCH   1  17
TORSDOF 2
ENDMDL
MODEL 7
REMARK VINA RESULT:      -8.1      5.475      7.004
REMARK  2 active torsions:
REMARK  status: ('A' for Active; 'I' for Inactive)
REMARK    1  A    between atoms: C4_5  and  N1_6 
REMARK    2  A    between atoms: N1_6  and  C5_7 
ROOT
HETATM    1  C5  UNL     1      25.934   3.310  50.772  1.00  0.00     0.158 A 
HETATM    2  N2  UNL     1      26.982   3.420  49.949  1.00  0.00    -0.222 NA
HETATM    3  C6  UNL     1      27.131   4.402  49.058  1.00  0.00     0.236 A 
HETATM    4  N3  UNL     1      26.222   5.381  48.909  1.00  0.00    -0.239 NA
HETATM    5  C7  UNL     1      25.130   5.335  49.711  1.00  0.00     0.099 A 
HETATM    6  C8  UNL     1      25.008   4.307  50.621  1.00  0.00     0.105 A 
HETATM    7  N4  UNL     1      23.820   4.393  51.383  1.00  0.00    -0.381 N 
HETATM    8  C9  UNL     1      22.758   5.377  51.341  1.00  0.00     0.159 A 
HETATM    9  C10 UNL     1      23.004   6.431  50.324  1.00  0.00    -0.027 A 
HETATM   10  C11 UNL     1      22.035   7.395  50.229  1.00  0.00     0.028 A 
HETATM   11  C12 UNL     1      22.221   8.408  49.286  1.00  0.00     0.011 A 
HETATM   12 BR1  UNL     1      20.955   9.832  49.031  1.00  0.00    -0.051 Br
HETATM   13  C13 UNL     1      23.366   8.401  48.489  1.00  0.00     0.020 A 
HETATM   14  C14 UNL     1      24.305   7.407  48.628  1.00  0.00     0.016 A 
HETATM   15  C15 UNL     1      24.144   6.395  49.552  1.00  0.00     0.003 A 
HETATM   16  H5  UNL     1      23.589   3.690  52.102  1.00  0.00     0.160 HD
ENDROOT
BRANCH   1  17
HETATM   17  N1  UNL     1      25.727   2.305  51.724  1.00  0.00    -0.339 N 
HETATM   18  H3  UNL     1      24.792   2.098  52.079  1.00  0.00     0.167 HD
BRANCH  17  19
HETATM   19  C4  UNL     1      26.699   1.461  52.318  1.00  0.00     0.035 A 
HETATM   20  C3  UNL     1      27.764   1.911  53.029  1.00  0.00     0.032 A 
HETATM   21  C2  UNL     1      28.712   1.109  53.614  1.00  0.00     0.046 A 
HETATM   22  C1  UNL     1      28.626  -0.264  53.501  1.00  0.00     0.138 A 
HETATM   23  F1  UNL     1      29.507  -1.137  54.038  1.00  0.00    -0.204 F 
HETATM   24  C17 UNL     1      27.573  -0.770  52.795  1.00  0.00     0.074 A 
HETATM   25  C16 UNL     1      26.656   0.087  52.233  1.00  0.00     0.056 A 
HETATM   26 CL1  UNL     1      27.397  -2.501  52.609  1.00  0.00    -0.081 Cl
ENDBRANCH  17  19
ENDBRANCH   1  17
TORSDOF 2
ENDMDL
MODEL 8
REMARK VINA RESULT:      -7.8      6.251      7.458
REMARK  2 active torsions:
REMARK  status: ('A' for Active; 'I' for Inactive)
REMARK    1  A    between atoms: C4_5  and  N1_6 
REMARK    2  A    between atoms: N1_6  and  C5_7 
ROOT
HETATM    1  C5  UNL     1      24.941   4.558  49.634  1.00  0.00     0.158 A 
HETATM    2  N2  UNL     1      24.052   4.774  48.659  1.00  0.00    -0.222 NA
HETATM    3  C6  UNL     1      22.910   4.097  48.528  1.00  0.00     0.236 A 
HETATM    4  N3  UNL     1      22.551   3.121  49.379  1.00  0.00    -0.239 NA
HETATM    5  C7  UNL     1      23.404   2.845  50.396  1.00  0.00     0.099 A 
HETATM    6  C8  UNL     1      24.576   3.564  50.502  1.00  0.00     0.105 A 
HETATM    7  N4  UNL     1      25.362   3.163  51.607  1.00  0.00    -0.381 N 
HETATM    8  C9  UNL     1      25.111   2.143  52.604  1.00  0.00     0.159 A 
HETATM    9  C10 UNL     1      23.821   1.441  52.383  1.00  0.00    -0.027 A 
HETATM   10  C11 UNL     1      23.521   0.459  53.290  1.00  0.00     0.028 A 
HETATM   11  C12 UNL     1      22.319  -0.231  53.124  1.00  0.00     0.011 A 
HETATM   12 BR1  UNL     1      21.756  -1.634  54.312  1.00  0.00    -0.051 Br
HETATM   13  C13 UNL     1      21.481   0.099  52.058  1.00  0.00     0.020 A 
HETATM   14  C14 UNL     1      21.835   1.093  51.178  1.00  0.00     0.016 A 
HETATM   15  C15 UNL     1      23.017   1.789  51.320  1.00  0.00     0.003 A 
HETATM   16  H5  UNL     1      26.268   3.608  51.813  1.00  0.00     0.160 HD
ENDROOT
BRANCH   1  17
HETATM   17  N1  UNL     1      26.151   5.236  49.820  1.00  0.00    -0.339 N 
HETATM   18  H3  UNL     1      26.916   4.816  50.352  1.00  0.00     0.167 HD
BRANCH  17  19
HETATM   19  C4  UNL     1      26.506   6.522  49.343  1.00  0.00     0.035 A 
HETATM   20  C3  UNL     1      26.207   7.680  49.985  1.00  0.00     0.032 A 
HETATM   21  C2  UNL     1      26.545   8.934  49.539  1.00  0.00     0.046 A 
HETATM   22  C1  UNL     1      27.239   9.087  48.356  1.00  0.00     0.138 A 
HETATM   23  F1  UNL     1      27.616  10.275  47.833  1.00  0.00    -0.204 F 
HETATM   24  C17 UNL     1      27.564   7.953  47.669  1.00  0.00     0.074 A 
HETATM   25  C16 UNL     1      27.198   6.726  48.169  1.00  0.00     0.056 A 
HETATM   26 CL1  UNL     1      28.444   8.067  46.161  1.00  0.00    -0.081 Cl
ENDBRANCH  17  19
ENDBRANCH   1  17
TORSDOF 2
ENDMDL
MODEL 9
REMARK VINA RESULT:      -7.8      6.060      7.578
REMARK  2 active torsions:
REMARK  status: ('A' for Active; 'I' for Inactive)
REMARK    1  A    between atoms: C4_5  and  N1_6 
REMARK    2  A    between atoms: N1_6  and  C5_7 
ROOT
HETATM    1  C5  UNL     1      23.443   4.611  52.151  1.00  0.00     0.158 A 
HETATM    2  N2  UNL     1      22.107   4.605  52.209  1.00  0.00    -0.222 NA
HETATM    3  C6  UNL     1      21.319   5.171  51.293  1.00  0.00     0.236 A 
HETATM    4  N3  UNL     1      21.810   5.808  50.216  1.00  0.00    -0.239 NA
HETATM    5  C7  UNL     1      23.159   5.853  50.089  1.00  0.00     0.099 A 
HETATM    6  C8  UNL     1      23.944   5.259  51.053  1.00  0.00     0.105 A 
HETATM    7  N4  UNL     1      25.326   5.390  50.787  1.00  0.00    -0.381 N 
HETATM    8  C9  UNL     1      26.003   6.035  49.681  1.00  0.00     0.159 A 
HETATM    9  C10 UNL     1      25.052   6.637  48.711  1.00  0.00    -0.027 A 
HETATM   10  C11 UNL     1      25.625   7.269  47.639  1.00  0.00     0.028 A 
HETATM   11  C12 UNL     1      24.772   7.852  46.700  1.00  0.00     0.011 A 
HETATM   12 BR1  UNL     1      25.421   8.772  45.141  1.00  0.00    -0.051 Br
HETATM   13  C13 UNL     1      23.391   7.771  46.884  1.00  0.00     0.020 A 
HETATM   14  C14 UNL     1      22.873   7.125  47.981  1.00  0.00     0.016 A 
HETATM   15  C15 UNL     1      23.694   6.541  48.923  1.00  0.00     0.003 A 
HETATM   16  H5  UNL     1      26.037   4.998  51.423  1.00  0.00     0.160 HD
ENDROOT
BRANCH   1  17
HETATM   17  N1  UNL     1      24.317   4.034  53.080  1.00  0.00    -0.339 N 
HETATM   18  H3  UNL     1      24.786   4.603  53.787  1.00  0.00     0.167 HD
BRANCH  17  19
HETATM   19  C4  UNL     1      24.678   2.669  53.198  1.00  0.00     0.035 A 
HETATM   20  C3  UNL     1      23.896   1.638  52.790  1.00  0.00     0.032 A 
HETATM   21  C2  UNL     1      24.231   0.311  52.894  1.00  0.00     0.046 A 
HETATM   22  C1  UNL     1      25.440  -0.059  53.447  1.00  0.00     0.138 A 
HETATM   23  F1  UNL     1      25.861  -1.336  53.594  1.00  0.00    -0.204 F 
HETATM   24  C17 UNL     1      26.266   0.940  53.875  1.00  0.00     0.074 A 
HETATM   25  C16 UNL     1      25.872   2.251  53.743  1.00  0.00     0.056 A 
HETATM   26 CL1  UNL     1      27.815   0.549  54.587  1.00  0.00    -0.081 Cl
ENDBRANCH  17  19
ENDBRANCH   1  17
TORSDOF 2
ENDMDL
