MODEL 1
REMARK VINA RESULT:      -7.4      0.000      0.000
REMARK  3 active torsions:
REMARK  status: ('A' for Active; 'I' for Inactive)
REMARK    1  A    between atoms: N1_2  and  C2_3 
REMARK    2  A    between atoms: C15_17  and  O1_18 
REMARK    3  A    between atoms: C17_20  and  O2_21 
ROOT
HETATM    1  C2  UNL     1      24.771   6.153  50.140  1.00  0.00     0.054 C 
HETATM    2  C3  UNL     1      24.463   5.568  48.960  1.00  0.00     0.011 C 
HETATM    3  C4  UNL     1      23.563   4.660  48.202  1.00  0.00     0.050 C 
HETATM    4  C5  UNL     1      22.472   3.883  48.355  1.00  0.00     0.004 C 
HETATM    5  C6  UNL     1      21.313   3.027  48.425  1.00  0.00     0.045 C 
HETATM    6  C7  UNL     1      20.296   3.329  47.321  1.00  0.00     0.053 C 
HETATM    7  C8  UNL     1      19.334   4.181  48.078  1.00  0.00    -0.024 C 
HETATM    8  C9  UNL     1      19.396   4.071  49.377  1.00  0.00     0.006 C 
HETATM    9  C10 UNL     1      20.462   3.079  49.644  1.00  0.00    -0.025 C 
HETATM   10  C11 UNL     1      21.117   2.166  50.338  1.00  0.00    -0.004 C 
HETATM   11  S1  UNL     1      21.549   1.274  48.797  1.00  0.00    -0.118 SA
HETATM   12  C12 UNL     1      21.446   1.951  51.845  1.00  0.00     0.060 C 
HETATM   13  C13 UNL     1      20.468   2.689  52.658  1.00  0.00     0.021 C 
HETATM   14  C14 UNL     1      22.840   2.545  51.944  1.00  0.00     0.016 A 
HETATM   15  C15 UNL     1      23.844   1.640  51.951  1.00  0.00     0.110 A 
HETATM   16  C17 UNL     1      25.027   2.248  51.504  1.00  0.00     0.103 A 
HETATM   17  C19 UNL     1      25.027   3.597  51.134  1.00  0.00     0.056 A 
HETATM   18  C20 UNL     1      23.817   4.200  51.263  1.00  0.00     0.027 A 
HETATM   19  C21 UNL     1      23.693   5.510  50.878  1.00  0.00     0.097 A 
HETATM   20  N2  UNL     1      22.656   6.359  50.870  1.00  0.00    -0.239 NA
HETATM   21  C22 UNL     1      21.445   5.898  51.317  1.00  0.00     0.234 A 
HETATM   22  N3  UNL     1      21.552   4.636  51.675  1.00  0.00    -0.241 NA
HETATM   23  C23 UNL     1      22.570   3.836  51.668  1.00  0.00     0.080 A 
ENDROOT
BRANCH   1  24
HETATM   24  N1  UNL     1      25.543   6.968  50.908  1.00  0.00    -0.393 N 
HETATM   25  C1  UNL     1      26.225   8.051  50.231  1.00  0.00     0.146 C 
HETATM   26  H4  UNL     1      25.611   6.786  51.948  1.00  0.00     0.159 HD
ENDBRANCH   1  24
BRANCH  16  27
HETATM   27  O2  UNL     1      26.163   1.495  51.439  1.00  0.00    -0.353 OA
HETATM   28  C18 UNL     1      27.217   1.442  52.346  1.00  0.00     0.210 C 
ENDBRANCH  16  27
BRANCH  15  29
HETATM   29  O1  UNL     1      23.712   0.330  52.339  1.00  0.00    -0.352 OA
HETATM   30  C16 UNL     1      24.015   0.020  53.695  1.00  0.00     0.210 C 
ENDBRANCH  15  29
TORSDOF 3
ENDMDL
MODEL 2
REMARK VINA RESULT:      -7.3      6.817     10.639
REMARK  3 active torsions:
REMARK  status: ('A' for Active; 'I' for Inactive)
REMARK    1  A    between atoms: N1_2  and  C2_3 
REMARK    2  A    between atoms: C15_17  and  O1_18 
REMARK    3  A    between atoms: C17_20  and  O2_21 
ROOT
HETATM    1  C2  UNL     1      32.587   4.915  47.525  1.00  0.00     0.054 C 
HETATM    2  C3  UNL     1      32.368   5.366  46.269  1.00  0.00     0.011 C 
HETATM    3  C4  UNL     1      32.037   6.511  45.381  1.00  0.00     0.050 C 
HETATM    4  C5  UNL     1      31.762   7.831  45.416  1.00  0.00     0.004 C 
HETATM    5  C6  UNL     1      31.458   9.239  45.356  1.00  0.00     0.045 C 
HETATM    6  C7  UNL     1      32.316   9.980  44.327  1.00  0.00     0.053 C 
HETATM    7  C8  UNL     1      33.361  10.555  45.223  1.00  0.00    -0.024 C 
HETATM    8  C9  UNL     1      33.037  10.618  46.485  1.00  0.00     0.006 C 
HETATM    9  C10 UNL     1      31.667  10.065  46.576  1.00  0.00    -0.025 C 
HETATM   10  C11 UNL     1      30.471   9.879  47.105  1.00  0.00    -0.004 C 
HETATM   11  S1  UNL     1      29.728   9.758  45.434  1.00  0.00    -0.118 SA
HETATM   12  C12 UNL     1      29.911   9.754  48.553  1.00  0.00     0.060 C 
HETATM   13  C13 UNL     1      30.853  10.393  49.485  1.00  0.00     0.021 C 
HETATM   14  C14 UNL     1      29.859   8.247  48.734  1.00  0.00     0.016 A 
HETATM   15  C15 UNL     1      28.632   7.700  48.582  1.00  0.00     0.110 A 
HETATM   16  C17 UNL     1      28.762   6.348  48.229  1.00  0.00     0.103 A 
HETATM   17  C19 UNL     1      30.032   5.778  48.085  1.00  0.00     0.056 A 
HETATM   18  C20 UNL     1      31.051   6.644  48.323  1.00  0.00     0.027 A 
HETATM   19  C21 UNL     1      32.338   6.202  48.158  1.00  0.00     0.097 A 
HETATM   20  N2  UNL     1      33.528   6.803  48.301  1.00  0.00    -0.239 NA
HETATM   21  C22 UNL     1      33.542   8.121  48.678  1.00  0.00     0.234 A 
HETATM   22  N3  UNL     1      32.309   8.557  48.824  1.00  0.00    -0.241 NA
HETATM   23  C23 UNL     1      31.172   7.953  48.676  1.00  0.00     0.080 A 
ENDROOT
BRANCH   1  24
HETATM   24  N1  UNL     1      32.885   3.925  48.409  1.00  0.00    -0.393 N 
HETATM   25  C1  UNL     1      33.215   2.630  47.851  1.00  0.00     0.146 C 
HETATM   26  H4  UNL     1      32.868   4.135  49.445  1.00  0.00     0.159 HD
ENDBRANCH   1  24
BRANCH  16  27
HETATM   27  O2  UNL     1      27.629   5.614  48.031  1.00  0.00    -0.353 OA
HETATM   28  C18 UNL     1      26.984   4.761  48.922  1.00  0.00     0.210 C 
ENDBRANCH  16  27
BRANCH  15  29
HETATM   29  O1  UNL     1      27.449   8.375  48.752  1.00  0.00    -0.352 OA
HETATM   30  C16 UNL     1      26.904   8.409  50.066  1.00  0.00     0.210 C 
ENDBRANCH  15  29
TORSDOF 3
ENDMDL
MODEL 3
REMARK VINA RESULT:      -7.2      2.409      5.100
REMARK  3 active torsions:
REMARK  status: ('A' for Active; 'I' for Inactive)
REMARK    1  A    between atoms: N1_2  and  C2_3 
REMARK    2  A    between atoms: C15_17  and  O1_18 
REMARK    3  A    between atoms: C17_20  and  O2_21 
ROOT
HETATM    1  C2  UNL     1      19.033   1.590  50.176  1.00  0.00     0.054 C 
HETATM    2  C3  UNL     1      18.971   2.737  50.889  1.00  0.00     0.011 C 
HETATM    3  C4  UNL     1      19.667   3.956  51.377  1.00  0.00     0.050 C 
HETATM    4  C5  UNL     1      20.859   4.585  51.327  1.00  0.00     0.004 C 
HETATM    5  C6  UNL     1      22.096   5.327  51.330  1.00  0.00     0.045 C 
HETATM    6  C7  UNL     1      21.896   6.799  50.963  1.00  0.00     0.053 C 
HETATM    7  C8  UNL     1      22.277   6.762  49.521  1.00  0.00    -0.024 C 
HETATM    8  C9  UNL     1      22.988   5.730  49.159  1.00  0.00     0.006 C 
HETATM    9  C10 UNL     1      23.172   4.921  50.386  1.00  0.00    -0.025 C 
HETATM   10  C11 UNL     1      23.756   4.037  51.175  1.00  0.00    -0.004 C 
HETATM   11  S1  UNL     1      23.290   5.017  52.652  1.00  0.00    -0.118 SA
HETATM   12  C12 UNL     1      24.494   2.683  50.960  1.00  0.00     0.060 C 
HETATM   13  C13 UNL     1      24.986   2.622  49.575  1.00  0.00     0.021 C 
HETATM   14  C14 UNL     1      23.382   1.682  51.218  1.00  0.00     0.016 A 
HETATM   15  C15 UNL     1      23.408   1.107  52.441  1.00  0.00     0.110 A 
HETATM   16  C17 UNL     1      22.122   0.659  52.778  1.00  0.00     0.103 A 
HETATM   17  C19 UNL     1      21.058   0.846  51.888  1.00  0.00     0.056 A 
HETATM   18  C20 UNL     1      21.412   1.469  50.734  1.00  0.00     0.027 A 
HETATM   19  C21 UNL     1      20.435   1.750  49.815  1.00  0.00     0.097 A 
HETATM   20  N2  UNL     1      20.462   2.350  48.617  1.00  0.00    -0.239 NA
HETATM   21  C22 UNL     1      21.670   2.806  48.154  1.00  0.00     0.234 A 
HETATM   22  N3  UNL     1      22.611   2.553  49.038  1.00  0.00    -0.241 NA
HETATM   23  C23 UNL     1      22.555   1.972  50.194  1.00  0.00     0.080 A 
ENDROOT
BRANCH   1  24
HETATM   24  N1  UNL     1      18.475   0.451  49.687  1.00  0.00    -0.393 N 
HETATM   25  C1  UNL     1      17.423  -0.153  50.478  1.00  0.00     0.146 C 
HETATM   26  H4  UNL     1      18.820   0.059  48.767  1.00  0.00     0.159 HD
ENDBRANCH   1  24
BRANCH  16  27
HETATM   27  O2  UNL     1      21.939   0.044  53.982  1.00  0.00    -0.353 OA
HETATM   28  C18 UNL     1      21.883  -1.319  54.257  1.00  0.00     0.210 C 
ENDBRANCH  16  27
BRANCH  15  29
HETATM   29  O1  UNL     1      24.530   0.987  53.223  1.00  0.00    -0.352 OA
HETATM   30  C16 UNL     1      25.303  -0.200  53.072  1.00  0.00     0.210 C 
ENDBRANCH  15  29
TORSDOF 3
ENDMDL
MODEL 4
REMARK VINA RESULT:      -7.0      2.711      4.836
REMARK  3 active torsions:
REMARK  status: ('A' for Active; 'I' for Inactive)
REMARK    1  A    between atoms: N1_2  and  C2_3 
REMARK    2  A    between atoms: C15_17  and  O1_18 
REMARK    3  A    between atoms: C17_20  and  O2_21 
ROOT
HETATM    1  C2  UNL     1      20.959   0.335  53.020  1.00  0.00     0.054 C 
HETATM    2  C3  UNL     1      20.400   1.544  53.256  1.00  0.00     0.011 C 
HETATM    3  C4  UNL     1      20.079   2.903  52.749  1.00  0.00     0.050 C 
HETATM    4  C5  UNL     1      20.208   3.682  51.655  1.00  0.00     0.004 C 
HETATM    5  C6  UNL     1      20.300   4.585  50.535  1.00  0.00     0.045 C 
HETATM    6  C7  UNL     1      18.954   5.222  50.183  1.00  0.00     0.053 C 
HETATM    7  C8  UNL     1      18.538   4.346  49.050  1.00  0.00    -0.024 C 
HETATM    8  C9  UNL     1      19.502   3.672  48.486  1.00  0.00     0.006 C 
HETATM    9  C10 UNL     1      20.734   4.045  49.218  1.00  0.00    -0.025 C 
HETATM   10  C11 UNL     1      22.032   4.207  49.395  1.00  0.00    -0.004 C 
HETATM   11  S1  UNL     1      21.727   5.691  50.427  1.00  0.00    -0.118 SA
HETATM   12  C12 UNL     1      23.312   3.433  48.959  1.00  0.00     0.060 C 
HETATM   13  C13 UNL     1      22.996   2.618  47.776  1.00  0.00     0.021 C 
HETATM   14  C14 UNL     1      23.589   2.582  50.185  1.00  0.00     0.016 A 
HETATM   15  C15 UNL     1      24.567   3.052  50.992  1.00  0.00     0.110 A 
HETATM   16  C17 UNL     1      24.383   2.553  52.291  1.00  0.00     0.103 A 
HETATM   17  C19 UNL     1      23.305   1.707  52.573  1.00  0.00     0.056 A 
HETATM   18  C20 UNL     1      22.519   1.445  51.496  1.00  0.00     0.027 A 
HETATM   19  C21 UNL     1      21.403   0.670  51.674  1.00  0.00     0.097 A 
HETATM   20  N2  UNL     1      20.445   0.252  50.834  1.00  0.00    -0.239 NA
HETATM   21  C22 UNL     1      20.526   0.642  49.522  1.00  0.00     0.234 A 
HETATM   22  N3  UNL     1      21.588   1.401  49.346  1.00  0.00    -0.241 NA
HETATM   23  C23 UNL     1      22.498   1.792  50.181  1.00  0.00     0.080 A 
ENDROOT
BRANCH   1  24
HETATM   24  N1  UNL     1      21.292  -0.927  53.402  1.00  0.00    -0.393 N 
HETATM   25  C1  UNL     1      21.912  -1.073  54.703  1.00  0.00     0.146 C 
HETATM   26  H4  UNL     1      21.087  -1.735  52.752  1.00  0.00     0.159 HD
ENDBRANCH   1  24
BRANCH  16  27
HETATM   27  O2  UNL     1      25.274   2.912  53.260  1.00  0.00    -0.353 OA
HETATM   28  C18 UNL     1      26.339   2.177  53.771  1.00  0.00     0.210 C 
ENDBRANCH  16  27
BRANCH  15  29
HETATM   29  O1  UNL     1      25.578   3.887  50.589  1.00  0.00    -0.352 OA
HETATM   30  C16 UNL     1      26.695   3.288  49.939  1.00  0.00     0.210 C 
ENDBRANCH  15  29
TORSDOF 3
ENDMDL
MODEL 5
REMARK VINA RESULT:      -6.9      5.376      9.261
REMARK  3 active torsions:
REMARK  status: ('A' for Active; 'I' for Inactive)
REMARK    1  A    between atoms: N1_2  and  C2_3 
REMARK    2  A    between atoms: C15_17  and  O1_18 
REMARK    3  A    between atoms: C17_20  and  O2_21 
ROOT
HETATM    1  C2  UNL     1      26.046   6.880  49.065  1.00  0.00     0.054 C 
HETATM    2  C3  UNL     1      26.499   7.856  49.883  1.00  0.00     0.011 C 
HETATM    3  C4  UNL     1      27.273   9.117  50.032  1.00  0.00     0.050 C 
HETATM    4  C5  UNL     1      27.986  10.010  49.317  1.00  0.00     0.004 C 
HETATM    5  C6  UNL     1      28.765  11.015  48.636  1.00  0.00     0.045 C 
HETATM    6  C7  UNL     1      28.297  12.436  48.957  1.00  0.00     0.053 C 
HETATM    7  C8  UNL     1      27.454  12.712  47.757  1.00  0.00    -0.024 C 
HETATM    8  C9  UNL     1      27.686  11.945  46.727  1.00  0.00     0.006 C 
HETATM    9  C10 UNL     1      28.768  11.026  47.148  1.00  0.00    -0.025 C 
HETATM   10  C11 UNL     1      29.782  10.196  46.981  1.00  0.00    -0.004 C 
HETATM   11  S1  UNL     1      30.557  10.800  48.528  1.00  0.00    -0.118 SA
HETATM   12  C12 UNL     1      30.155   9.104  45.935  1.00  0.00     0.060 C 
HETATM   13  C13 UNL     1      29.430   9.374  44.684  1.00  0.00     0.021 C 
HETATM   14  C14 UNL     1      29.667   7.841  46.621  1.00  0.00     0.016 A 
HETATM   15  C15 UNL     1      30.634   7.109  47.218  1.00  0.00     0.110 A 
HETATM   16  C17 UNL     1      30.068   6.322  48.233  1.00  0.00     0.103 A 
HETATM   17  C19 UNL     1      28.694   6.385  48.486  1.00  0.00     0.056 A 
HETATM   18  C20 UNL     1      28.025   7.243  47.672  1.00  0.00     0.027 A 
HETATM   19  C21 UNL     1      26.681   7.421  47.871  1.00  0.00     0.097 A 
HETATM   20  N2  UNL     1      25.767   8.186  47.258  1.00  0.00    -0.239 NA
HETATM   21  C22 UNL     1      26.184   8.981  46.221  1.00  0.00     0.234 A 
HETATM   22  N3  UNL     1      27.478   8.827  46.034  1.00  0.00    -0.241 NA
HETATM   23  C23 UNL     1      28.341   8.079  46.646  1.00  0.00     0.080 A 
ENDROOT
BRANCH   1  24
HETATM   24  N1  UNL     1      25.358   5.729  48.838  1.00  0.00    -0.393 N 
HETATM   25  C1  UNL     1      25.688   4.595  49.677  1.00  0.00     0.146 C 
HETATM   26  H4  UNL     1      24.624   5.707  48.078  1.00  0.00     0.159 HD
ENDBRANCH   1  24
BRANCH  16  27
HETATM   27  O2  UNL     1      30.886   5.505  48.957  1.00  0.00    -0.353 OA
HETATM   28  C18 UNL     1      31.829   5.857  49.918  1.00  0.00     0.210 C 
ENDBRANCH  16  27
BRANCH  15  29
HETATM   29  O1  UNL     1      31.962   7.140  46.872  1.00  0.00    -0.352 OA
HETATM   30  C16 UNL     1      32.418   6.149  45.958  1.00  0.00     0.210 C 
ENDBRANCH  15  29
TORSDOF 3
ENDMDL
MODEL 6
REMARK VINA RESULT:      -6.9      1.773      2.546
REMARK  3 active torsions:
REMARK  status: ('A' for Active; 'I' for Inactive)
REMARK    1  A    between atoms: N1_2  and  C2_3 
REMARK    2  A    between atoms: C15_17  and  O1_18 
REMARK    3  A    between atoms: C17_20  and  O2_21 
ROOT
HETATM    1  C2  UNL     1      24.239   8.133  48.694  1.00  0.00     0.054 C 
HETATM    2  C3  UNL     1      23.733   7.423  47.660  1.00  0.00     0.011 C 
HETATM    3  C4  UNL     1      22.990   6.220  47.203  1.00  0.00     0.050 C 
HETATM    4  C5  UNL     1      22.378   5.113  47.672  1.00  0.00     0.004 C 
HETATM    5  C6  UNL     1      21.703   3.906  48.081  1.00  0.00     0.045 C 
HETATM    6  C7  UNL     1      20.311   3.775  47.460  1.00  0.00     0.053 C 
HETATM    7  C8  UNL     1      19.472   4.264  48.592  1.00  0.00    -0.024 C 
HETATM    8  C9  UNL     1      20.051   4.243  49.761  1.00  0.00     0.006 C 
HETATM    9  C10 UNL     1      21.411   3.708  49.526  1.00  0.00    -0.025 C 
HETATM   10  C11 UNL     1      22.551   3.121  49.844  1.00  0.00    -0.004 C 
HETATM   11  S1  UNL     1      22.653   2.370  48.175  1.00  0.00    -0.118 SA
HETATM   12  C12 UNL     1      23.474   3.107  51.098  1.00  0.00     0.060 C 
HETATM   13  C13 UNL     1      22.681   3.486  52.278  1.00  0.00     0.021 C 
HETATM   14  C14 UNL     1      24.503   4.162  50.735  1.00  0.00     0.016 A 
HETATM   15  C15 UNL     1      25.683   3.674  50.288  1.00  0.00     0.110 A 
HETATM   16  C17 UNL     1      26.322   4.642  49.498  1.00  0.00     0.103 A 
HETATM   17  C19 UNL     1      25.716   5.884  49.282  1.00  0.00     0.056 A 
HETATM   18  C20 UNL     1      24.515   6.023  49.902  1.00  0.00     0.027 A 
HETATM   19  C21 UNL     1      23.811   7.184  49.712  1.00  0.00     0.097 A 
HETATM   20  N2  UNL     1      22.622   7.608  50.164  1.00  0.00    -0.239 NA
HETATM   21  C22 UNL     1      21.908   6.767  50.978  1.00  0.00     0.234 A 
HETATM   22  N3  UNL     1      22.571   5.644  51.153  1.00  0.00    -0.241 NA
HETATM   23  C23 UNL     1      23.721   5.259  50.699  1.00  0.00     0.080 A 
ENDROOT
BRANCH   1  24
HETATM   24  N1  UNL     1      24.908   9.204  49.199  1.00  0.00    -0.393 N 
HETATM   25  C1  UNL     1      26.175   9.533  48.580  1.00  0.00     0.146 C 
HETATM   26  H4  UNL     1      24.486   9.744  50.004  1.00  0.00     0.159 HD
ENDBRANCH   1  24
BRANCH  16  27
HETATM   27  O2  UNL     1      27.536   4.340  48.952  1.00  0.00    -0.353 OA
HETATM   28  C18 UNL     1      28.462   5.203  48.374  1.00  0.00     0.210 C 
ENDBRANCH  16  27
BRANCH  15  29
HETATM   29  O1  UNL     1      26.168   2.422  50.574  1.00  0.00    -0.352 OA
HETATM   30  C16 UNL     1      26.933   2.279  51.765  1.00  0.00     0.210 C 
ENDBRANCH  15  29
TORSDOF 3
ENDMDL
MODEL 7
REMARK VINA RESULT:      -6.9      2.901      6.174
REMARK  3 active torsions:
REMARK  status: ('A' for Active; 'I' for Inactive)
REMARK    1  A    between atoms: N1_2  and  C2_3 
REMARK    2  A    between atoms: C15_17  and  O1_18 
REMARK    3  A    between atoms: C17_20  and  O2_21 
ROOT
HETATM    1  C2  UNL     1      19.638   1.460  49.602  1.00  0.00     0.054 C 
HETATM    2  C3  UNL     1      20.876   0.938  49.758  1.00  0.00     0.011 C 
HETATM    3  C4  UNL     1      22.303   1.162  50.108  1.00  0.00     0.050 C 
HETATM    4  C5  UNL     1      23.156   2.132  50.495  1.00  0.00     0.004 C 
HETATM    5  C6  UNL     1      24.140   3.102  50.909  1.00  0.00     0.045 C 
HETATM    6  C7  UNL     1      24.953   2.632  52.118  1.00  0.00     0.053 C 
HETATM    7  C8  UNL     1      24.233   3.349  53.210  1.00  0.00    -0.024 C 
HETATM    8  C9  UNL     1      23.508   4.363  52.827  1.00  0.00     0.006 C 
HETATM    9  C10 UNL     1      23.675   4.442  51.358  1.00  0.00    -0.025 C 
HETATM   10  C11 UNL     1      23.674   5.020  50.170  1.00  0.00    -0.004 C 
HETATM   11  S1  UNL     1      25.084   3.977  49.639  1.00  0.00    -0.118 SA
HETATM   12  C12 UNL     1      22.804   6.106  49.471  1.00  0.00     0.060 C 
HETATM   13  C13 UNL     1      22.138   6.919  50.500  1.00  0.00     0.021 C 
HETATM   14  C14 UNL     1      21.821   5.255  48.687  1.00  0.00     0.016 A 
HETATM   15  C15 UNL     1      22.104   5.128  47.371  1.00  0.00     0.110 A 
HETATM   16  C17 UNL     1      21.515   3.954  46.875  1.00  0.00     0.103 A 
HETATM   17  C19 UNL     1      20.774   3.127  47.726  1.00  0.00     0.056 A 
HETATM   18  C20 UNL     1      20.698   3.582  49.004  1.00  0.00     0.027 A 
HETATM   19  C21 UNL     1      20.040   2.819  49.933  1.00  0.00     0.097 A 
HETATM   20  N2  UNL     1      19.809   2.985  51.243  1.00  0.00    -0.239 NA
HETATM   21  C22 UNL     1      20.303   4.113  51.846  1.00  0.00     0.234 A 
HETATM   22  N3  UNL     1      20.950   4.844  50.963  1.00  0.00    -0.241 NA
HETATM   23  C23 UNL     1      21.161   4.657  49.698  1.00  0.00     0.080 A 
ENDROOT
BRANCH   1  24
HETATM   24  N1  UNL     1      18.318   1.344  49.297  1.00  0.00    -0.393 N 
HETATM   25  C1  UNL     1      17.556   0.373  50.055  1.00  0.00     0.146 C 
HETATM   26  H4  UNL     1      17.907   1.954  48.538  1.00  0.00     0.159 HD
ENDBRANCH   1  24
BRANCH  16  27
HETATM   27  O2  UNL     1      21.684   3.646  45.557  1.00  0.00    -0.353 OA
HETATM   28  C18 UNL     1      20.828   3.905  44.492  1.00  0.00     0.210 C 
ENDBRANCH  16  27
BRANCH  15  29
HETATM   29  O1  UNL     1      22.853   6.019  46.644  1.00  0.00    -0.352 OA
HETATM   30  C16 UNL     1      22.157   7.081  46.002  1.00  0.00     0.210 C 
ENDBRANCH  15  29
TORSDOF 3
ENDMDL
MODEL 8
REMARK VINA RESULT:      -6.7      3.002      5.157
REMARK  3 active torsions:
REMARK  status: ('A' for Active; 'I' for Inactive)
REMARK    1  A    between atoms: N1_2  and  C2_3 
REMARK    2  A    between atoms: C15_17  and  O1_18 
REMARK    3  A    between atoms: C17_20  and  O2_21 
ROOT
HETATM    1  C2  UNL     1      25.216   6.711  50.420  1.00  0.00     0.054 C 
HETATM    2  C3  UNL     1      24.106   6.803  51.186  1.00  0.00     0.011 C 
HETATM    3  C4  UNL     1      22.788   6.231  51.568  1.00  0.00     0.050 C 
HETATM    4  C5  UNL     1      21.963   5.201  51.292  1.00  0.00     0.004 C 
HETATM    5  C6  UNL     1      21.018   4.136  51.063  1.00  0.00     0.045 C 
HETATM    6  C7  UNL     1      20.563   3.467  52.362  1.00  0.00     0.053 C 
HETATM    7  C8  UNL     1      21.450   2.268  52.362  1.00  0.00    -0.024 C 
HETATM    8  C9  UNL     1      21.964   1.956  51.204  1.00  0.00     0.006 C 
HETATM    9  C10 UNL     1      21.447   2.965  50.252  1.00  0.00    -0.025 C 
HETATM   10  C11 UNL     1      21.112   3.452  49.071  1.00  0.00    -0.004 C 
HETATM   11  S1  UNL     1      19.721   4.377  49.825  1.00  0.00    -0.118 SA
HETATM   12  C12 UNL     1      21.685   3.341  47.627  1.00  0.00     0.060 C 
HETATM   13  C13 UNL     1      22.496   2.118  47.528  1.00  0.00     0.021 C 
HETATM   14  C14 UNL     1      22.530   4.599  47.534  1.00  0.00     0.016 A 
HETATM   15  C15 UNL     1      21.957   5.620  46.858  1.00  0.00     0.110 A 
HETATM   16  C17 UNL     1      22.519   6.835  47.276  1.00  0.00     0.103 A 
HETATM   17  C19 UNL     1      23.516   6.847  48.257  1.00  0.00     0.056 A 
HETATM   18  C20 UNL     1      23.849   5.612  48.715  1.00  0.00     0.027 A 
HETATM   19  C21 UNL     1      24.778   5.514  49.718  1.00  0.00     0.097 A 
HETATM   20  N2  UNL     1      25.296   4.466  50.374  1.00  0.00    -0.239 NA
HETATM   21  C22 UNL     1      24.854   3.213  50.036  1.00  0.00     0.234 A 
HETATM   22  N3  UNL     1      23.950   3.300  49.084  1.00  0.00    -0.241 NA
HETATM   23  C23 UNL     1      23.464   4.331  48.467  1.00  0.00     0.080 A 
ENDROOT
BRANCH   1  24
HETATM   24  N1  UNL     1      26.432   7.165  50.012  1.00  0.00    -0.393 N 
HETATM   25  C1  UNL     1      26.623   8.600  49.999  1.00  0.00     0.146 C 
HETATM   26  H4  UNL     1      27.175   6.468  49.729  1.00  0.00     0.159 HD
ENDBRANCH   1  24
BRANCH  16  27
HETATM   27  O2  UNL     1      22.073   7.991  46.705  1.00  0.00    -0.353 OA
HETATM   28  C18 UNL     1      21.747   9.193  47.327  1.00  0.00     0.210 C 
ENDBRANCH  16  27
BRANCH  15  29
HETATM   29  O1  UNL     1      20.975   5.473  45.909  1.00  0.00    -0.352 OA
HETATM   30  C16 UNL     1      21.397   5.281  44.563  1.00  0.00     0.210 C 
ENDBRANCH  15  29
TORSDOF 3
ENDMDL
MODEL 9
REMARK VINA RESULT:      -6.7      7.048     11.135
REMARK  3 active torsions:
REMARK  status: ('A' for Active; 'I' for Inactive)
REMARK    1  A    between atoms: N1_2  and  C2_3 
REMARK    2  A    between atoms: C15_17  and  O1_18 
REMARK    3  A    between atoms: C17_20  and  O2_21 
ROOT
HETATM    1  C2  UNL     1      28.418   7.258  48.019  1.00  0.00     0.054 C 
HETATM    2  C3  UNL     1      28.626   7.603  46.729  1.00  0.00     0.011 C 
HETATM    3  C4  UNL     1      29.207   8.572  45.762  1.00  0.00     0.050 C 
HETATM    4  C5  UNL     1      29.903   9.725  45.711  1.00  0.00     0.004 C 
HETATM    5  C6  UNL     1      30.644  10.954  45.558  1.00  0.00     0.045 C 
HETATM    6  C7  UNL     1      31.824  10.810  44.595  1.00  0.00     0.053 C 
HETATM    7  C8  UNL     1      32.936  10.619  45.572  1.00  0.00    -0.024 C 
HETATM    8  C9  UNL     1      32.681  11.015  46.788  1.00  0.00     0.006 C 
HETATM    9  C10 UNL     1      31.299  11.544  46.756  1.00  0.00    -0.025 C 
HETATM   10  C11 UNL     1      30.273  12.269  47.163  1.00  0.00    -0.004 C 
HETATM   11  S1  UNL     1      29.729  12.508  45.429  1.00  0.00    -0.118 SA
HETATM   12  C12 UNL     1      29.708  12.706  48.547  1.00  0.00     0.060 C 
HETATM   13  C13 UNL     1      30.786  12.636  49.545  1.00  0.00     0.021 C 
HETATM   14  C14 UNL     1      28.635  11.659  48.786  1.00  0.00     0.016 A 
HETATM   15  C15 UNL     1      27.373  12.070  48.528  1.00  0.00     0.110 A 
HETATM   16  C17 UNL     1      26.564  10.958  48.249  1.00  0.00     0.103 A 
HETATM   17  C19 UNL     1      27.111   9.670  48.267  1.00  0.00     0.056 A 
HETATM   18  C20 UNL     1      28.434   9.641  48.574  1.00  0.00     0.027 A 
HETATM   19  C21 UNL     1      29.081   8.433  48.566  1.00  0.00     0.097 A 
HETATM   20  N2  UNL     1      30.353   8.084  48.809  1.00  0.00    -0.239 NA
HETATM   21  C22 UNL     1      31.243   9.077  49.128  1.00  0.00     0.234 A 
HETATM   22  N3  UNL     1      30.631  10.242  49.123  1.00  0.00    -0.241 NA
HETATM   23  C23 UNL     1      29.397  10.552  48.881  1.00  0.00     0.080 A 
ENDROOT
BRANCH   1  24
HETATM   24  N1  UNL     1      27.919   6.425  48.972  1.00  0.00    -0.393 N 
HETATM   25  C1  UNL     1      27.783   5.029  48.612  1.00  0.00     0.146 C 
HETATM   26  H4  UNL     1      27.657   6.819  49.918  1.00  0.00     0.159 HD
ENDBRANCH   1  24
BRANCH  16  27
HETATM   27  O2  UNL     1      25.246  11.164  47.964  1.00  0.00    -0.353 OA
HETATM   28  C18 UNL     1      24.297  10.238  47.543  1.00  0.00     0.210 C 
ENDBRANCH  16  27
BRANCH  15  29
HETATM   29  O1  UNL     1      26.960  13.379  48.541  1.00  0.00    -0.352 OA
HETATM   30  C16 UNL     1      26.711  13.995  47.282  1.00  0.00     0.210 C 
ENDBRANCH  15  29
TORSDOF 3
ENDMDL
