MODEL 1
REMARK VINA RESULT:      -6.8      0.000      0.000
REMARK  8 active torsions:
REMARK  status: ('A' for Active; 'I' for Inactive)
REMARK    1  A    between atoms: C3_3  and  C4_4 
REMARK       I    between atoms: C4_4  and  N1_6 
REMARK    2  A    between atoms: N1_6  and  C5_7 
REMARK    3  A    between atoms: C5_7  and  C7_9 
REMARK    4  A    between atoms: C5_7  and  N3_19 
REMARK    5  A    between atoms: C7_9  and  C8_10 
REMARK    6  A    between atoms: C8_10  and  N2_11 
REMARK    7  A    between atoms: N2_11  and  C9_12 
REMARK    8  A    between atoms: C15_20  and  C16_21 
ROOT
HETATM    1  C1  UNL     1      19.351  -0.208  52.785  1.00  0.00     0.112 C 
HETATM    2  C2  UNL     1      20.791  -0.277  53.103  1.00  0.00    -0.101 C 
HETATM    3  C3  UNL     1      21.979  -0.341  53.353  1.00  0.00    -0.006 C 
ENDROOT
BRANCH   3   4
HETATM    4  C4  UNL     1      23.387  -0.442  53.646  1.00  0.00     0.298 C 
HETATM    5  O1  UNL     1      23.697  -1.036  54.694  1.00  0.00    -0.258 OA
HETATM    6  N1  UNL     1      24.373   0.110  52.779  1.00  0.00    -0.322 N 
HETATM    7  H4  UNL     1      23.971   0.589  51.919  1.00  0.00     0.166 HD
BRANCH   6   8
HETATM    8  C5  UNL     1      25.809   0.030  53.038  1.00  0.00     0.125 C 
HETATM    9  C6  UNL     1      26.429  -1.253  52.599  1.00  0.00     0.065 C 
BRANCH   8  10
HETATM   10  C7  UNL     1      26.454   1.234  52.349  1.00  0.00     0.075 C 
BRANCH  10  11
HETATM   11  C8  UNL     1      25.410   1.969  51.542  1.00  0.00     0.124 C 
BRANCH  11  12
HETATM   12  N2  UNL     1      25.189   3.286  52.115  1.00  0.00    -0.390 N 
HETATM   13  H12 UNL     1      25.889   3.842  52.652  1.00  0.00     0.159 HD
BRANCH  12  14
HETATM   14  C9  UNL     1      23.898   3.859  51.919  1.00  0.00     0.029 A 
HETATM   15  C10 UNL     1      22.747   3.181  52.240  1.00  0.00     0.029 A 
HETATM   16  C11 UNL     1      21.493   3.730  52.053  1.00  0.00     0.004 A 
HETATM   17  C12 UNL     1      21.358   5.009  51.525  1.00  0.00     0.019 A 
HETATM   18  C13 UNL     1      22.504   5.728  51.187  1.00  0.00     0.013 A 
HETATM   19 BR1  UNL     1      22.337   7.482  50.462  1.00  0.00    -0.051 Br
HETATM   20  C14 UNL     1      23.726   5.119  51.400  1.00  0.00     0.048 A 
ENDBRANCH  12  14
ENDBRANCH  11  12
ENDBRANCH  10  11
ENDBRANCH   8  10
BRANCH   8  21
HETATM   21  N3  UNL     1      25.980   0.154  54.458  1.00  0.00    -0.273 NA
HETATM   22  C15 UNL     1      27.107   0.127  55.016  1.00  0.00     0.100 C 
BRANCH  22  23
HETATM   23  C16 UNL     1      28.507  -0.018  54.565  1.00  0.00     0.170 C 
HETATM   24  C17 UNL     1      29.160   1.312  54.641  1.00  0.00     0.064 C 
HETATM   25  N4  UNL     1      29.691   2.356  54.694  1.00  0.00    -0.197 NA
ENDBRANCH  22  23
ENDBRANCH   8  21
ENDBRANCH   6   8
ENDBRANCH   3   4
TORSDOF 8
ENDMDL
MODEL 2
REMARK VINA RESULT:      -6.7      3.990      7.744
REMARK  8 active torsions:
REMARK  status: ('A' for Active; 'I' for Inactive)
REMARK    1  A    between atoms: C3_3  and  C4_4 
REMARK       I    between atoms: C4_4  and  N1_6 
REMARK    2  A    between atoms: N1_6  and  C5_7 
REMARK    3  A    between atoms: C5_7  and  C7_9 
REMARK    4  A    between atoms: C5_7  and  N3_19 
REMARK    5  A    between atoms: C7_9  and  C8_10 
REMARK    6  A    between atoms: C8_10  and  N2_11 
REMARK    7  A    between atoms: N2_11  and  C9_12 
REMARK    8  A    between atoms: C15_20  and  C16_21 
ROOT
HETATM    1  C1  UNL     1      28.900   6.602  47.621  1.00  0.00     0.112 C 
HETATM    2  C2  UNL     1      27.892   5.834  48.379  1.00  0.00    -0.101 C 
HETATM    3  C3  UNL     1      27.052   5.207  48.995  1.00  0.00    -0.006 C 
ENDROOT
BRANCH   3   4
HETATM    4  C4  UNL     1      26.042   4.484  49.728  1.00  0.00     0.298 C 
HETATM    5  O1  UNL     1      26.432   3.518  50.407  1.00  0.00    -0.258 OA
HETATM    6  N1  UNL     1      24.669   4.860  49.677  1.00  0.00    -0.322 N 
HETATM    7  H4  UNL     1      24.475   5.703  49.060  1.00  0.00     0.166 HD
BRANCH   6   8
HETATM    8  C5  UNL     1      23.615   4.155  50.404  1.00  0.00     0.125 C 
HETATM    9  C6  UNL     1      23.588   2.686  50.150  1.00  0.00     0.065 C 
BRANCH   8  10
HETATM   10  C7  UNL     1      23.812   4.467  51.888  1.00  0.00     0.075 C 
BRANCH  10  11
HETATM   11  C8  UNL     1      23.838   3.177  52.673  1.00  0.00     0.124 C 
BRANCH  11  12
HETATM   12  N2  UNL     1      25.142   3.010  53.293  1.00  0.00    -0.390 N 
HETATM   13  H12 UNL     1      25.698   3.763  53.755  1.00  0.00     0.159 HD
BRANCH  12  14
HETATM   14  C9  UNL     1      25.700   1.698  53.264  1.00  0.00     0.029 A 
HETATM   15  C10 UNL     1      24.924   0.584  53.054  1.00  0.00     0.029 A 
HETATM   16  C11 UNL     1      25.458  -0.690  53.025  1.00  0.00     0.004 A 
HETATM   17  C12 UNL     1      26.821  -0.883  53.212  1.00  0.00     0.019 A 
HETATM   18  C13 UNL     1      27.641   0.223  53.427  1.00  0.00     0.013 A 
HETATM   19 BR1  UNL     1      29.513  -0.026  53.685  1.00  0.00    -0.051 Br
HETATM   20  C14 UNL     1      27.043   1.468  53.445  1.00  0.00     0.048 A 
ENDBRANCH  12  14
ENDBRANCH  11  12
ENDBRANCH  10  11
ENDBRANCH   8  10
BRANCH   8  21
HETATM   21  N3  UNL     1      22.367   4.713  49.968  1.00  0.00    -0.273 NA
HETATM   22  C15 UNL     1      22.084   5.933  50.087  1.00  0.00     0.100 C 
BRANCH  22  23
HETATM   23  C16 UNL     1      22.766   7.128  50.625  1.00  0.00     0.170 C 
HETATM   24  C17 UNL     1      22.500   8.267  49.712  1.00  0.00     0.064 C 
HETATM   25  N4  UNL     1      22.301   9.177  49.000  1.00  0.00    -0.197 NA
ENDBRANCH  22  23
ENDBRANCH   8  21
ENDBRANCH   6   8
ENDBRANCH   3   4
TORSDOF 8
ENDMDL
MODEL 3
REMARK VINA RESULT:      -6.6      3.616      6.347
REMARK  8 active torsions:
REMARK  status: ('A' for Active; 'I' for Inactive)
REMARK    1  A    between atoms: C3_3  and  C4_4 
REMARK       I    between atoms: C4_4  and  N1_6 
REMARK    2  A    between atoms: N1_6  and  C5_7 
REMARK    3  A    between atoms: C5_7  and  C7_9 
REMARK    4  A    between atoms: C5_7  and  N3_19 
REMARK    5  A    between atoms: C7_9  and  C8_10 
REMARK    6  A    between atoms: C8_10  and  N2_11 
REMARK    7  A    between atoms: N2_11  and  C9_12 
REMARK    8  A    between atoms: C15_20  and  C16_21 
ROOT
HETATM    1  C1  UNL     1      29.539   5.184  47.904  1.00  0.00     0.112 C 
HETATM    2  C2  UNL     1      28.195   5.047  48.500  1.00  0.00    -0.101 C 
HETATM    3  C3  UNL     1      27.089   4.920  48.990  1.00  0.00    -0.006 C 
ENDROOT
BRANCH   3   4
HETATM    4  C4  UNL     1      25.772   4.755  49.551  1.00  0.00     0.298 C 
HETATM    5  O1  UNL     1      24.847   5.372  48.993  1.00  0.00    -0.258 OA
HETATM    6  N1  UNL     1      25.541   3.928  50.687  1.00  0.00    -0.322 N 
HETATM    7  H4  UNL     1      26.417   3.459  51.065  1.00  0.00     0.166 HD
BRANCH   6   8
HETATM    8  C5  UNL     1      24.222   3.733  51.287  1.00  0.00     0.125 C 
HETATM    9  C6  UNL     1      23.387   4.968  51.316  1.00  0.00     0.065 C 
BRANCH   8  10
HETATM   10  C7  UNL     1      23.539   2.608  50.508  1.00  0.00     0.075 C 
BRANCH  10  11
HETATM   11  C8  UNL     1      22.157   2.376  51.070  1.00  0.00     0.124 C 
BRANCH  11  12
HETATM   12  N2  UNL     1      21.823   0.965  50.979  1.00  0.00    -0.390 N 
HETATM   13  H12 UNL     1      21.611   0.445  50.099  1.00  0.00     0.159 HD
BRANCH  12  14
HETATM   14  C9  UNL     1      21.787   0.236  52.204  1.00  0.00     0.029 A 
HETATM   15  C10 UNL     1      20.618  -0.279  52.707  1.00  0.00     0.029 A 
HETATM   16  C11 UNL     1      20.576  -0.986  53.893  1.00  0.00     0.004 A 
HETATM   17  C12 UNL     1      21.738  -1.200  54.625  1.00  0.00     0.019 A 
HETATM   18  C13 UNL     1      22.945  -0.693  54.146  1.00  0.00     0.013 A 
HETATM   19 BR1  UNL     1      24.547  -0.976  55.136  1.00  0.00    -0.051 Br
HETATM   20  C14 UNL     1      22.916   0.005  52.953  1.00  0.00     0.048 A 
ENDBRANCH  12  14
ENDBRANCH  11  12
ENDBRANCH  10  11
ENDBRANCH   8  10
BRANCH   8  21
HETATM   21  N3  UNL     1      24.442   3.303  52.639  1.00  0.00    -0.273 NA
HETATM   22  C15 UNL     1      25.374   2.524  52.967  1.00  0.00     0.100 C 
BRANCH  22  23
HETATM   23  C16 UNL     1      26.464   1.825  52.257  1.00  0.00     0.170 C 
HETATM   24  C17 UNL     1      27.748   2.181  52.911  1.00  0.00     0.064 C 
HETATM   25  N4  UNL     1      28.771   2.453  53.414  1.00  0.00    -0.197 NA
ENDBRANCH  22  23
ENDBRANCH   8  21
ENDBRANCH   6   8
ENDBRANCH   3   4
TORSDOF 8
ENDMDL
MODEL 4
REMARK VINA RESULT:      -6.4      4.255      8.095
REMARK  8 active torsions:
REMARK  status: ('A' for Active; 'I' for Inactive)
REMARK    1  A    between atoms: C3_3  and  C4_4 
REMARK       I    between atoms: C4_4  and  N1_6 
REMARK    2  A    between atoms: N1_6  and  C5_7 
REMARK    3  A    between atoms: C5_7  and  C7_9 
REMARK    4  A    between atoms: C5_7  and  N3_19 
REMARK    5  A    between atoms: C7_9  and  C8_10 
REMARK    6  A    between atoms: C8_10  and  N2_11 
REMARK    7  A    between atoms: N2_11  and  C9_12 
REMARK    8  A    between atoms: C15_20  and  C16_21 
ROOT
HETATM    1  C1  UNL     1      29.364   9.069  48.825  1.00  0.00     0.112 C 
HETATM    2  C2  UNL     1      28.150   8.263  49.064  1.00  0.00    -0.101 C 
HETATM    3  C3  UNL     1      27.141   7.612  49.257  1.00  0.00    -0.006 C 
ENDROOT
BRANCH   3   4
HETATM    4  C4  UNL     1      25.938   6.857  49.503  1.00  0.00     0.298 C 
HETATM    5  O1  UNL     1      24.885   7.509  49.616  1.00  0.00    -0.258 OA
HETATM    6  N1  UNL     1      25.954   5.437  49.608  1.00  0.00    -0.322 N 
HETATM    7  H4  UNL     1      26.920   5.007  49.491  1.00  0.00     0.166 HD
BRANCH   6   8
HETATM    8  C5  UNL     1      24.759   4.634  49.856  1.00  0.00     0.125 C 
HETATM    9  C6  UNL     1      23.688   4.818  48.835  1.00  0.00     0.065 C 
BRANCH   8  10
HETATM   10  C7  UNL     1      25.211   3.176  49.943  1.00  0.00     0.075 C 
BRANCH  10  11
HETATM   11  C8  UNL     1      26.625   3.119  50.468  1.00  0.00     0.124 C 
BRANCH  11  12
HETATM   12  N2  UNL     1      26.605   3.074  51.920  1.00  0.00    -0.390 N 
HETATM   13  H12 UNL     1      26.133   3.764  52.544  1.00  0.00     0.159 HD
BRANCH  12  14
HETATM   14  C9  UNL     1      27.294   1.987  52.535  1.00  0.00     0.029 A 
HETATM   15  C10 UNL     1      28.323   2.189  53.422  1.00  0.00     0.029 A 
HETATM   16  C11 UNL     1      28.994   1.141  54.022  1.00  0.00     0.004 A 
HETATM   17  C12 UNL     1      28.639  -0.173  53.739  1.00  0.00     0.019 A 
HETATM   18  C13 UNL     1      27.599  -0.418  52.844  1.00  0.00     0.013 A 
HETATM   19 BR1  UNL     1      27.101  -2.213  52.445  1.00  0.00    -0.051 Br
HETATM   20  C14 UNL     1      26.971   0.676  52.280  1.00  0.00     0.048 A 
ENDBRANCH  12  14
ENDBRANCH  11  12
ENDBRANCH  10  11
ENDBRANCH   8  10
BRANCH   8  21
HETATM   21  N3  UNL     1      24.243   5.042  51.133  1.00  0.00    -0.273 NA
HETATM   22  C15 UNL     1      23.349   4.404  51.746  1.00  0.00     0.100 C 
BRANCH  22  23
HETATM   23  C16 UNL     1      22.565   3.178  51.493  1.00  0.00     0.170 C 
HETATM   24  C17 UNL     1      21.184   3.399  51.988  1.00  0.00     0.064 C 
HETATM   25  N4  UNL     1      20.089   3.556  52.376  1.00  0.00    -0.197 NA
ENDBRANCH  22  23
ENDBRANCH   8  21
ENDBRANCH   6   8
ENDBRANCH   3   4
TORSDOF 8
ENDMDL
MODEL 5
REMARK VINA RESULT:      -6.4      3.090      4.873
REMARK  8 active torsions:
REMARK  status: ('A' for Active; 'I' for Inactive)
REMARK    1  A    between atoms: C3_3  and  C4_4 
REMARK       I    between atoms: C4_4  and  N1_6 
REMARK    2  A    between atoms: N1_6  and  C5_7 
REMARK    3  A    between atoms: C5_7  and  C7_9 
REMARK    4  A    between atoms: C5_7  and  N3_19 
REMARK    5  A    between atoms: C7_9  and  C8_10 
REMARK    6  A    between atoms: C8_10  and  N2_11 
REMARK    7  A    between atoms: N2_11  and  C9_12 
REMARK    8  A    between atoms: C15_20  and  C16_21 
ROOT
HETATM    1  C1  UNL     1      25.854   7.030  48.110  1.00  0.00     0.112 C 
HETATM    2  C2  UNL     1      26.008   5.791  48.898  1.00  0.00    -0.101 C 
HETATM    3  C3  UNL     1      26.130   4.763  49.536  1.00  0.00    -0.006 C 
ENDROOT
BRANCH   3   4
HETATM    4  C4  UNL     1      26.249   3.539  50.289  1.00  0.00     0.298 C 
HETATM    5  O1  UNL     1      26.827   2.592  49.725  1.00  0.00    -0.258 OA
HETATM    6  N1  UNL     1      25.734   3.422  51.611  1.00  0.00    -0.322 N 
HETATM    7  H4  UNL     1      25.265   4.305  51.972  1.00  0.00     0.166 HD
BRANCH   6   8
HETATM    8  C5  UNL     1      25.833   2.201  52.408  1.00  0.00     0.125 C 
HETATM    9  C6  UNL     1      25.574   2.408  53.862  1.00  0.00     0.065 C 
BRANCH   8  10
HETATM   10  C7  UNL     1      24.859   1.191  51.800  1.00  0.00     0.075 C 
BRANCH  10  11
HETATM   11  C8  UNL     1      23.599   1.146  52.632  1.00  0.00     0.124 C 
BRANCH  11  12
HETATM   12  N2  UNL     1      22.679   2.176  52.180  1.00  0.00    -0.390 N 
HETATM   13  H12 UNL     1      22.265   2.927  52.775  1.00  0.00     0.159 HD
BRANCH  12  14
HETATM   14  C9  UNL     1      22.318   2.150  50.800  1.00  0.00     0.029 A 
HETATM   15  C10 UNL     1      21.755   1.041  50.219  1.00  0.00     0.029 A 
HETATM   16  C11 UNL     1      21.403   1.009  48.883  1.00  0.00     0.004 A 
HETATM   17  C12 UNL     1      21.613   2.120  48.075  1.00  0.00     0.019 A 
HETATM   18  C13 UNL     1      22.182   3.265  48.630  1.00  0.00     0.013 A 
HETATM   19 BR1  UNL     1      22.478   4.797  47.536  1.00  0.00    -0.051 Br
HETATM   20  C14 UNL     1      22.511   3.229  49.971  1.00  0.00     0.048 A 
ENDBRANCH  12  14
ENDBRANCH  11  12
ENDBRANCH  10  11
ENDBRANCH   8  10
BRANCH   8  21
HETATM   21  N3  UNL     1      27.174   1.712  52.252  1.00  0.00    -0.273 NA
HETATM   22  C15 UNL     1      27.567   0.622  52.741  1.00  0.00     0.100 C 
BRANCH  22  23
HETATM   23  C16 UNL     1      26.956  -0.455  53.548  1.00  0.00     0.170 C 
HETATM   24  C17 UNL     1      27.458  -1.756  53.042  1.00  0.00     0.064 C 
HETATM   25  N4  UNL     1      27.844  -2.793  52.654  1.00  0.00    -0.197 NA
ENDBRANCH  22  23
ENDBRANCH   8  21
ENDBRANCH   6   8
ENDBRANCH   3   4
TORSDOF 8
ENDMDL
MODEL 6
REMARK VINA RESULT:      -6.2      2.940      5.164
REMARK  8 active torsions:
REMARK  status: ('A' for Active; 'I' for Inactive)
REMARK    1  A    between atoms: C3_3  and  C4_4 
REMARK       I    between atoms: C4_4  and  N1_6 
REMARK    2  A    between atoms: N1_6  and  C5_7 
REMARK    3  A    between atoms: C5_7  and  C7_9 
REMARK    4  A    between atoms: C5_7  and  N3_19 
REMARK    5  A    between atoms: C7_9  and  C8_10 
REMARK    6  A    between atoms: C8_10  and  N2_11 
REMARK    7  A    between atoms: N2_11  and  C9_12 
REMARK    8  A    between atoms: C15_20  and  C16_21 
ROOT
HETATM    1  C1  UNL     1      28.755   5.913  48.112  1.00  0.00     0.112 C 
HETATM    2  C2  UNL     1      27.670   5.132  48.739  1.00  0.00    -0.101 C 
HETATM    3  C3  UNL     1      26.766   4.498  49.248  1.00  0.00    -0.006 C 
ENDROOT
BRANCH   3   4
HETATM    4  C4  UNL     1      25.685   3.767  49.862  1.00  0.00     0.298 C 
HETATM    5  O1  UNL     1      24.789   3.357  49.103  1.00  0.00    -0.258 OA
HETATM    6  N1  UNL     1      25.647   3.527  51.265  1.00  0.00    -0.322 N 
HETATM    7  H4  UNL     1      26.475   3.932  51.795  1.00  0.00     0.166 HD
BRANCH   6   8
HETATM    8  C5  UNL     1      24.571   2.792  51.927  1.00  0.00     0.125 C 
HETATM    9  C6  UNL     1      24.547   2.964  53.408  1.00  0.00     0.065 C 
BRANCH   8  10
HETATM   10  C7  UNL     1      23.259   3.248  51.285  1.00  0.00     0.075 C 
BRANCH  10  11
HETATM   11  C8  UNL     1      22.448   4.022  52.297  1.00  0.00     0.124 C 
BRANCH  11  12
HETATM   12  N2  UNL     1      23.099   5.290  52.578  1.00  0.00    -0.390 N 
HETATM   13  H12 UNL     1      23.579   5.543  53.470  1.00  0.00     0.159 HD
BRANCH  12  14
HETATM   14  C9  UNL     1      23.076   6.265  51.538  1.00  0.00     0.029 A 
HETATM   15  C10 UNL     1      21.909   6.634  50.916  1.00  0.00     0.029 A 
HETATM   16  C11 UNL     1      21.879   7.578  49.907  1.00  0.00     0.004 A 
HETATM   17  C12 UNL     1      23.052   8.193  49.487  1.00  0.00     0.019 A 
HETATM   18  C13 UNL     1      24.257   7.846  50.096  1.00  0.00     0.013 A 
HETATM   19 BR1  UNL     1      25.875   8.679  49.531  1.00  0.00    -0.051 Br
HETATM   20  C14 UNL     1      24.215   6.894  51.097  1.00  0.00     0.048 A 
ENDBRANCH  12  14
ENDBRANCH  11  12
ENDBRANCH  10  11
ENDBRANCH   8  10
BRANCH   8  21
HETATM   21  N3  UNL     1      24.778   1.402  51.635  1.00  0.00    -0.273 NA
HETATM   22  C15 UNL     1      25.835   0.790  51.935  1.00  0.00     0.100 C 
BRANCH  22  23
HETATM   23  C16 UNL     1      27.108   1.142  52.597  1.00  0.00     0.170 C 
HETATM   24  C17 UNL     1      27.189   0.394  53.876  1.00  0.00     0.064 C 
HETATM   25  N4  UNL     1      27.269  -0.188  54.890  1.00  0.00    -0.197 NA
ENDBRANCH  22  23
ENDBRANCH   8  21
ENDBRANCH   6   8
ENDBRANCH   3   4
TORSDOF 8
ENDMDL
MODEL 7
REMARK VINA RESULT:      -6.2      3.511      5.745
REMARK  8 active torsions:
REMARK  status: ('A' for Active; 'I' for Inactive)
REMARK    1  A    between atoms: C3_3  and  C4_4 
REMARK       I    between atoms: C4_4  and  N1_6 
REMARK    2  A    between atoms: N1_6  and  C5_7 
REMARK    3  A    between atoms: C5_7  and  C7_9 
REMARK    4  A    between atoms: C5_7  and  N3_19 
REMARK    5  A    between atoms: C7_9  and  C8_10 
REMARK    6  A    between atoms: C8_10  and  N2_11 
REMARK    7  A    between atoms: N2_11  and  C9_12 
REMARK    8  A    between atoms: C15_20  and  C16_21 
ROOT
HETATM    1  C1  UNL     1      20.761  -1.901  54.435  1.00  0.00     0.112 C 
HETATM    2  C2  UNL     1      21.734  -0.917  53.920  1.00  0.00    -0.101 C 
HETATM    3  C3  UNL     1      22.531  -0.096  53.506  1.00  0.00    -0.006 C 
ENDROOT
BRANCH   3   4
HETATM    4  C4  UNL     1      23.456   0.892  53.010  1.00  0.00     0.298 C 
HETATM    5  O1  UNL     1      24.604   0.870  53.488  1.00  0.00    -0.258 OA
HETATM    6  N1  UNL     1      23.074   1.845  52.023  1.00  0.00    -0.322 N 
HETATM    7  H4  UNL     1      22.065   1.751  51.701  1.00  0.00     0.166 HD
BRANCH   6   8
HETATM    8  C5  UNL     1      23.979   2.862  51.494  1.00  0.00     0.125 C 
HETATM    9  C6  UNL     1      24.293   3.951  52.463  1.00  0.00     0.065 C 
BRANCH   8  10
HETATM   10  C7  UNL     1      25.244   2.137  51.031  1.00  0.00     0.075 C 
BRANCH  10  11
HETATM   11  C8  UNL     1      26.351   3.143  50.821  1.00  0.00     0.124 C 
BRANCH  11  12
HETATM   12  N2  UNL     1      26.570   3.337  49.397  1.00  0.00    -0.390 N 
HETATM   13  H12 UNL     1      26.535   2.592  48.668  1.00  0.00     0.159 HD
BRANCH  12  14
HETATM   14  C9  UNL     1      26.855   4.668  48.971  1.00  0.00     0.029 A 
HETATM   15  C10 UNL     1      25.897   5.652  48.975  1.00  0.00     0.029 A 
HETATM   16  C11 UNL     1      26.167   6.943  48.562  1.00  0.00     0.004 A 
HETATM   17  C12 UNL     1      27.439   7.288  48.123  1.00  0.00     0.019 A 
HETATM   18  C13 UNL     1      28.438   6.316  48.105  1.00  0.00     0.013 A 
HETATM   19 BR1  UNL     1      30.188   6.772  47.505  1.00  0.00    -0.051 Br
HETATM   20  C14 UNL     1      28.101   5.045  48.530  1.00  0.00     0.048 A 
ENDBRANCH  12  14
ENDBRANCH  11  12
ENDBRANCH  10  11
ENDBRANCH   8  10
BRANCH   8  21
HETATM   21  N3  UNL     1      23.328   3.444  50.354  1.00  0.00    -0.273 NA
HETATM   22  C15 UNL     1      22.355   4.235  50.452  1.00  0.00     0.100 C 
BRANCH  22  23
HETATM   23  C16 UNL     1      21.577   4.820  51.563  1.00  0.00     0.170 C 
HETATM   24  C17 UNL     1      20.301   4.073  51.683  1.00  0.00     0.064 C 
HETATM   25  N4  UNL     1      19.287   3.493  51.790  1.00  0.00    -0.197 NA
ENDBRANCH  22  23
ENDBRANCH   8  21
ENDBRANCH   6   8
ENDBRANCH   3   4
TORSDOF 8
ENDMDL
MODEL 8
REMARK VINA RESULT:      -6.1      3.969      7.706
REMARK  8 active torsions:
REMARK  status: ('A' for Active; 'I' for Inactive)
REMARK    1  A    between atoms: C3_3  and  C4_4 
REMARK       I    between atoms: C4_4  and  N1_6 
REMARK    2  A    between atoms: N1_6  and  C5_7 
REMARK    3  A    between atoms: C5_7  and  C7_9 
REMARK    4  A    between atoms: C5_7  and  N3_19 
REMARK    5  A    between atoms: C7_9  and  C8_10 
REMARK    6  A    between atoms: C8_10  and  N2_11 
REMARK    7  A    between atoms: N2_11  and  C9_12 
REMARK    8  A    between atoms: C15_20  and  C16_21 
ROOT
HETATM    1  C1  UNL     1      28.285   6.875  47.810  1.00  0.00     0.112 C 
HETATM    2  C2  UNL     1      27.141   6.361  48.589  1.00  0.00    -0.101 C 
HETATM    3  C3  UNL     1      26.201   5.925  49.226  1.00  0.00    -0.006 C 
ENDROOT
BRANCH   3   4
HETATM    4  C4  UNL     1      25.076   5.399  49.958  1.00  0.00     0.298 C 
HETATM    5  O1  UNL     1      24.543   6.162  50.783  1.00  0.00    -0.258 OA
HETATM    6  N1  UNL     1      24.600   4.073  49.748  1.00  0.00    -0.322 N 
HETATM    7  H4  UNL     1      25.147   3.530  49.014  1.00  0.00     0.166 HD
BRANCH   6   8
HETATM    8  C5  UNL     1      23.465   3.501  50.469  1.00  0.00     0.125 C 
HETATM    9  C6  UNL     1      23.361   2.019  50.348  1.00  0.00     0.065 C 
BRANCH   8  10
HETATM   10  C7  UNL     1      23.597   3.941  51.928  1.00  0.00     0.075 C 
BRANCH  10  11
HETATM   11  C8  UNL     1      23.931   2.743  52.784  1.00  0.00     0.124 C 
BRANCH  11  12
HETATM   12  N2  UNL     1      25.355   2.728  53.069  1.00  0.00    -0.390 N 
HETATM   13  H12 UNL     1      25.940   3.562  53.296  1.00  0.00     0.159 HD
BRANCH  12  14
HETATM   14  C9  UNL     1      26.001   1.457  53.033  1.00  0.00     0.029 A 
HETATM   15  C10 UNL     1      25.317   0.304  52.734  1.00  0.00     0.029 A 
HETATM   16  C11 UNL     1      25.936  -0.931  52.698  1.00  0.00     0.004 A 
HETATM   17  C12 UNL     1      27.295  -1.043  52.968  1.00  0.00     0.019 A 
HETATM   18  C13 UNL     1      28.023   0.105  53.275  1.00  0.00     0.013 A 
HETATM   19 BR1  UNL     1      29.886  -0.031  53.649  1.00  0.00    -0.051 Br
HETATM   20  C14 UNL     1      27.342   1.307  53.295  1.00  0.00     0.048 A 
ENDBRANCH  12  14
ENDBRANCH  11  12
ENDBRANCH  10  11
ENDBRANCH   8  10
BRANCH   8  21
HETATM   21  N3  UNL     1      22.281   4.086  49.907  1.00  0.00    -0.273 NA
HETATM   22  C15 UNL     1      21.120   3.716  50.220  1.00  0.00     0.100 C 
BRANCH  22  23
HETATM   23  C16 UNL     1      20.543   2.705  51.130  1.00  0.00     0.170 C 
HETATM   24  C17 UNL     1      19.256   3.229  51.651  1.00  0.00     0.064 C 
HETATM   25  N4  UNL     1      18.239   3.628  52.074  1.00  0.00    -0.197 NA
ENDBRANCH  22  23
ENDBRANCH   8  21
ENDBRANCH   6   8
ENDBRANCH   3   4
TORSDOF 8
ENDMDL
MODEL 9
REMARK VINA RESULT:      -6.1      3.295      6.751
REMARK  8 active torsions:
REMARK  status: ('A' for Active; 'I' for Inactive)
REMARK    1  A    between atoms: C3_3  and  C4_4 
REMARK       I    between atoms: C4_4  and  N1_6 
REMARK    2  A    between atoms: N1_6  and  C5_7 
REMARK    3  A    between atoms: C5_7  and  C7_9 
REMARK    4  A    between atoms: C5_7  and  N3_19 
REMARK    5  A    between atoms: C7_9  and  C8_10 
REMARK    6  A    between atoms: C8_10  and  N2_11 
REMARK    7  A    between atoms: N2_11  and  C9_12 
REMARK    8  A    between atoms: C15_20  and  C16_21 
ROOT
HETATM    1  C1  UNL     1      21.390   8.753  49.496  1.00  0.00     0.112 C 
HETATM    2  C2  UNL     1      21.635   7.450  50.146  1.00  0.00    -0.101 C 
HETATM    3  C3  UNL     1      21.849   6.382  50.688  1.00  0.00    -0.006 C 
ENDROOT
BRANCH   3   4
HETATM    4  C4  UNL     1      22.125   5.117  51.322  1.00  0.00     0.298 C 
HETATM    5  O1  UNL     1      22.359   5.146  52.543  1.00  0.00    -0.258 OA
HETATM    6  N1  UNL     1      22.129   3.898  50.587  1.00  0.00    -0.322 N 
HETATM    7  H4  UNL     1      21.913   4.016  49.552  1.00  0.00     0.166 HD
BRANCH   6   8
HETATM    8  C5  UNL     1      22.405   2.595  51.190  1.00  0.00     0.125 C 
HETATM    9  C6  UNL     1      22.646   1.510  50.196  1.00  0.00     0.065 C 
BRANCH   8  10
HETATM   10  C7  UNL     1      23.602   2.781  52.123  1.00  0.00     0.075 C 
BRANCH  10  11
HETATM   11  C8  UNL     1      24.881   2.651  51.331  1.00  0.00     0.124 C 
BRANCH  11  12
HETATM   12  N2  UNL     1      26.010   3.033  52.162  1.00  0.00    -0.390 N 
HETATM   13  H12 UNL     1      26.229   4.001  52.485  1.00  0.00     0.159 HD
BRANCH  12  14
HETATM   14  C9  UNL     1      26.890   1.986  52.566  1.00  0.00     0.029 A 
HETATM   15  C10 UNL     1      28.096   2.245  53.170  1.00  0.00     0.029 A 
HETATM   16  C11 UNL     1      28.953   1.235  53.564  1.00  0.00     0.004 A 
HETATM   17  C12 UNL     1      28.612  -0.096  53.356  1.00  0.00     0.019 A 
HETATM   18  C13 UNL     1      27.396  -0.398  52.746  1.00  0.00     0.013 A 
HETATM   19 BR1  UNL     1      26.914  -2.218  52.452  1.00  0.00    -0.051 Br
HETATM   20  C14 UNL     1      26.587   0.659  52.376  1.00  0.00     0.048 A 
ENDBRANCH  12  14
ENDBRANCH  11  12
ENDBRANCH  10  11
ENDBRANCH   8  10
BRANCH   8  21
HETATM   21  N3  UNL     1      21.251   2.248  51.970  1.00  0.00    -0.273 NA
HETATM   22  C15 UNL     1      21.128   1.141  52.556  1.00  0.00     0.100 C 
BRANCH  22  23
HETATM   23  C16 UNL     1      21.951  -0.079  52.692  1.00  0.00     0.170 C 
HETATM   24  C17 UNL     1      21.691  -0.669  54.028  1.00  0.00     0.064 C 
HETATM   25  N4  UNL     1      21.498  -1.148  55.080  1.00  0.00    -0.197 NA
ENDBRANCH  22  23
ENDBRANCH   8  21
ENDBRANCH   6   8
ENDBRANCH   3   4
TORSDOF 8
ENDMDL
