MODEL 1
REMARK VINA RESULT:      -8.4      0.000      0.000
REMARK  8 active torsions:
REMARK  status: ('A' for Active; 'I' for Inactive)
REMARK    1  A    between atoms: O1_2  and  C2_3 
REMARK    2  A    between atoms: C6_7  and  N1_8 
REMARK    3  A    between atoms: N1_8  and  C7_9 
REMARK    4  A    between atoms: C15_21  and  O2_22 
REMARK    5  A    between atoms: O2_22  and  C16_23 
REMARK    6  A    between atoms: C16_23  and  C17_24 
REMARK    7  A    between atoms: C17_24  and  C18_25 
REMARK    8  A    between atoms: C18_25  and  N4_26 
ROOT
HETATM    1  C2  UNL     1      24.108   5.242  50.342  1.00  0.00     0.103 C 
HETATM    2  C3  UNL     1      24.693   6.273  49.745  1.00  0.00     0.079 C 
HETATM    3  C4  UNL     1      25.992   6.182  49.125  1.00  0.00     0.173 A 
HETATM    4  C5  UNL     1      26.965   6.862  48.442  1.00  0.00     0.097 A 
HETATM    5  C6  UNL     1      28.000   5.871  48.234  1.00  0.00     0.344 A 
HETATM    6  N2  UNL     1      27.837   4.603  48.700  1.00  0.00    -0.004 NA
HETATM    7  C13 UNL     1      26.851   4.062  49.347  1.00  0.00     0.249 A 
HETATM    8  N3  UNL     1      26.892   5.256  48.964  1.00  0.00     0.128 N 
HETATM    9  C14 UNL     1      25.788   3.441  50.055  1.00  0.00     0.094 C 
HETATM   10  C15 UNL     1      24.712   3.942  50.654  1.00  0.00     0.105 C 
ENDROOT
BRANCH   5  11
HETATM   11  N1  UNL     1      29.065   6.481  47.517  1.00  0.00    -0.337 N 
HETATM   12  H6  UNL     1      28.759   7.057  46.715  1.00  0.00     0.164 HD
BRANCH  11  13
HETATM   13  C7  UNL     1      30.395   6.246  47.962  1.00  0.00     0.033 A 
HETATM   14  C8  UNL     1      31.044   7.214  48.692  1.00  0.00     0.032 A 
HETATM   15  C9  UNL     1      32.326   7.035  49.155  1.00  0.00     0.046 A 
HETATM   16  C10 UNL     1      33.011   5.877  48.904  1.00  0.00     0.138 A 
HETATM   17  F1  UNL     1      34.263   5.547  49.287  1.00  0.00    -0.204 F 
HETATM   18  C11 UNL     1      32.355   4.912  48.170  1.00  0.00     0.074 A 
HETATM   19 CL1  UNL     1      33.082   3.370  47.758  1.00  0.00    -0.081 Cl
HETATM   20  C12 UNL     1      31.054   5.059  47.685  1.00  0.00     0.056 A 
ENDBRANCH  11  13
ENDBRANCH   5  11
BRANCH   1  21
HETATM   21  O1  UNL     1      22.856   5.583  50.620  1.00  0.00    -0.353 OA
HETATM   22  C1  UNL     1      22.314   6.862  50.745  1.00  0.00     0.210 C 
ENDBRANCH   1  21
BRANCH  10  23
HETATM   23  O2  UNL     1      24.290   3.088  51.561  1.00  0.00    -0.348 OA
BRANCH  23  24
HETATM   24  C16 UNL     1      24.115   1.715  51.324  1.00  0.00     0.177 C 
BRANCH  24  25
HETATM   25  C17 UNL     1      24.255   0.981  52.657  1.00  0.00     0.057 C 
BRANCH  25  26
HETATM   26  C18 UNL     1      25.680   0.520  52.883  1.00  0.00     0.274 C 
BRANCH  26  27
HETATM   27  N4  UNL     1      26.288   1.178  53.997  1.00  0.00     0.092 N 
HETATM   28  C19 UNL     1      27.051   2.333  53.664  1.00  0.00     0.298 C 
HETATM   29  C20 UNL     1      28.555   2.096  53.620  1.00  0.00     0.198 C 
HETATM   30  O3  UNL     1      28.986   1.469  54.778  1.00  0.00    -0.388 OA
HETATM   31  C21 UNL     1      28.410   0.200  54.806  1.00  0.00     0.198 C 
HETATM   32  C22 UNL     1      26.920   0.244  54.862  1.00  0.00     0.298 C 
ENDBRANCH  26  27
ENDBRANCH  25  26
ENDBRANCH  24  25
ENDBRANCH  23  24
ENDBRANCH  10  23
TORSDOF 8
ENDMDL
MODEL 2
REMARK VINA RESULT:      -8.0      1.504      1.960
REMARK  8 active torsions:
REMARK  status: ('A' for Active; 'I' for Inactive)
REMARK    1  A    between atoms: O1_2  and  C2_3 
REMARK    2  A    between atoms: C6_7  and  N1_8 
REMARK    3  A    between atoms: N1_8  and  C7_9 
REMARK    4  A    between atoms: C15_21  and  O2_22 
REMARK    5  A    between atoms: O2_22  and  C16_23 
REMARK    6  A    between atoms: C16_23  and  C17_24 
REMARK    7  A    between atoms: C17_24  and  C18_25 
REMARK    8  A    between atoms: C18_25  and  N4_26 
ROOT
HETATM    1  C2  UNL     1      25.303   6.462  49.026  1.00  0.00     0.103 C 
HETATM    2  C3  UNL     1      26.179   7.332  48.536  1.00  0.00     0.079 C 
HETATM    3  C4  UNL     1      27.535   6.970  48.204  1.00  0.00     0.173 A 
HETATM    4  C5  UNL     1      28.735   7.419  47.720  1.00  0.00     0.097 A 
HETATM    5  C6  UNL     1      29.585   6.248  47.760  1.00  0.00     0.344 A 
HETATM    6  N2  UNL     1      29.097   5.062  48.216  1.00  0.00    -0.004 NA
HETATM    7  C13 UNL     1      27.918   4.749  48.657  1.00  0.00     0.249 A 
HETATM    8  N3  UNL     1      28.259   5.890  48.259  1.00  0.00     0.128 N 
HETATM    9  C14 UNL     1      26.637   4.376  49.145  1.00  0.00     0.094 C 
HETATM   10  C15 UNL     1      25.577   5.099  49.493  1.00  0.00     0.105 C 
ENDROOT
BRANCH   5  11
HETATM   11  N1  UNL     1      30.868   6.609  47.265  1.00  0.00    -0.337 N 
HETATM   12  H6  UNL     1      30.897   7.534  46.805  1.00  0.00     0.164 HD
BRANCH  11  13
HETATM   13  C7  UNL     1      31.941   5.695  47.448  1.00  0.00     0.033 A 
HETATM   14  C8  UNL     1      33.143   6.152  47.934  1.00  0.00     0.032 A 
HETATM   15  C9  UNL     1      34.210   5.310  48.139  1.00  0.00     0.046 A 
HETATM   16  C10 UNL     1      34.116   3.972  47.865  1.00  0.00     0.138 A 
HETATM   17  F1  UNL     1      35.060   3.020  48.013  1.00  0.00    -0.204 F 
HETATM   18  C11 UNL     1      32.908   3.521  47.377  1.00  0.00     0.074 A 
HETATM   19 CL1  UNL     1      32.611   1.840  46.974  1.00  0.00    -0.081 Cl
HETATM   20  C12 UNL     1      31.803   4.347  47.156  1.00  0.00     0.056 A 
ENDBRANCH  11  13
ENDBRANCH   5  11
BRANCH   1  21
HETATM   21  O1  UNL     1      24.108   7.039  49.027  1.00  0.00    -0.353 OA
HETATM   22  C1  UNL     1      23.528   7.829  50.019  1.00  0.00     0.210 C 
ENDBRANCH   1  21
BRANCH  10  23
HETATM   23  O2  UNL     1      24.829   4.396  50.314  1.00  0.00    -0.348 OA
BRANCH  23  24
HETATM   24  C16 UNL     1      24.977   3.014  50.521  1.00  0.00     0.177 C 
BRANCH  24  25
HETATM   25  C17 UNL     1      25.406   2.794  51.971  1.00  0.00     0.057 C 
BRANCH  25  26
HETATM   26  C18 UNL     1      26.761   2.120  52.046  1.00  0.00     0.274 C 
BRANCH  26  27
HETATM   27  N4  UNL     1      27.233   2.011  53.391  1.00  0.00     0.092 N 
HETATM   28  C19 UNL     1      28.567   1.533  53.518  1.00  0.00     0.298 C 
HETATM   29  C20 UNL     1      28.670   0.060  53.890  1.00  0.00     0.198 C 
HETATM   30  O3  UNL     1      27.878  -0.224  54.991  1.00  0.00    -0.388 OA
HETATM   31  C21 UNL     1      26.551  -0.027  54.615  1.00  0.00     0.198 C 
HETATM   32  C22 UNL     1      26.266   1.384  54.224  1.00  0.00     0.298 C 
ENDBRANCH  26  27
ENDBRANCH  25  26
ENDBRANCH  24  25
ENDBRANCH  23  24
ENDBRANCH  10  23
TORSDOF 8
ENDMDL
MODEL 3
REMARK VINA RESULT:      -7.9      1.422      1.953
REMARK  8 active torsions:
REMARK  status: ('A' for Active; 'I' for Inactive)
REMARK    1  A    between atoms: O1_2  and  C2_3 
REMARK    2  A    between atoms: C6_7  and  N1_8 
REMARK    3  A    between atoms: N1_8  and  C7_9 
REMARK    4  A    between atoms: C15_21  and  O2_22 
REMARK    5  A    between atoms: O2_22  and  C16_23 
REMARK    6  A    between atoms: C16_23  and  C17_24 
REMARK    7  A    between atoms: C17_24  and  C18_25 
REMARK    8  A    between atoms: C18_25  and  N4_26 
ROOT
HETATM    1  C2  UNL     1      24.503   5.652  49.350  1.00  0.00     0.103 C 
HETATM    2  C3  UNL     1      25.261   6.605  48.821  1.00  0.00     0.079 C 
HETATM    3  C4  UNL     1      26.652   6.404  48.495  1.00  0.00     0.173 A 
HETATM    4  C5  UNL     1      27.785   6.982  47.987  1.00  0.00     0.097 A 
HETATM    5  C6  UNL     1      28.777   5.931  48.069  1.00  0.00     0.344 A 
HETATM    6  N2  UNL     1      28.444   4.712  48.576  1.00  0.00    -0.004 NA
HETATM    7  C13 UNL     1      27.314   4.271  49.036  1.00  0.00     0.249 A 
HETATM    8  N3  UNL     1      27.507   5.428  48.590  1.00  0.00     0.128 N 
HETATM    9  C14 UNL     1      26.091   3.758  49.546  1.00  0.00     0.094 C 
HETATM   10  C15 UNL     1      24.948   4.355  49.870  1.00  0.00     0.105 C 
ENDROOT
BRANCH   5  11
HETATM   11  N1  UNL     1      30.003   6.431  47.552  1.00  0.00    -0.337 N 
HETATM   12  H6  UNL     1      29.935   7.380  47.149  1.00  0.00     0.164 HD
BRANCH  11  13
HETATM   13  C7  UNL     1      31.157   5.605  47.640  1.00  0.00     0.033 A 
HETATM   14  C8  UNL     1      31.130   4.345  47.090  1.00  0.00     0.032 A 
HETATM   15  C9  UNL     1      32.220   3.509  47.139  1.00  0.00     0.046 A 
HETATM   16  C10 UNL     1      33.384   3.902  47.741  1.00  0.00     0.138 A 
HETATM   17  F1  UNL     1      34.534   3.208  47.870  1.00  0.00    -0.204 F 
HETATM   18  C11 UNL     1      33.404   5.166  48.292  1.00  0.00     0.074 A 
HETATM   19 CL1  UNL     1      34.811   5.831  49.101  1.00  0.00    -0.081 Cl
HETATM   20  C12 UNL     1      32.316   6.042  48.261  1.00  0.00     0.056 A 
ENDBRANCH  11  13
ENDBRANCH   5  11
BRANCH   1  21
HETATM   21  O1  UNL     1      23.244   6.072  49.335  1.00  0.00    -0.353 OA
HETATM   22  C1  UNL     1      22.551   6.767  50.326  1.00  0.00     0.210 C 
ENDBRANCH   1  21
BRANCH  10  23
HETATM   23  O2  UNL     1      24.296   3.597  50.724  1.00  0.00    -0.348 OA
BRANCH  23  24
HETATM   24  C16 UNL     1      24.109   3.922  52.077  1.00  0.00     0.177 C 
BRANCH  24  25
HETATM   25  C17 UNL     1      24.093   2.622  52.880  1.00  0.00     0.057 C 
BRANCH  25  26
HETATM   26  C18 UNL     1      24.724   1.487  52.100  1.00  0.00     0.274 C 
BRANCH  26  27
HETATM   27  N4  UNL     1      26.080   1.254  52.490  1.00  0.00     0.092 N 
HETATM   28  C19 UNL     1      26.649   0.053  51.980  1.00  0.00     0.298 C 
HETATM   29  C20 UNL     1      26.688  -1.093  52.982  1.00  0.00     0.198 C 
HETATM   30  O3  UNL     1      27.255  -0.681  54.176  1.00  0.00    -0.388 OA
HETATM   31  C21 UNL     1      26.406   0.273  54.736  1.00  0.00     0.198 C 
HETATM   32  C22 UNL     1      26.260   1.486  53.880  1.00  0.00     0.298 C 
ENDBRANCH  26  27
ENDBRANCH  25  26
ENDBRANCH  24  25
ENDBRANCH  23  24
ENDBRANCH  10  23
TORSDOF 8
ENDMDL
MODEL 4
REMARK VINA RESULT:      -7.9      8.010     11.775
REMARK  8 active torsions:
REMARK  status: ('A' for Active; 'I' for Inactive)
REMARK    1  A    between atoms: O1_2  and  C2_3 
REMARK    2  A    between atoms: C6_7  and  N1_8 
REMARK    3  A    between atoms: N1_8  and  C7_9 
REMARK    4  A    between atoms: C15_21  and  O2_22 
REMARK    5  A    between atoms: O2_22  and  C16_23 
REMARK    6  A    between atoms: C16_23  and  C17_24 
REMARK    7  A    between atoms: C17_24  and  C18_25 
REMARK    8  A    between atoms: C18_25  and  N4_26 
ROOT
HETATM    1  C2  UNL     1      21.882  -0.440  53.315  1.00  0.00     0.103 C 
HETATM    2  C3  UNL     1      20.733  -0.881  53.810  1.00  0.00     0.079 C 
HETATM    3  C4  UNL     1      19.476  -0.732  53.119  1.00  0.00     0.173 A 
HETATM    4  C5  UNL     1      18.128  -0.972  53.165  1.00  0.00     0.097 A 
HETATM    5  C6  UNL     1      17.632  -0.406  51.929  1.00  0.00     0.344 A 
HETATM    6  N2  UNL     1      18.489   0.191  51.056  1.00  0.00    -0.004 NA
HETATM    7  C13 UNL     1      19.774   0.363  51.120  1.00  0.00     0.249 A 
HETATM    8  N3  UNL     1      19.079  -0.208  51.996  1.00  0.00     0.128 N 
HETATM    9  C14 UNL     1      21.179   0.566  51.160  1.00  0.00     0.094 C 
HETATM   10  C15 UNL     1      22.067   0.417  52.139  1.00  0.00     0.105 C 
ENDROOT
BRANCH   5  11
HETATM   11  N1  UNL     1      16.226  -0.612  51.874  1.00  0.00    -0.337 N 
HETATM   12  H6  UNL     1      15.950  -1.537  51.506  1.00  0.00     0.164 HD
BRANCH  11  13
HETATM   13  C7  UNL     1      15.375   0.437  52.317  1.00  0.00     0.033 A 
HETATM   14  C8  UNL     1      15.605   1.722  51.885  1.00  0.00     0.032 A 
HETATM   15  C9  UNL     1      14.808   2.771  52.274  1.00  0.00     0.046 A 
HETATM   16  C10 UNL     1      13.745   2.576  53.114  1.00  0.00     0.138 A 
HETATM   17  F1  UNL     1      12.871   3.492  53.583  1.00  0.00    -0.204 F 
HETATM   18  C11 UNL     1      13.520   1.286  53.544  1.00  0.00     0.074 A 
HETATM   19 CL1  UNL     1      12.204   0.855  54.620  1.00  0.00    -0.081 Cl
HETATM   20  C12 UNL     1      14.310   0.196  53.169  1.00  0.00     0.056 A 
ENDBRANCH  11  13
ENDBRANCH   5  11
BRANCH   1  21
HETATM   21  O1  UNL     1      22.864  -0.909  54.073  1.00  0.00    -0.353 OA
HETATM   22  C1  UNL     1      22.798  -1.377  55.386  1.00  0.00     0.210 C 
ENDBRANCH   1  21
BRANCH  10  23
HETATM   23  O2  UNL     1      23.120   1.159  51.877  1.00  0.00    -0.348 OA
BRANCH  23  24
HETATM   24  C16 UNL     1      23.490   2.288  52.626  1.00  0.00     0.177 C 
BRANCH  24  25
HETATM   25  C17 UNL     1      24.916   2.076  53.133  1.00  0.00     0.057 C 
BRANCH  25  26
HETATM   26  C18 UNL     1      25.580   0.909  52.432  1.00  0.00     0.274 C 
BRANCH  26  27
HETATM   27  N4  UNL     1      25.962  -0.121  53.347  1.00  0.00     0.092 N 
HETATM   28  C19 UNL     1      26.400   0.344  54.619  1.00  0.00     0.298 C 
HETATM   29  C20 UNL     1      27.914   0.365  54.788  1.00  0.00     0.198 C 
HETATM   30  O3  UNL     1      28.464  -0.854  54.430  1.00  0.00    -0.388 OA
HETATM   31  C21 UNL     1      28.244  -1.029  53.064  1.00  0.00     0.198 C 
HETATM   32  C22 UNL     1      26.795  -1.084  52.716  1.00  0.00     0.298 C 
ENDBRANCH  26  27
ENDBRANCH  25  26
ENDBRANCH  24  25
ENDBRANCH  23  24
ENDBRANCH  10  23
TORSDOF 8
ENDMDL
MODEL 5
REMARK VINA RESULT:      -7.8      4.203      7.933
REMARK  8 active torsions:
REMARK  status: ('A' for Active; 'I' for Inactive)
REMARK    1  A    between atoms: O1_2  and  C2_3 
REMARK    2  A    between atoms: C6_7  and  N1_8 
REMARK    3  A    between atoms: N1_8  and  C7_9 
REMARK    4  A    between atoms: C15_21  and  O2_22 
REMARK    5  A    between atoms: O2_22  and  C16_23 
REMARK    6  A    between atoms: C16_23  and  C17_24 
REMARK    7  A    between atoms: C17_24  and  C18_25 
REMARK    8  A    between atoms: C18_25  and  N4_26 
ROOT
HETATM    1  C2  UNL     1      27.014   7.425  48.982  1.00  0.00     0.103 C 
HETATM    2  C3  UNL     1      25.900   7.058  49.604  1.00  0.00     0.079 C 
HETATM    3  C4  UNL     1      25.558   5.678  49.842  1.00  0.00     0.173 A 
HETATM    4  C5  UNL     1      24.631   4.822  50.376  1.00  0.00     0.097 A 
HETATM    5  C6  UNL     1      25.179   3.508  50.112  1.00  0.00     0.344 A 
HETATM    6  N2  UNL     1      26.366   3.380  49.460  1.00  0.00    -0.004 NA
HETATM    7  C13 UNL     1      27.173   4.281  48.991  1.00  0.00     0.249 A 
HETATM    8  N3  UNL     1      26.091   4.520  49.580  1.00  0.00     0.128 N 
HETATM    9  C14 UNL     1      28.076   5.245  48.467  1.00  0.00     0.094 C 
HETATM   10  C15 UNL     1      27.959   6.555  48.274  1.00  0.00     0.105 C 
ENDROOT
BRANCH   5  11
HETATM   11  N1  UNL     1      24.286   2.537  50.641  1.00  0.00    -0.337 N 
HETATM   12  H6  UNL     1      23.384   2.476  50.140  1.00  0.00     0.164 HD
BRANCH  11  13
HETATM   13  C7  UNL     1      24.710   1.774  51.763  1.00  0.00     0.033 A 
HETATM   14  C8  UNL     1      26.001   1.903  52.219  1.00  0.00     0.032 A 
HETATM   15  C9  UNL     1      26.461   1.198  53.306  1.00  0.00     0.046 A 
HETATM   16  C10 UNL     1      25.644   0.333  53.982  1.00  0.00     0.138 A 
HETATM   17  F1  UNL     1      25.938  -0.425  55.059  1.00  0.00    -0.204 F 
HETATM   18  C11 UNL     1      24.351   0.207  53.519  1.00  0.00     0.074 A 
HETATM   19 CL1  UNL     1      23.170  -0.854  54.264  1.00  0.00    -0.081 Cl
HETATM   20  C12 UNL     1      23.851   0.908  52.419  1.00  0.00     0.056 A 
ENDBRANCH  11  13
ENDBRANCH   5  11
BRANCH   1  21
HETATM   21  O1  UNL     1      27.140   8.740  49.106  1.00  0.00    -0.353 OA
HETATM   22  C1  UNL     1      27.911   9.454  50.023  1.00  0.00     0.210 C 
ENDBRANCH   1  21
BRANCH  10  23
HETATM   23  O2  UNL     1      28.819   6.930  47.352  1.00  0.00    -0.348 OA
BRANCH  23  24
HETATM   24  C16 UNL     1      30.066   7.511  47.634  1.00  0.00     0.177 C 
BRANCH  24  25
HETATM   25  C17 UNL     1      31.127   6.782  46.811  1.00  0.00     0.057 C 
BRANCH  25  26
HETATM   26  C18 UNL     1      31.695   5.600  47.569  1.00  0.00     0.274 C 
BRANCH  26  27
HETATM   27  N4  UNL     1      32.724   4.933  46.834  1.00  0.00     0.092 N 
HETATM   28  C19 UNL     1      32.559   3.524  46.721  1.00  0.00     0.298 C 
HETATM   29  C20 UNL     1      33.416   2.717  47.687  1.00  0.00     0.198 C 
HETATM   30  O3  UNL     1      34.739   3.121  47.624  1.00  0.00    -0.388 OA
HETATM   31  C21 UNL     1      34.798   4.435  48.085  1.00  0.00     0.198 C 
HETATM   32  C22 UNL     1      34.012   5.378  47.238  1.00  0.00     0.298 C 
ENDBRANCH  26  27
ENDBRANCH  25  26
ENDBRANCH  24  25
ENDBRANCH  23  24
ENDBRANCH  10  23
TORSDOF 8
ENDMDL
MODEL 6
REMARK VINA RESULT:      -7.7      1.821      2.232
REMARK  8 active torsions:
REMARK  status: ('A' for Active; 'I' for Inactive)
REMARK    1  A    between atoms: O1_2  and  C2_3 
REMARK    2  A    between atoms: C6_7  and  N1_8 
REMARK    3  A    between atoms: N1_8  and  C7_9 
REMARK    4  A    between atoms: C15_21  and  O2_22 
REMARK    5  A    between atoms: O2_22  and  C16_23 
REMARK    6  A    between atoms: C16_23  and  C17_24 
REMARK    7  A    between atoms: C17_24  and  C18_25 
REMARK    8  A    between atoms: C18_25  and  N4_26 
ROOT
HETATM    1  C2  UNL     1      23.822   4.305  50.807  1.00  0.00     0.103 C 
HETATM    2  C3  UNL     1      24.085   5.392  50.092  1.00  0.00     0.079 C 
HETATM    3  C4  UNL     1      25.332   5.583  49.394  1.00  0.00     0.173 A 
HETATM    4  C5  UNL     1      26.059   6.425  48.594  1.00  0.00     0.097 A 
HETATM    5  C6  UNL     1      27.308   5.722  48.394  1.00  0.00     0.344 A 
HETATM    6  N2  UNL     1      27.509   4.504  48.969  1.00  0.00    -0.004 NA
HETATM    7  C13 UNL     1      26.731   3.789  49.722  1.00  0.00     0.249 A 
HETATM    8  N3  UNL     1      26.438   4.912  49.245  1.00  0.00     0.128 N 
HETATM    9  C14 UNL     1      25.903   2.983  50.549  1.00  0.00     0.094 C 
HETATM   10  C15 UNL     1      24.762   3.242  51.179  1.00  0.00     0.105 C 
ENDROOT
BRANCH   5  11
HETATM   11  N1  UNL     1      28.141   6.516  47.560  1.00  0.00    -0.337 N 
HETATM   12  H6  UNL     1      27.735   6.721  46.632  1.00  0.00     0.164 HD
BRANCH  11  13
HETATM   13  C7  UNL     1      29.400   6.934  48.070  1.00  0.00     0.033 A 
HETATM   14  C8  UNL     1      30.477   6.082  47.995  1.00  0.00     0.032 A 
HETATM   15  C9  UNL     1      31.718   6.439  48.464  1.00  0.00     0.046 A 
HETATM   16  C10 UNL     1      31.933   7.667  49.028  1.00  0.00     0.138 A 
HETATM   17  F1  UNL     1      33.082   8.168  49.528  1.00  0.00    -0.204 F 
HETATM   18  C11 UNL     1      30.850   8.517  49.101  1.00  0.00     0.074 A 
HETATM   19 CL1  UNL     1      30.945  10.126  49.791  1.00  0.00    -0.081 Cl
HETATM   20  C12 UNL     1      29.575   8.187  48.635  1.00  0.00     0.056 A 
ENDBRANCH  11  13
ENDBRANCH   5  11
BRANCH   1  21
HETATM   21  O1  UNL     1      22.538   4.334  51.143  1.00  0.00    -0.353 OA
HETATM   22  C1  UNL     1      21.974   4.618  52.386  1.00  0.00     0.210 C 
ENDBRANCH   1  21
BRANCH  10  23
HETATM   23  O2  UNL     1      24.622   2.397  52.177  1.00  0.00    -0.348 OA
BRANCH  23  24
HETATM   24  C16 UNL     1      24.563   1.003  52.022  1.00  0.00     0.177 C 
BRANCH  24  25
HETATM   25  C17 UNL     1      24.761   0.363  53.395  1.00  0.00     0.057 C 
BRANCH  25  26
HETATM   26  C18 UNL     1      26.034   0.857  54.053  1.00  0.00     0.274 C 
BRANCH  26  27
HETATM   27  N4  UNL     1      27.162   0.760  53.180  1.00  0.00     0.092 N 
HETATM   28  C19 UNL     1      27.749  -0.535  53.107  1.00  0.00     0.298 C 
HETATM   29  C20 UNL     1      29.011  -0.696  53.943  1.00  0.00     0.198 C 
HETATM   30  O3  UNL     1      29.907   0.328  53.682  1.00  0.00    -0.388 OA
HETATM   31  C21 UNL     1      29.322   1.516  54.117  1.00  0.00     0.198 C 
HETATM   32  C22 UNL     1      28.063   1.840  53.385  1.00  0.00     0.298 C 
ENDBRANCH  26  27
ENDBRANCH  25  26
ENDBRANCH  24  25
ENDBRANCH  23  24
ENDBRANCH  10  23
TORSDOF 8
ENDMDL
MODEL 7
REMARK VINA RESULT:      -7.6      4.070      7.428
REMARK  8 active torsions:
REMARK  status: ('A' for Active; 'I' for Inactive)
REMARK    1  A    between atoms: O1_2  and  C2_3 
REMARK    2  A    between atoms: C6_7  and  N1_8 
REMARK    3  A    between atoms: N1_8  and  C7_9 
REMARK    4  A    between atoms: C15_21  and  O2_22 
REMARK    5  A    between atoms: O2_22  and  C16_23 
REMARK    6  A    between atoms: C16_23  and  C17_24 
REMARK    7  A    between atoms: C17_24  and  C18_25 
REMARK    8  A    between atoms: C18_25  and  N4_26 
ROOT
HETATM    1  C2  UNL     1      21.080   3.053  52.222  1.00  0.00     0.103 C 
HETATM    2  C3  UNL     1      21.208   1.835  52.733  1.00  0.00     0.079 C 
HETATM    3  C4  UNL     1      22.489   1.198  52.921  1.00  0.00     0.173 A 
HETATM    4  C5  UNL     1      23.134   0.071  53.356  1.00  0.00     0.097 A 
HETATM    5  C6  UNL     1      24.534   0.362  53.127  1.00  0.00     0.344 A 
HETATM    6  N2  UNL     1      24.906   1.554  52.585  1.00  0.00    -0.004 NA
HETATM    7  C13 UNL     1      24.190   2.568  52.205  1.00  0.00     0.249 A 
HETATM    8  N3  UNL     1      23.733   1.507  52.695  1.00  0.00     0.128 N 
HETATM    9  C14 UNL     1      23.434   3.693  51.780  1.00  0.00     0.094 C 
HETATM   10  C15 UNL     1      22.129   3.863  51.593  1.00  0.00     0.105 C 
ENDROOT
BRANCH   5  11
HETATM   11  N1  UNL     1      25.300  -0.755  53.558  1.00  0.00    -0.337 N 
HETATM   12  H6  UNL     1      24.733  -1.574  53.832  1.00  0.00     0.164 HD
BRANCH  11  13
HETATM   13  C7  UNL     1      26.716  -0.636  53.566  1.00  0.00     0.033 A 
HETATM   14  C8  UNL     1      27.483  -1.648  53.038  1.00  0.00     0.032 A 
HETATM   15  C9  UNL     1      28.855  -1.580  53.011  1.00  0.00     0.046 A 
HETATM   16  C10 UNL     1      29.517  -0.493  53.513  1.00  0.00     0.138 A 
HETATM   17  F1  UNL     1      30.848  -0.272  53.558  1.00  0.00    -0.204 F 
HETATM   18  C11 UNL     1      28.743   0.518  54.041  1.00  0.00     0.074 A 
HETATM   19 CL1  UNL     1      29.424   1.983  54.725  1.00  0.00    -0.081 Cl
HETATM   20  C12 UNL     1      27.347   0.483  54.085  1.00  0.00     0.056 A 
ENDBRANCH  11  13
ENDBRANCH   5  11
BRANCH   1  21
HETATM   21  O1  UNL     1      19.818   3.432  52.374  1.00  0.00    -0.353 OA
HETATM   22  C1  UNL     1      18.730   3.178  51.538  1.00  0.00     0.210 C 
ENDBRANCH   1  21
BRANCH  10  23
HETATM   23  O2  UNL     1      21.942   4.864  50.761  1.00  0.00    -0.348 OA
BRANCH  23  24
HETATM   24  C16 UNL     1      21.256   6.043  51.093  1.00  0.00     0.177 C 
BRANCH  24  25
HETATM   25  C17 UNL     1      21.855   7.187  50.277  1.00  0.00     0.057 C 
BRANCH  25  26
HETATM   26  C18 UNL     1      23.295   7.447  50.671  1.00  0.00     0.274 C 
BRANCH  26  27
HETATM   27  N4  UNL     1      24.148   7.582  49.532  1.00  0.00     0.092 N 
HETATM   28  C19 UNL     1      24.645   6.355  49.010  1.00  0.00     0.298 C 
HETATM   29  C20 UNL     1      26.077   6.038  49.421  1.00  0.00     0.198 C 
HETATM   30  O3  UNL     1      26.909   7.117  49.173  1.00  0.00    -0.388 OA
HETATM   31  C21 UNL     1      26.505   8.158  50.007  1.00  0.00     0.198 C 
HETATM   32  C22 UNL     1      25.110   8.609  49.731  1.00  0.00     0.298 C 
ENDBRANCH  26  27
ENDBRANCH  25  26
ENDBRANCH  24  25
ENDBRANCH  23  24
ENDBRANCH  10  23
TORSDOF 8
ENDMDL
MODEL 8
REMARK VINA RESULT:      -7.5      3.432      5.972
REMARK  8 active torsions:
REMARK  status: ('A' for Active; 'I' for Inactive)
REMARK    1  A    between atoms: O1_2  and  C2_3 
REMARK    2  A    between atoms: C6_7  and  N1_8 
REMARK    3  A    between atoms: N1_8  and  C7_9 
REMARK    4  A    between atoms: C15_21  and  O2_22 
REMARK    5  A    between atoms: O2_22  and  C16_23 
REMARK    6  A    between atoms: C16_23  and  C17_24 
REMARK    7  A    between atoms: C17_24  and  C18_25 
REMARK    8  A    between atoms: C18_25  and  N4_26 
ROOT
HETATM    1  C2  UNL     1      26.166   1.211  52.661  1.00  0.00     0.103 C 
HETATM    2  C3  UNL     1      26.847   1.752  51.659  1.00  0.00     0.079 C 
HETATM    3  C4  UNL     1      26.348   2.862  50.885  1.00  0.00     0.173 A 
HETATM    4  C5  UNL     1      26.604   3.720  49.849  1.00  0.00     0.097 A 
HETATM    5  C6  UNL     1      25.424   4.556  49.790  1.00  0.00     0.344 A 
HETATM    6  N2  UNL     1      24.400   4.359  50.665  1.00  0.00    -0.004 NA
HETATM    7  C13 UNL     1      24.266   3.496  51.625  1.00  0.00     0.249 A 
HETATM    8  N3  UNL     1      25.266   3.586  50.872  1.00  0.00     0.128 N 
HETATM    9  C14 UNL     1      24.089   2.565  52.683  1.00  0.00     0.094 C 
HETATM   10  C15 UNL     1      24.770   1.476  53.026  1.00  0.00     0.105 C 
ENDROOT
BRANCH   5  11
HETATM   11  N1  UNL     1      25.595   5.498  48.739  1.00  0.00    -0.337 N 
HETATM   12  H6  UNL     1      25.089   5.258  47.871  1.00  0.00     0.164 HD
BRANCH  11  13
HETATM   13  C7  UNL     1      26.413   6.635  48.982  1.00  0.00     0.033 A 
HETATM   14  C8  UNL     1      26.034   7.549  49.937  1.00  0.00     0.032 A 
HETATM   15  C9  UNL     1      26.792   8.660  50.219  1.00  0.00     0.046 A 
HETATM   16  C10 UNL     1      27.965   8.901  49.555  1.00  0.00     0.138 A 
HETATM   17  F1  UNL     1      28.819   9.934  49.715  1.00  0.00    -0.204 F 
HETATM   18  C11 UNL     1      28.338   7.981  48.598  1.00  0.00     0.074 A 
HETATM   19 CL1  UNL     1      29.809   8.132  47.654  1.00  0.00    -0.081 Cl
HETATM   20  C12 UNL     1      27.593   6.842  48.286  1.00  0.00     0.056 A 
ENDBRANCH  11  13
ENDBRANCH   5  11
BRANCH   1  21
HETATM   21  O1  UNL     1      26.969   0.366  53.296  1.00  0.00    -0.353 OA
HETATM   22  C1  UNL     1      27.534  -0.817  52.819  1.00  0.00     0.210 C 
ENDBRANCH   1  21
BRANCH  10  23
HETATM   23  O2  UNL     1      23.991   0.690  53.736  1.00  0.00    -0.348 OA
BRANCH  23  24
HETATM   24  C16 UNL     1      23.606  -0.601  53.338  1.00  0.00     0.177 C 
BRANCH  24  25
HETATM   25  C17 UNL     1      22.092  -0.719  53.508  1.00  0.00     0.057 C 
BRANCH  25  26
HETATM   26  C18 UNL     1      21.357  -0.022  52.382  1.00  0.00     0.274 C 
BRANCH  26  27
HETATM   27  N4  UNL     1      20.131   0.568  52.823  1.00  0.00     0.092 N 
HETATM   28  C19 UNL     1      18.957  -0.141  52.443  1.00  0.00     0.298 C 
HETATM   29  C20 UNL     1      18.231   0.452  51.244  1.00  0.00     0.198 C 
HETATM   30  O3  UNL     1      18.019   1.809  51.421  1.00  0.00    -0.388 OA
HETATM   31  C21 UNL     1      19.267   2.429  51.443  1.00  0.00     0.198 C 
HETATM   32  C22 UNL     1      20.119   1.968  52.578  1.00  0.00     0.298 C 
ENDBRANCH  26  27
ENDBRANCH  25  26
ENDBRANCH  24  25
ENDBRANCH  23  24
ENDBRANCH  10  23
TORSDOF 8
ENDMDL
MODEL 9
REMARK VINA RESULT:      -7.5      3.669      7.176
REMARK  8 active torsions:
REMARK  status: ('A' for Active; 'I' for Inactive)
REMARK    1  A    between atoms: O1_2  and  C2_3 
REMARK    2  A    between atoms: C6_7  and  N1_8 
REMARK    3  A    between atoms: N1_8  and  C7_9 
REMARK    4  A    between atoms: C15_21  and  O2_22 
REMARK    5  A    between atoms: O2_22  and  C16_23 
REMARK    6  A    between atoms: C16_23  and  C17_24 
REMARK    7  A    between atoms: C17_24  and  C18_25 
REMARK    8  A    between atoms: C18_25  and  N4_26 
ROOT
HETATM    1  C2  UNL     1      22.423   3.995  49.692  1.00  0.00     0.103 C 
HETATM    2  C3  UNL     1      22.846   2.749  49.869  1.00  0.00     0.079 C 
HETATM    3  C4  UNL     1      23.496   2.311  51.080  1.00  0.00     0.173 A 
HETATM    4  C5  UNL     1      24.076   1.253  51.728  1.00  0.00     0.097 A 
HETATM    5  C6  UNL     1      24.490   1.810  52.999  1.00  0.00     0.344 A 
HETATM    6  N2  UNL     1      24.259   3.121  53.280  1.00  0.00    -0.004 NA
HETATM    7  C13 UNL     1      23.688   4.048  52.573  1.00  0.00     0.249 A 
HETATM    8  N3  UNL     1      23.850   2.858  52.206  1.00  0.00     0.128 N 
HETATM    9  C14 UNL     1      23.069   5.083  51.823  1.00  0.00     0.094 C 
HETATM   10  C15 UNL     1      22.699   5.153  50.548  1.00  0.00     0.105 C 
ENDROOT
BRANCH   5  11
HETATM   11  N1  UNL     1      25.104   0.778  53.761  1.00  0.00    -0.337 N 
HETATM   12  H6  UNL     1      24.443   0.230  54.336  1.00  0.00     0.164 HD
BRANCH  11  13
HETATM   13  C7  UNL     1      26.511   0.612  53.656  1.00  0.00     0.033 A 
HETATM   14  C8  UNL     1      27.331   1.713  53.740  1.00  0.00     0.032 A 
HETATM   15  C9  UNL     1      28.698   1.608  53.655  1.00  0.00     0.046 A 
HETATM   16  C10 UNL     1      29.303   0.392  53.482  1.00  0.00     0.138 A 
HETATM   17  F1  UNL     1      30.621   0.121  53.384  1.00  0.00    -0.204 F 
HETATM   18  C11 UNL     1      28.476  -0.708  53.397  1.00  0.00     0.074 A 
HETATM   19 CL1  UNL     1      29.080  -2.340  53.177  1.00  0.00    -0.081 Cl
HETATM   20  C12 UNL     1      27.083  -0.638  53.480  1.00  0.00     0.056 A 
ENDBRANCH  11  13
ENDBRANCH   5  11
BRANCH   1  21
HETATM   21  O1  UNL     1      21.692   4.027  48.585  1.00  0.00    -0.353 OA
HETATM   22  C1  UNL     1      20.623   3.205  48.228  1.00  0.00     0.210 C 
ENDBRANCH   1  21
BRANCH  10  23
HETATM   23  O2  UNL     1      22.626   6.417  50.192  1.00  0.00    -0.348 OA
BRANCH  23  24
HETATM   24  C16 UNL     1      23.501   7.026  49.278  1.00  0.00     0.177 C 
BRANCH  24  25
HETATM   25  C17 UNL     1      24.139   8.233  49.964  1.00  0.00     0.057 C 
BRANCH  25  26
HETATM   26  C18 UNL     1      25.356   8.717  49.202  1.00  0.00     0.274 C 
BRANCH  26  27
HETATM   27  N4  UNL     1      26.575   8.240  49.776  1.00  0.00     0.092 N 
HETATM   28  C19 UNL     1      27.418   9.253  50.312  1.00  0.00     0.298 C 
HETATM   29  C20 UNL     1      28.579   9.642  49.406  1.00  0.00     0.198 C 
HETATM   30  O3  UNL     1      29.271   8.518  48.986  1.00  0.00    -0.388 OA
HETATM   31  C21 UNL     1      28.409   7.771  48.185  1.00  0.00     0.198 C 
HETATM   32  C22 UNL     1      27.206   7.292  48.925  1.00  0.00     0.298 C 
ENDBRANCH  26  27
ENDBRANCH  25  26
ENDBRANCH  24  25
ENDBRANCH  23  24
ENDBRANCH  10  23
TORSDOF 8
ENDMDL
