MODEL 1
REMARK VINA RESULT:     -10.1      0.000      0.000
REMARK  3 active torsions:
REMARK  status: ('A' for Active; 'I' for Inactive)
REMARK    1  A    between atoms: N2_6  and  C5_7 
REMARK    2  A    between atoms: C13_16  and  N4_17 
REMARK    3  A    between atoms: N4_17  and  C14_18 
ROOT
HETATM    1  C1  UNL     1      22.689   4.803  47.681  1.00  0.00     0.007 C 
HETATM    2  C2  UNL     1      23.018   5.751  48.522  1.00  0.00    -0.055 C 
HETATM    3  C3  UNL     1      22.441   6.192  49.895  1.00  0.00     0.097 C 
HETATM    4  C4  UNL     1      23.393   5.211  50.633  1.00  0.00     0.059 C 
HETATM    5  N1  UNL     1      24.565   5.774  50.833  1.00  0.00    -0.181 NA
HETATM    6  N2  UNL     1      25.063   6.423  49.575  1.00  0.00    -0.296 N 
HETATM    7  C10 UNL     1      24.262   6.542  48.284  1.00  0.00     0.179 C 
HETATM    8  C11 UNL     1      23.263   3.817  50.985  1.00  0.00     0.046 C 
HETATM    9  C12 UNL     1      22.566   2.821  50.382  1.00  0.00     0.041 A 
HETATM   10  C13 UNL     1      22.490   1.930  51.406  1.00  0.00     0.142 A 
HETATM   11  N6  UNL     1      21.883   0.806  51.073  1.00  0.00    -0.224 NA
HETATM   12  C23 UNL     1      21.408   0.645  49.800  1.00  0.00     0.236 A 
HETATM   13  N7  UNL     1      21.496   1.561  48.784  1.00  0.00    -0.241 NA
HETATM   14  C24 UNL     1      22.100   2.704  49.076  1.00  0.00     0.072 A 
HETATM   15  C25 UNL     1      22.142   3.490  48.005  1.00  0.00     0.033 C 
ENDROOT
BRANCH  10  16
HETATM   16  N4  UNL     1      22.980   2.252  52.686  1.00  0.00    -0.340 N 
HETATM   17  H17 UNL     1      22.857   2.758  53.558  1.00  0.00     0.167 HD
BRANCH  16  18
HETATM   18  C14 UNL     1      24.205   1.625  53.055  1.00  0.00     0.034 A 
HETATM   19  C15 UNL     1      24.099   0.272  53.404  1.00  0.00     0.032 A 
HETATM   20  C16 UNL     1      25.207  -0.480  53.811  1.00  0.00     0.035 A 
HETATM   21  C17 UNL     1      26.454   0.082  53.883  1.00  0.00     0.066 A 
HETATM   22  N5  UNL     1      27.580  -0.546  54.260  1.00  0.00    -0.260 NA
HETATM   23  C21 UNL     1      26.621   1.408  53.552  1.00  0.00    -0.005 A 
HETATM   24  C18 UNL     1      28.785   0.049  54.316  1.00  0.00     0.117 A 
HETATM   25  C19 UNL     1      28.927   1.385  53.976  1.00  0.00     0.020 A 
HETATM   26  C20 UNL     1      27.805   2.114  53.575  1.00  0.00     0.015 A 
HETATM   27  C22 UNL     1      25.513   2.122  53.156  1.00  0.00     0.043 A 
ENDBRANCH  16  18
ENDBRANCH  10  16
BRANCH   6  28
HETATM   28  C5  UNL     1      26.376   6.979  49.516  1.00  0.00     0.108 C 
HETATM   29  C6  UNL     1      26.411   8.420  50.033  1.00  0.00     0.057 C 
HETATM   30  C7  UNL     1      27.730   9.010  49.600  1.00  0.00     0.271 C 
HETATM   31  N3  UNL     1      28.742   8.025  49.300  1.00  0.00     0.083 N 
HETATM   32  C8  UNL     1      28.375   7.187  48.178  1.00  0.00     0.271 C 
HETATM   33  H9  UNL     1      29.096   7.530  50.123  1.00  0.00     0.315 HD
HETATM   34  C9  UNL     1      26.846   7.095  48.060  1.00  0.00     0.057 C 
ENDBRANCH   6  28
TORSDOF 3
ENDMDL
MODEL 2
REMARK VINA RESULT:      -9.8      2.220      7.621
REMARK  3 active torsions:
REMARK  status: ('A' for Active; 'I' for Inactive)
REMARK    1  A    between atoms: N2_6  and  C5_7 
REMARK    2  A    between atoms: C13_16  and  N4_17 
REMARK    3  A    between atoms: N4_17  and  C14_18 
ROOT
HETATM    1  C1  UNL     1      23.377   4.495  52.652  1.00  0.00     0.007 C 
HETATM    2  C2  UNL     1      23.755   3.343  52.158  1.00  0.00    -0.055 C 
HETATM    3  C3  UNL     1      23.784   2.774  50.712  1.00  0.00     0.097 C 
HETATM    4  C4  UNL     1      25.218   3.332  50.500  1.00  0.00     0.059 C 
HETATM    5  N1  UNL     1      26.113   2.484  50.959  1.00  0.00    -0.181 NA
HETATM    6  N2  UNL     1      25.740   2.012  52.333  1.00  0.00    -0.296 N 
HETATM    7  C10 UNL     1      24.435   2.352  53.043  1.00  0.00     0.179 C 
HETATM    8  C11 UNL     1      25.699   4.614  50.043  1.00  0.00     0.046 C 
HETATM    9  C12 UNL     1      25.142   5.847  50.144  1.00  0.00     0.041 A 
HETATM   10  C13 UNL     1      25.829   6.500  49.169  1.00  0.00     0.142 A 
HETATM   11  N6  UNL     1      25.511   7.778  49.076  1.00  0.00    -0.224 NA
HETATM   12  C23 UNL     1      24.571   8.305  49.919  1.00  0.00     0.236 A 
HETATM   13  N7  UNL     1      23.889   7.624  50.894  1.00  0.00    -0.241 NA
HETATM   14  C24 UNL     1      24.180   6.338  51.022  1.00  0.00     0.072 A 
HETATM   15  C25 UNL     1      23.474   5.803  52.013  1.00  0.00     0.033 C 
ENDROOT
BRANCH  10  16
HETATM   16  N4  UNL     1      26.736   5.815  48.339  1.00  0.00    -0.340 N 
HETATM   17  H17 UNL     1      26.912   5.053  47.691  1.00  0.00     0.167 HD
BRANCH  16  18
HETATM   18  C14 UNL     1      28.052   6.360  48.279  1.00  0.00     0.034 A 
HETATM   19  C15 UNL     1      29.084   5.415  48.203  1.00  0.00     0.032 A 
HETATM   20  C16 UNL     1      30.432   5.787  48.160  1.00  0.00     0.035 A 
HETATM   21  C17 UNL     1      30.801   7.106  48.190  1.00  0.00     0.066 A 
HETATM   22  N5  UNL     1      32.060   7.572  48.153  1.00  0.00    -0.260 NA
HETATM   23  C21 UNL     1      29.832   8.082  48.263  1.00  0.00    -0.005 A 
HETATM   24  C18 UNL     1      32.375   8.879  48.185  1.00  0.00     0.117 A 
HETATM   25  C19 UNL     1      31.381   9.841  48.259  1.00  0.00     0.020 A 
HETATM   26  C20 UNL     1      30.042   9.443  48.302  1.00  0.00     0.015 A 
HETATM   27  C22 UNL     1      28.515   7.684  48.305  1.00  0.00     0.043 A 
ENDBRANCH  16  18
ENDBRANCH  10  16
BRANCH   6  28
HETATM   28  C5  UNL     1      26.633   1.191  53.086  1.00  0.00     0.108 C 
HETATM   29  C6  UNL     1      27.949   1.909  53.393  1.00  0.00     0.057 C 
HETATM   30  C7  UNL     1      28.925   0.858  53.860  1.00  0.00     0.271 C 
HETATM   31  N3  UNL     1      28.296  -0.346  54.353  1.00  0.00     0.083 N 
HETATM   32  C8  UNL     1      27.544  -1.032  53.324  1.00  0.00     0.271 C 
HETATM   33  H9  UNL     1      27.813  -0.225  55.247  1.00  0.00     0.315 HD
HETATM   34  C9  UNL     1      27.060  -0.032  52.263  1.00  0.00     0.057 C 
ENDBRANCH   6  28
TORSDOF 3
ENDMDL
MODEL 3
REMARK VINA RESULT:      -9.8      3.040      8.412
REMARK  3 active torsions:
REMARK  status: ('A' for Active; 'I' for Inactive)
REMARK    1  A    between atoms: N2_6  and  C5_7 
REMARK    2  A    between atoms: C13_16  and  N4_17 
REMARK    3  A    between atoms: N4_17  and  C14_18 
ROOT
HETATM    1  C1  UNL     1      21.866  -1.272  54.109  1.00  0.00     0.007 C 
HETATM    2  C2  UNL     1      20.827  -0.482  54.017  1.00  0.00    -0.055 C 
HETATM    3  C3  UNL     1      20.647   1.051  54.205  1.00  0.00     0.097 C 
HETATM    4  C4  UNL     1      20.960   1.292  52.704  1.00  0.00     0.059 C 
HETATM    5  N1  UNL     1      19.871   1.152  51.980  1.00  0.00    -0.181 NA
HETATM    6  N2  UNL     1      19.145  -0.108  52.351  1.00  0.00    -0.296 N 
HETATM    7  C10 UNL     1      19.534  -1.024  53.504  1.00  0.00     0.179 C 
HETATM    8  C11 UNL     1      22.202   1.489  51.993  1.00  0.00     0.046 C 
HETATM    9  C12 UNL     1      23.451   1.038  52.269  1.00  0.00     0.041 A 
HETATM   10  C13 UNL     1      24.188   1.906  51.526  1.00  0.00     0.142 A 
HETATM   11  N6  UNL     1      25.484   1.659  51.572  1.00  0.00    -0.224 NA
HETATM   12  C23 UNL     1      25.948   0.613  52.322  1.00  0.00     0.236 A 
HETATM   13  N7  UNL     1      25.183  -0.248  53.065  1.00  0.00    -0.241 NA
HETATM   14  C24 UNL     1      23.876  -0.037  53.045  1.00  0.00     0.072 A 
HETATM   15  C25 UNL     1      23.250  -0.950  53.780  1.00  0.00     0.033 C 
ENDROOT
BRANCH  10  16
HETATM   16  N4  UNL     1      23.577   2.974  50.842  1.00  0.00    -0.340 N 
HETATM   17  H17 UNL     1      22.727   3.403  50.488  1.00  0.00     0.167 HD
BRANCH  16  18
HETATM   18  C14 UNL     1      24.453   4.011  50.409  1.00  0.00     0.034 A 
HETATM   19  C15 UNL     1      24.030   5.312  50.711  1.00  0.00     0.032 A 
HETATM   20  C16 UNL     1      24.767   6.441  50.334  1.00  0.00     0.035 A 
HETATM   21  C17 UNL     1      25.946   6.317  49.648  1.00  0.00     0.066 A 
HETATM   22  N5  UNL     1      26.729   7.329  49.239  1.00  0.00    -0.260 NA
HETATM   23  C21 UNL     1      26.414   5.063  49.322  1.00  0.00    -0.005 A 
HETATM   24  C18 UNL     1      27.881   7.158  48.566  1.00  0.00     0.117 A 
HETATM   25  C19 UNL     1      28.331   5.886  48.251  1.00  0.00     0.020 A 
HETATM   26  C20 UNL     1      27.575   4.776  48.638  1.00  0.00     0.015 A 
HETATM   27  C22 UNL     1      25.667   3.973  49.705  1.00  0.00     0.043 A 
ENDBRANCH  16  18
ENDBRANCH  10  16
BRANCH   6  28
HETATM   28  C5  UNL     1      18.008  -0.537  51.604  1.00  0.00     0.108 C 
HETATM   29  C6  UNL     1      17.776   0.330  50.364  1.00  0.00     0.057 C 
HETATM   30  C7  UNL     1      16.386   0.023  49.866  1.00  0.00     0.271 C 
HETATM   31  N3  UNL     1      15.872  -1.251  50.313  1.00  0.00     0.083 N 
HETATM   32  C8  UNL     1      15.724  -1.307  51.752  1.00  0.00     0.271 C 
HETATM   33  H9  UNL     1      16.333  -2.057  49.885  1.00  0.00     0.315 HD
HETATM   34  C9  UNL     1      16.725  -0.357  52.428  1.00  0.00     0.057 C 
ENDBRANCH   6  28
TORSDOF 3
ENDMDL
MODEL 4
REMARK VINA RESULT:      -9.8      3.961      5.246
REMARK  3 active torsions:
REMARK  status: ('A' for Active; 'I' for Inactive)
REMARK    1  A    between atoms: N2_6  and  C5_7 
REMARK    2  A    between atoms: C13_16  and  N4_17 
REMARK    3  A    between atoms: N4_17  and  C14_18 
ROOT
HETATM    1  C1  UNL     1      18.658   0.773  51.494  1.00  0.00     0.007 C 
HETATM    2  C2  UNL     1      19.004   1.979  51.122  1.00  0.00    -0.055 C 
HETATM    3  C3  UNL     1      19.710   3.150  51.861  1.00  0.00     0.097 C 
HETATM    4  C4  UNL     1      21.100   2.618  51.418  1.00  0.00     0.059 C 
HETATM    5  N1  UNL     1      21.400   3.064  50.217  1.00  0.00    -0.181 NA
HETATM    6  N2  UNL     1      20.245   2.876  49.278  1.00  0.00    -0.296 N 
HETATM    7  C10 UNL     1      18.866   2.374  49.689  1.00  0.00     0.179 C 
HETATM    8  C11 UNL     1      22.001   1.656  52.007  1.00  0.00     0.046 C 
HETATM    9  C12 UNL     1      21.744   0.578  52.789  1.00  0.00     0.041 A 
HETATM   10  C13 UNL     1      22.969   0.390  53.347  1.00  0.00     0.142 A 
HETATM   11  N6  UNL     1      23.022  -0.660  54.145  1.00  0.00    -0.224 NA
HETATM   12  C23 UNL     1      21.902  -1.424  54.333  1.00  0.00     0.236 A 
HETATM   13  N7  UNL     1      20.675  -1.213  53.760  1.00  0.00    -0.241 NA
HETATM   14  C24 UNL     1      20.580  -0.169  52.950  1.00  0.00     0.072 A 
HETATM   15  C25 UNL     1      19.354  -0.090  52.442  1.00  0.00     0.033 C 
ENDROOT
BRANCH  10  16
HETATM   16  N4  UNL     1      24.022   1.291  53.103  1.00  0.00    -0.340 N 
HETATM   17  H17 UNL     1      24.320   2.231  52.857  1.00  0.00     0.167 HD
BRANCH  16  18
HETATM   18  C14 UNL     1      25.337   0.761  53.256  1.00  0.00     0.034 A 
HETATM   19  C15 UNL     1      26.281   1.654  53.780  1.00  0.00     0.032 A 
HETATM   20  C16 UNL     1      27.620   1.294  53.971  1.00  0.00     0.035 A 
HETATM   21  C17 UNL     1      28.066   0.039  53.651  1.00  0.00     0.066 A 
HETATM   22  N5  UNL     1      29.324  -0.410  53.793  1.00  0.00    -0.260 NA
HETATM   23  C21 UNL     1      27.184  -0.884  53.132  1.00  0.00    -0.005 A 
HETATM   24  C18 UNL     1      29.716  -1.653  53.464  1.00  0.00     0.117 A 
HETATM   25  C19 UNL     1      28.809  -2.563  52.944  1.00  0.00     0.020 A 
HETATM   26  C20 UNL     1      27.478  -2.178  52.762  1.00  0.00     0.015 A 
HETATM   27  C22 UNL     1      25.875  -0.500  52.955  1.00  0.00     0.043 A 
ENDBRANCH  16  18
ENDBRANCH  10  16
BRANCH   6  28
HETATM   28  C5  UNL     1      20.386   3.162  47.887  1.00  0.00     0.108 C 
HETATM   29  C6  UNL     1      21.811   2.903  47.391  1.00  0.00     0.057 C 
HETATM   30  C7  UNL     1      21.934   3.563  46.040  1.00  0.00     0.271 C 
HETATM   31  N3  UNL     1      20.667   3.793  45.385  1.00  0.00     0.083 N 
HETATM   32  C8  UNL     1      19.828   4.714  46.123  1.00  0.00     0.271 C 
HETATM   33  H9  UNL     1      20.206   2.939  45.061  1.00  0.00     0.315 HD
HETATM   34  C9  UNL     1      20.166   4.658  47.621  1.00  0.00     0.057 C 
ENDBRANCH   6  28
TORSDOF 3
ENDMDL
MODEL 5
REMARK VINA RESULT:      -9.5      3.360      6.864
REMARK  3 active torsions:
REMARK  status: ('A' for Active; 'I' for Inactive)
REMARK    1  A    between atoms: N2_6  and  C5_7 
REMARK    2  A    between atoms: C13_16  and  N4_17 
REMARK    3  A    between atoms: N4_17  and  C14_18 
ROOT
HETATM    1  C1  UNL     1      24.717   3.225  49.489  1.00  0.00     0.007 C 
HETATM    2  C2  UNL     1      25.011   3.469  50.741  1.00  0.00    -0.055 C 
HETATM    3  C3  UNL     1      24.256   4.215  51.876  1.00  0.00     0.097 C 
HETATM    4  C4  UNL     1      23.552   2.898  52.301  1.00  0.00     0.059 C 
HETATM    5  N1  UNL     1      24.317   2.213  53.123  1.00  0.00    -0.181 NA
HETATM    6  N2  UNL     1      25.717   2.120  52.591  1.00  0.00    -0.296 N 
HETATM    7  C10 UNL     1      26.222   2.840  51.347  1.00  0.00     0.179 C 
HETATM    8  C11 UNL     1      22.333   2.265  51.857  1.00  0.00     0.046 C 
HETATM    9  C12 UNL     1      21.710   2.309  50.652  1.00  0.00     0.041 A 
HETATM   10  C13 UNL     1      20.461   1.912  51.014  1.00  0.00     0.142 A 
HETATM   11  N6  UNL     1      19.629   1.816  49.993  1.00  0.00    -0.224 NA
HETATM   12  C23 UNL     1      20.069   2.110  48.732  1.00  0.00     0.236 A 
HETATM   13  N7  UNL     1      21.335   2.511  48.392  1.00  0.00    -0.241 NA
HETATM   14  C24 UNL     1      22.203   2.619  49.388  1.00  0.00     0.072 A 
HETATM   15  C25 UNL     1      23.393   2.988  48.924  1.00  0.00     0.033 C 
ENDROOT
BRANCH  10  16
HETATM   16  N4  UNL     1      20.134   1.692  52.365  1.00  0.00    -0.340 N 
HETATM   17  H17 UNL     1      20.172   2.011  53.329  1.00  0.00     0.167 HD
BRANCH  16  18
HETATM   18  C14 UNL     1      19.381   0.512  52.635  1.00  0.00     0.034 A 
HETATM   19  C15 UNL     1      20.020  -0.425  53.458  1.00  0.00     0.032 A 
HETATM   20  C16 UNL     1      19.423  -1.645  53.799  1.00  0.00     0.035 A 
HETATM   21  C17 UNL     1      18.175  -1.973  53.337  1.00  0.00     0.066 A 
HETATM   22  N5  UNL     1      17.513  -3.111  53.601  1.00  0.00    -0.260 NA
HETATM   23  C21 UNL     1      17.497  -1.092  52.525  1.00  0.00    -0.005 A 
HETATM   24  C18 UNL     1      16.288  -3.391  53.124  1.00  0.00     0.117 A 
HETATM   25  C19 UNL     1      15.626  -2.487  52.309  1.00  0.00     0.020 A 
HETATM   26  C20 UNL     1      16.244  -1.277  51.983  1.00  0.00     0.015 A 
HETATM   27  C22 UNL     1      18.110   0.099  52.206  1.00  0.00     0.043 A 
ENDBRANCH  16  18
ENDBRANCH  10  16
BRANCH   6  28
HETATM   28  C5  UNL     1      26.691   1.310  53.249  1.00  0.00     0.108 C 
HETATM   29  C6  UNL     1      28.006   2.061  53.470  1.00  0.00     0.057 C 
HETATM   30  C7  UNL     1      29.047   1.030  53.830  1.00  0.00     0.271 C 
HETATM   31  N3  UNL     1      28.495  -0.204  54.339  1.00  0.00     0.083 N 
HETATM   32  C8  UNL     1      27.684  -0.889  53.355  1.00  0.00     0.271 C 
HETATM   33  H9  UNL     1      28.082  -0.120  55.271  1.00  0.00     0.315 HD
HETATM   34  C9  UNL     1      27.087   0.120  52.362  1.00  0.00     0.057 C 
ENDBRANCH   6  28
TORSDOF 3
ENDMDL
MODEL 6
REMARK VINA RESULT:      -9.4      3.522      7.503
REMARK  3 active torsions:
REMARK  status: ('A' for Active; 'I' for Inactive)
REMARK    1  A    between atoms: N2_6  and  C5_7 
REMARK    2  A    between atoms: C13_16  and  N4_17 
REMARK    3  A    between atoms: N4_17  and  C14_18 
ROOT
HETATM    1  C1  UNL     1      30.420   8.009  45.569  1.00  0.00     0.007 C 
HETATM    2  C2  UNL     1      31.126   7.844  46.659  1.00  0.00    -0.055 C 
HETATM    3  C3  UNL     1      31.014   8.439  48.090  1.00  0.00     0.097 C 
HETATM    4  C4  UNL     1      30.081   7.276  48.522  1.00  0.00     0.059 C 
HETATM    5  N1  UNL     1      30.790   6.236  48.903  1.00  0.00    -0.181 NA
HETATM    6  N2  UNL     1      31.869   5.936  47.904  1.00  0.00    -0.296 N 
HETATM    7  C10 UNL     1      32.193   6.800  46.691  1.00  0.00     0.179 C 
HETATM    8  C11 UNL     1      28.649   7.102  48.443  1.00  0.00     0.046 C 
HETATM    9  C12 UNL     1      27.752   7.606  47.558  1.00  0.00     0.041 A 
HETATM   10  C13 UNL     1      26.604   7.454  48.270  1.00  0.00     0.142 A 
HETATM   11  N6  UNL     1      25.527   7.832  47.607  1.00  0.00    -0.224 NA
HETATM   12  C23 UNL     1      25.652   8.320  46.335  1.00  0.00     0.236 A 
HETATM   13  N7  UNL     1      26.824   8.465  45.638  1.00  0.00    -0.241 NA
HETATM   14  C24 UNL     1      27.929   8.095  46.267  1.00  0.00     0.072 A 
HETATM   15  C25 UNL     1      28.986   8.261  45.478  1.00  0.00     0.033 C 
ENDROOT
BRANCH  10  16
HETATM   16  N4  UNL     1      26.631   6.986  49.597  1.00  0.00    -0.340 N 
HETATM   17  H17 UNL     1      27.040   7.035  50.526  1.00  0.00     0.167 HD
BRANCH  16  18
HETATM   18  C14 UNL     1      25.668   5.984  49.919  1.00  0.00     0.034 A 
HETATM   19  C15 UNL     1      25.923   4.719  49.374  1.00  0.00     0.032 A 
HETATM   20  C16 UNL     1      25.062   3.634  49.579  1.00  0.00     0.035 A 
HETATM   21  C17 UNL     1      23.923   3.768  50.330  1.00  0.00     0.066 A 
HETATM   22  N5  UNL     1      23.032   2.798  50.588  1.00  0.00    -0.260 NA
HETATM   23  C21 UNL     1      23.620   4.989  50.892  1.00  0.00    -0.005 A 
HETATM   24  C18 UNL     1      21.926   2.977  51.331  1.00  0.00     0.117 A 
HETATM   25  C19 UNL     1      21.644   4.215  51.887  1.00  0.00     0.020 A 
HETATM   26  C20 UNL     1      22.519   5.281  51.666  1.00  0.00     0.015 A 
HETATM   27  C22 UNL     1      24.485   6.036  50.672  1.00  0.00     0.043 A 
ENDBRANCH  16  18
ENDBRANCH  10  16
BRANCH   6  28
HETATM   28  C5  UNL     1      32.679   4.768  48.038  1.00  0.00     0.108 C 
HETATM   29  C6  UNL     1      34.171   5.090  47.924  1.00  0.00     0.057 C 
HETATM   30  C7  UNL     1      34.889   3.779  47.723  1.00  0.00     0.271 C 
HETATM   31  N3  UNL     1      34.140   2.627  48.169  1.00  0.00     0.083 N 
HETATM   32  C8  UNL     1      32.915   2.447  47.417  1.00  0.00     0.271 C 
HETATM   33  H9  UNL     1      34.048   2.560  49.185  1.00  0.00     0.315 HD
HETATM   34  C9  UNL     1      32.418   3.797  46.879  1.00  0.00     0.057 C 
ENDBRANCH   6  28
TORSDOF 3
ENDMDL
MODEL 7
REMARK VINA RESULT:      -9.3      3.352      7.593
REMARK  3 active torsions:
REMARK  status: ('A' for Active; 'I' for Inactive)
REMARK    1  A    between atoms: N2_6  and  C5_7 
REMARK    2  A    between atoms: C13_16  and  N4_17 
REMARK    3  A    between atoms: N4_17  and  C14_18 
ROOT
HETATM    1  C1  UNL     1      25.319   3.636  49.678  1.00  0.00     0.007 C 
HETATM    2  C2  UNL     1      25.393   3.291  50.939  1.00  0.00    -0.055 C 
HETATM    3  C3  UNL     1      24.391   3.399  52.123  1.00  0.00     0.097 C 
HETATM    4  C4  UNL     1      23.803   2.004  51.778  1.00  0.00     0.059 C 
HETATM    5  N1  UNL     1      24.518   1.053  52.340  1.00  0.00    -0.181 NA
HETATM    6  N2  UNL     1      25.982   1.277  52.096  1.00  0.00    -0.296 N 
HETATM    7  C10 UNL     1      26.570   2.509  51.418  1.00  0.00     0.179 C 
HETATM    8  C11 UNL     1      22.751   1.591  50.879  1.00  0.00     0.046 C 
HETATM    9  C12 UNL     1      22.312   2.156  49.726  1.00  0.00     0.041 A 
HETATM   10  C13 UNL     1      21.083   1.581  49.633  1.00  0.00     0.142 A 
HETATM   11  N6  UNL     1      20.429   1.927  48.539  1.00  0.00    -0.224 NA
HETATM   12  C23 UNL     1      21.010   2.787  47.647  1.00  0.00     0.236 A 
HETATM   13  N7  UNL     1      22.252   3.355  47.765  1.00  0.00    -0.241 NA
HETATM   14  C24 UNL     1      22.943   3.032  48.848  1.00  0.00     0.072 A 
HETATM   15  C25 UNL     1      24.132   3.625  48.829  1.00  0.00     0.033 C 
ENDROOT
BRANCH  10  16
HETATM   16  N4  UNL     1      20.590   0.752  50.658  1.00  0.00    -0.340 N 
HETATM   17  H17 UNL     1      20.760   0.004  51.324  1.00  0.00     0.167 HD
BRANCH  16  18
HETATM   18  C14 UNL     1      19.238   0.985  51.044  1.00  0.00     0.034 A 
HETATM   19  C15 UNL     1      18.458  -0.169  51.204  1.00  0.00     0.032 A 
HETATM   20  C16 UNL     1      17.106  -0.109  51.559  1.00  0.00     0.035 A 
HETATM   21  C17 UNL     1      16.484   1.093  51.770  1.00  0.00     0.066 A 
HETATM   22  N5  UNL     1      15.197   1.264  52.112  1.00  0.00    -0.260 NA
HETATM   23  C21 UNL     1      17.199   2.262  51.628  1.00  0.00    -0.005 A 
HETATM   24  C18 UNL     1      14.628   2.467  52.308  1.00  0.00     0.117 A 
HETATM   25  C19 UNL     1      15.369   3.628  52.160  1.00  0.00     0.020 A 
HETATM   26  C20 UNL     1      16.717   3.541  51.803  1.00  0.00     0.015 A 
HETATM   27  C22 UNL     1      18.526   2.172  51.277  1.00  0.00     0.043 A 
ENDBRANCH  16  18
ENDBRANCH  10  16
BRANCH   6  28
HETATM   28  C5  UNL     1      26.942   0.299  52.495  1.00  0.00     0.108 C 
HETATM   29  C6  UNL     1      26.466  -1.125  52.201  1.00  0.00     0.057 C 
HETATM   30  C7  UNL     1      27.368  -2.058  52.969  1.00  0.00     0.271 C 
HETATM   31  N3  UNL     1      28.641  -1.477  53.328  1.00  0.00     0.083 N 
HETATM   32  C8  UNL     1      28.495  -0.351  54.226  1.00  0.00     0.271 C 
HETATM   33  H9  UNL     1      29.269  -1.330  52.534  1.00  0.00     0.315 HD
HETATM   34  C9  UNL     1      27.129   0.321  54.019  1.00  0.00     0.057 C 
ENDBRANCH   6  28
TORSDOF 3
ENDMDL
MODEL 8
REMARK VINA RESULT:      -9.2      5.313      8.522
REMARK  3 active torsions:
REMARK  status: ('A' for Active; 'I' for Inactive)
REMARK    1  A    between atoms: N2_6  and  C5_7 
REMARK    2  A    between atoms: C13_16  and  N4_17 
REMARK    3  A    between atoms: N4_17  and  C14_18 
ROOT
HETATM    1  C1  UNL     1      22.501   0.429  52.450  1.00  0.00     0.007 C 
HETATM    2  C2  UNL     1      22.507   1.207  51.397  1.00  0.00    -0.055 C 
HETATM    3  C3  UNL     1      21.791   1.125  50.020  1.00  0.00     0.097 C 
HETATM    4  C4  UNL     1      20.572   1.904  50.585  1.00  0.00     0.059 C 
HETATM    5  N1  UNL     1      20.781   3.200  50.511  1.00  0.00    -0.181 NA
HETATM    6  N2  UNL     1      22.142   3.549  51.039  1.00  0.00    -0.296 N 
HETATM    7  C10 UNL     1      23.193   2.531  51.466  1.00  0.00     0.179 C 
HETATM    8  C11 UNL     1      19.379   1.468  51.272  1.00  0.00     0.046 C 
HETATM    9  C12 UNL     1      19.171   0.393  52.072  1.00  0.00     0.041 A 
HETATM   10  C13 UNL     1      17.815   0.311  52.014  1.00  0.00     0.142 A 
HETATM   11  N6  UNL     1      17.319  -0.654  52.767  1.00  0.00    -0.224 NA
HETATM   12  C23 UNL     1      18.164  -1.445  53.497  1.00  0.00     0.236 A 
HETATM   13  N7  UNL     1      19.531  -1.343  53.537  1.00  0.00    -0.241 NA
HETATM   14  C24 UNL     1      20.069  -0.385  52.796  1.00  0.00     0.072 A 
HETATM   15  C25 UNL     1      21.390  -0.377  52.944  1.00  0.00     0.033 C 
ENDROOT
BRANCH  10  16
HETATM   16  N4  UNL     1      17.073   1.162  51.174  1.00  0.00    -0.340 N 
HETATM   17  H17 UNL     1      16.873   1.495  50.235  1.00  0.00     0.167 HD
BRANCH  16  18
HETATM   18  C14 UNL     1      16.102   1.979  51.825  1.00  0.00     0.034 A 
HETATM   19  C15 UNL     1      16.430   3.339  51.911  1.00  0.00     0.032 A 
HETATM   20  C16 UNL     1      15.593   4.268  52.539  1.00  0.00     0.035 A 
HETATM   21  C17 UNL     1      14.404   3.881  53.099  1.00  0.00     0.066 A 
HETATM   22  N5  UNL     1      13.529   4.686  53.723  1.00  0.00    -0.260 NA
HETATM   23  C21 UNL     1      14.026   2.557  53.045  1.00  0.00    -0.005 A 
HETATM   24  C18 UNL     1      12.372   4.260  54.260  1.00  0.00     0.117 A 
HETATM   25  C19 UNL     1      12.014   2.923  54.191  1.00  0.00     0.020 A 
HETATM   26  C20 UNL     1      12.869   2.015  53.560  1.00  0.00     0.015 A 
HETATM   27  C22 UNL     1      14.871   1.667  52.422  1.00  0.00     0.043 A 
ENDBRANCH  16  18
ENDBRANCH  10  16
BRANCH   6  28
HETATM   28  C5  UNL     1      22.538   4.912  51.183  1.00  0.00     0.108 C 
HETATM   29  C6  UNL     1      21.393   5.877  50.863  1.00  0.00     0.057 C 
HETATM   30  C7  UNL     1      22.005   7.246  50.700  1.00  0.00     0.271 C 
HETATM   31  N3  UNL     1      23.294   7.390  51.335  1.00  0.00     0.083 N 
HETATM   32  C8  UNL     1      24.292   6.516  50.755  1.00  0.00     0.271 C 
HETATM   33  H9  UNL     1      23.254   7.398  52.358  1.00  0.00     0.315 HD
HETATM   34  C9  UNL     1      23.623   5.269  50.157  1.00  0.00     0.057 C 
ENDBRANCH   6  28
TORSDOF 3
ENDMDL
MODEL 9
REMARK VINA RESULT:      -8.9      3.212      4.495
REMARK  3 active torsions:
REMARK  status: ('A' for Active; 'I' for Inactive)
REMARK    1  A    between atoms: N2_6  and  C5_7 
REMARK    2  A    between atoms: C13_16  and  N4_17 
REMARK    3  A    between atoms: N4_17  and  C14_18 
ROOT
HETATM    1  C1  UNL     1      19.617   4.004  51.306  1.00  0.00     0.007 C 
HETATM    2  C2  UNL     1      20.366   4.823  50.611  1.00  0.00    -0.055 C 
HETATM    3  C3  UNL     1      21.763   5.453  50.871  1.00  0.00     0.097 C 
HETATM    4  C4  UNL     1      22.458   4.243  50.188  1.00  0.00     0.059 C 
HETATM    5  N1  UNL     1      22.510   4.419  48.886  1.00  0.00    -0.181 NA
HETATM    6  N2  UNL     1      21.175   4.852  48.355  1.00  0.00    -0.296 N 
HETATM    7  C10 UNL     1      19.964   5.184  49.220  1.00  0.00     0.179 C 
HETATM    8  C11 UNL     1      22.899   2.966  50.698  1.00  0.00     0.046 C 
HETATM    9  C12 UNL     1      22.424   2.221  51.728  1.00  0.00     0.041 A 
HETATM   10  C13 UNL     1      23.499   1.422  51.959  1.00  0.00     0.142 A 
HETATM   11  N6  UNL     1      23.291   0.534  52.914  1.00  0.00    -0.224 NA
HETATM   12  C23 UNL     1      22.082   0.499  53.554  1.00  0.00     0.236 A 
HETATM   13  N7  UNL     1      21.012   1.319  53.303  1.00  0.00    -0.241 NA
HETATM   14  C24 UNL     1      21.179   2.224  52.350  1.00  0.00     0.072 A 
HETATM   15  C25 UNL     1      20.067   2.933  52.189  1.00  0.00     0.033 C 
ENDROOT
BRANCH  10  16
HETATM   16  N4  UNL     1      24.704   1.606  51.256  1.00  0.00    -0.340 N 
HETATM   17  H17 UNL     1      25.179   1.940  50.423  1.00  0.00     0.167 HD
BRANCH  16  18
HETATM   18  C14 UNL     1      25.885   1.181  51.932  1.00  0.00     0.034 A 
HETATM   19  C15 UNL     1      26.609   2.200  52.565  1.00  0.00     0.032 A 
HETATM   20  C16 UNL     1      27.802   1.950  53.252  1.00  0.00     0.035 A 
HETATM   21  C17 UNL     1      28.316   0.682  53.336  1.00  0.00     0.066 A 
HETATM   22  N5  UNL     1      29.448   0.332  53.967  1.00  0.00    -0.260 NA
HETATM   23  C21 UNL     1      27.648  -0.362  52.734  1.00  0.00    -0.005 A 
HETATM   24  C18 UNL     1      29.914  -0.928  54.023  1.00  0.00     0.117 A 
HETATM   25  C19 UNL     1      29.223  -1.962  53.410  1.00  0.00     0.020 A 
HETATM   26  C20 UNL     1      28.035  -1.685  52.729  1.00  0.00     0.015 A 
HETATM   27  C22 UNL     1      26.478  -0.084  52.065  1.00  0.00     0.043 A 
ENDBRANCH  16  18
ENDBRANCH  10  16
BRANCH   6  28
HETATM   28  C5  UNL     1      20.956   4.972  46.950  1.00  0.00     0.108 C 
HETATM   29  C6  UNL     1      22.117   5.681  46.249  1.00  0.00     0.057 C 
HETATM   30  C7  UNL     1      21.632   6.065  44.873  1.00  0.00     0.271 C 
HETATM   31  N3  UNL     1      20.502   5.291  44.415  1.00  0.00     0.083 N 
HETATM   32  C8  UNL     1      19.330   5.491  45.242  1.00  0.00     0.271 C 
HETATM   33  H9  UNL     1      20.727   4.318  44.195  1.00  0.00     0.315 HD
HETATM   34  C9  UNL     1      19.746   5.875  46.670  1.00  0.00     0.057 C 
ENDBRANCH   6  28
TORSDOF 3
ENDMDL
