MODEL 1
REMARK VINA RESULT:      -9.3      0.000      0.000
REMARK  5 active torsions:
REMARK  status: ('A' for Active; 'I' for Inactive)
REMARK    1  A    between atoms: O1_2  and  C2_3 
REMARK    2  A    between atoms: C5_6  and  O2_7 
REMARK    3  A    between atoms: O2_7  and  C6_8 
REMARK    4  A    between atoms: N2_19  and  C15_20 
REMARK    5  A    between atoms: C16_22  and  O3_23 
ROOT
HETATM    1  C6  UNL     1      25.145   1.316  52.881  1.00  0.00     0.261 C 
HETATM    2  C7  UNL     1      24.464   1.846  51.607  1.00  0.00     0.118 C 
HETATM    3  C8  UNL     1      25.544   2.731  51.092  1.00  0.00     0.069 C 
HETATM    4  C9  UNL     1      25.382   3.856  50.213  1.00  0.00    -0.010 A 
HETATM    5  C10 UNL     1      26.457   4.602  49.802  1.00  0.00     0.015 A 
HETATM    6  C11 UNL     1      26.299   5.683  48.958  1.00  0.00     0.020 A 
HETATM    7  C12 UNL     1      25.047   6.039  48.503  1.00  0.00     0.011 A 
HETATM    8 BR1  UNL     1      24.759   7.519  47.337  1.00  0.00    -0.051 Br
HETATM    9  C13 UNL     1      23.961   5.293  48.912  1.00  0.00     0.020 A 
HETATM   10  C14 UNL     1      24.140   4.217  49.757  1.00  0.00     0.015 A 
HETATM   11  N1  UNL     1      26.697   2.336  51.561  1.00  0.00    -0.172 NA
HETATM   12  N2  UNL     1      26.503   1.221  52.381  1.00  0.00    -0.215 N 
ENDROOT
BRANCH   1  13
HETATM   13  O2  UNL     1      24.613   0.110  53.293  1.00  0.00    -0.324 OA
BRANCH  13  14
HETATM   14  C5  UNL     1      23.254  -0.119  53.227  1.00  0.00     0.071 A 
HETATM   15  C4  UNL     1      22.262   0.224  52.345  1.00  0.00     0.039 A 
HETATM   16  C3  UNL     1      20.966  -0.168  52.568  1.00  0.00     0.039 A 
HETATM   17  C2  UNL     1      20.590  -0.910  53.658  1.00  0.00     0.068 A 
HETATM   18  C19 UNL     1      21.559  -1.268  54.559  1.00  0.00     0.039 A 
HETATM   19  C18 UNL     1      22.887  -0.877  54.350  1.00  0.00     0.039 A 
BRANCH  17  20
HETATM   20  O1  UNL     1      19.270  -1.285  53.843  1.00  0.00    -0.356 OA
HETATM   21  C1  UNL     1      18.227  -0.954  52.980  1.00  0.00     0.210 C 
ENDBRANCH  17  20
ENDBRANCH  13  14
ENDBRANCH   1  13
BRANCH  12  22
HETATM   22  C15 UNL     1      27.374   0.144  52.733  1.00  0.00     0.194 A 
HETATM   23  N3  UNL     1      27.348  -1.181  52.588  1.00  0.00    -0.198 NA
HETATM   24  C16 UNL     1      28.407  -1.799  53.084  1.00  0.00     0.171 A 
HETATM   25  C17 UNL     1      29.540  -1.207  53.740  1.00  0.00     0.111 A 
HETATM   26  S1  UNL     1      28.928   0.562  53.592  1.00  0.00    -0.058 SA
BRANCH  24  27
HETATM   27  O3  UNL     1      28.252  -3.186  52.865  1.00  0.00    -0.344 OA
HETATM   28  H13 UNL     1      28.278  -3.578  51.927  1.00  0.00     0.219 HD
ENDBRANCH  24  27
ENDBRANCH  12  22
TORSDOF 5
ENDMDL
MODEL 2
REMARK VINA RESULT:      -9.0      3.460      6.945
REMARK  5 active torsions:
REMARK  status: ('A' for Active; 'I' for Inactive)
REMARK    1  A    between atoms: O1_2  and  C2_3 
REMARK    2  A    between atoms: C5_6  and  O2_7 
REMARK    3  A    between atoms: O2_7  and  C6_8 
REMARK    4  A    between atoms: N2_19  and  C15_20 
REMARK    5  A    between atoms: C16_22  and  O3_23 
ROOT
HETATM    1  C6  UNL     1      25.502   1.404  51.562  1.00  0.00     0.261 C 
HETATM    2  C7  UNL     1      24.068   1.782  51.972  1.00  0.00     0.118 C 
HETATM    3  C8  UNL     1      23.678   0.544  52.700  1.00  0.00     0.069 C 
HETATM    4  C9  UNL     1      22.342   0.064  52.920  1.00  0.00    -0.010 A 
HETATM    5  C10 UNL     1      22.103  -1.097  53.610  1.00  0.00     0.015 A 
HETATM    6  C11 UNL     1      20.818  -1.555  53.820  1.00  0.00     0.020 A 
HETATM    7  C12 UNL     1      19.736  -0.850  53.337  1.00  0.00     0.011 A 
HETATM    8 BR1  UNL     1      17.937  -1.426  53.591  1.00  0.00    -0.051 Br
HETATM    9  C13 UNL     1      19.968   0.319  52.642  1.00  0.00     0.020 A 
HETATM   10  C14 UNL     1      21.260   0.759  52.442  1.00  0.00     0.015 A 
HETATM   11  N1  UNL     1      24.750  -0.070  53.128  1.00  0.00    -0.172 NA
HETATM   12  N2  UNL     1      25.880   0.657  52.746  1.00  0.00    -0.215 N 
ENDROOT
BRANCH   1  13
HETATM   13  O2  UNL     1      26.286   2.516  51.325  1.00  0.00    -0.324 OA
BRANCH  13  14
HETATM   14  C5  UNL     1      25.786   3.594  50.624  1.00  0.00     0.071 A 
HETATM   15  C4  UNL     1      24.601   4.284  50.637  1.00  0.00     0.039 A 
HETATM   16  C3  UNL     1      24.405   5.345  49.788  1.00  0.00     0.039 A 
HETATM   17  C2  UNL     1      25.356   5.771  48.897  1.00  0.00     0.068 A 
HETATM   18  C19 UNL     1      26.550   5.099  48.859  1.00  0.00     0.039 A 
HETATM   19  C18 UNL     1      26.770   4.015  49.716  1.00  0.00     0.039 A 
BRANCH  17  20
HETATM   20  O1  UNL     1      25.114   6.846  48.059  1.00  0.00    -0.356 OA
HETATM   21  C1  UNL     1      26.107   7.648  47.497  1.00  0.00     0.210 C 
ENDBRANCH  17  20
ENDBRANCH  13  14
ENDBRANCH   1  13
BRANCH  12  22
HETATM   22  C15 UNL     1      27.188   0.737  53.315  1.00  0.00     0.194 A 
HETATM   23  N3  UNL     1      27.893   1.681  53.940  1.00  0.00    -0.198 NA
HETATM   24  C16 UNL     1      29.104   1.297  54.306  1.00  0.00     0.171 A 
HETATM   25  C17 UNL     1      29.714   0.011  54.106  1.00  0.00     0.111 A 
HETATM   26  S1  UNL     1      28.239  -0.751  53.227  1.00  0.00    -0.058 SA
BRANCH  24  27
HETATM   27  O3  UNL     1      29.737   2.383  54.950  1.00  0.00    -0.344 OA
HETATM   28  H13 UNL     1      29.733   3.314  54.541  1.00  0.00     0.219 HD
ENDBRANCH  24  27
ENDBRANCH  12  22
TORSDOF 5
ENDMDL
MODEL 3
REMARK VINA RESULT:      -8.9      3.010      5.779
REMARK  5 active torsions:
REMARK  status: ('A' for Active; 'I' for Inactive)
REMARK    1  A    between atoms: O1_2  and  C2_3 
REMARK    2  A    between atoms: C5_6  and  O2_7 
REMARK    3  A    between atoms: O2_7  and  C6_8 
REMARK    4  A    between atoms: N2_19  and  C15_20 
REMARK    5  A    between atoms: C16_22  and  O3_23 
ROOT
HETATM    1  C6  UNL     1      23.819   1.595  51.649  1.00  0.00     0.261 C 
HETATM    2  C7  UNL     1      23.582   2.996  51.058  1.00  0.00     0.118 C 
HETATM    3  C8  UNL     1      22.656   2.649  49.945  1.00  0.00     0.069 C 
HETATM    4  C9  UNL     1      22.434   3.409  48.747  1.00  0.00    -0.010 A 
HETATM    5  C10 UNL     1      21.551   2.987  47.786  1.00  0.00     0.015 A 
HETATM    6  C11 UNL     1      21.341   3.720  46.635  1.00  0.00     0.020 A 
HETATM    7  C12 UNL     1      22.017   4.902  46.423  1.00  0.00     0.011 A 
HETATM    8 BR1  UNL     1      21.774   5.961  44.858  1.00  0.00    -0.051 Br
HETATM    9  C13 UNL     1      22.908   5.333  47.386  1.00  0.00     0.020 A 
HETATM   10  C14 UNL     1      23.105   4.586  48.529  1.00  0.00     0.015 A 
HETATM   11  N1  UNL     1      22.051   1.522  50.213  1.00  0.00    -0.172 NA
HETATM   12  N2  UNL     1      22.492   1.045  51.451  1.00  0.00    -0.215 N 
ENDROOT
BRANCH   1  13
HETATM   13  O2  UNL     1      24.214   1.647  52.971  1.00  0.00    -0.324 OA
BRANCH  13  14
HETATM   14  C5  UNL     1      25.368   1.015  53.387  1.00  0.00     0.071 A 
HETATM   15  C4  UNL     1      26.126   1.051  54.528  1.00  0.00     0.039 A 
HETATM   16  C3  UNL     1      27.255   0.279  54.638  1.00  0.00     0.039 A 
HETATM   17  C2  UNL     1      27.686  -0.556  53.639  1.00  0.00     0.068 A 
HETATM   18  C19 UNL     1      26.950  -0.612  52.484  1.00  0.00     0.039 A 
HETATM   19  C18 UNL     1      25.795   0.168  52.353  1.00  0.00     0.039 A 
BRANCH  17  20
HETATM   20  O1  UNL     1      28.832  -1.317  53.792  1.00  0.00    -0.356 OA
HETATM   21  C1  UNL     1      30.126  -0.856  53.551  1.00  0.00     0.210 C 
ENDBRANCH  17  20
ENDBRANCH  13  14
ENDBRANCH   1  13
BRANCH  12  22
HETATM   22  C15 UNL     1      21.866   0.193  52.412  1.00  0.00     0.194 A 
HETATM   23  N3  UNL     1      22.294  -0.646  53.355  1.00  0.00    -0.198 NA
HETATM   24  C16 UNL     1      21.325  -1.241  54.029  1.00  0.00     0.171 A 
HETATM   25  C17 UNL     1      19.909  -1.080  53.853  1.00  0.00     0.111 A 
HETATM   26  S1  UNL     1      20.043   0.164  52.453  1.00  0.00    -0.058 SA
BRANCH  24  27
HETATM   27  O3  UNL     1      21.914  -2.094  54.989  1.00  0.00    -0.344 OA
HETATM   28  H13 UNL     1      21.581  -2.116  55.950  1.00  0.00     0.219 HD
ENDBRANCH  24  27
ENDBRANCH  12  22
TORSDOF 5
ENDMDL
MODEL 4
REMARK VINA RESULT:      -8.7      4.197      7.682
REMARK  5 active torsions:
REMARK  status: ('A' for Active; 'I' for Inactive)
REMARK    1  A    between atoms: O1_2  and  C2_3 
REMARK    2  A    between atoms: C5_6  and  O2_7 
REMARK    3  A    between atoms: O2_7  and  C6_8 
REMARK    4  A    between atoms: N2_19  and  C15_20 
REMARK    5  A    between atoms: C16_22  and  O3_23 
ROOT
HETATM    1  C6  UNL     1      22.398   1.816  51.980  1.00  0.00     0.261 C 
HETATM    2  C7  UNL     1      21.373   0.941  51.236  1.00  0.00     0.118 C 
HETATM    3  C8  UNL     1      20.152   1.773  51.417  1.00  0.00     0.069 C 
HETATM    4  C9  UNL     1      18.791   1.317  51.377  1.00  0.00    -0.010 A 
HETATM    5  C10 UNL     1      17.741   2.181  51.558  1.00  0.00     0.015 A 
HETATM    6  C11 UNL     1      16.434   1.738  51.518  1.00  0.00     0.020 A 
HETATM    7  C12 UNL     1      16.151   0.408  51.293  1.00  0.00     0.011 A 
HETATM    8 BR1  UNL     1      14.370  -0.268  51.226  1.00  0.00    -0.051 Br
HETATM    9  C13 UNL     1      17.202  -0.467  51.110  1.00  0.00     0.020 A 
HETATM   10  C14 UNL     1      18.501  -0.005  51.154  1.00  0.00     0.015 A 
HETATM   11  N1  UNL     1      20.495   3.017  51.626  1.00  0.00    -0.172 NA
HETATM   12  N2  UNL     1      21.889   3.121  51.605  1.00  0.00    -0.215 N 
ENDROOT
BRANCH   1  13
HETATM   13  O2  UNL     1      23.691   1.575  51.558  1.00  0.00    -0.324 OA
BRANCH  13  14
HETATM   14  C5  UNL     1      24.572   0.871  52.353  1.00  0.00     0.071 A 
HETATM   15  C4  UNL     1      24.439   0.049  53.443  1.00  0.00     0.039 A 
HETATM   16  C3  UNL     1      25.544  -0.517  54.027  1.00  0.00     0.039 A 
HETATM   17  C2  UNL     1      26.819  -0.301  53.571  1.00  0.00     0.068 A 
HETATM   18  C19 UNL     1      26.985   0.517  52.484  1.00  0.00     0.039 A 
HETATM   19  C18 UNL     1      25.870   1.104  51.874  1.00  0.00     0.039 A 
BRANCH  17  20
HETATM   20  O1  UNL     1      27.906  -0.893  54.191  1.00  0.00    -0.356 OA
HETATM   21  C1  UNL     1      29.221  -0.440  54.083  1.00  0.00     0.210 C 
ENDBRANCH  17  20
ENDBRANCH  13  14
ENDBRANCH   1  13
BRANCH  12  22
HETATM   22  C15 UNL     1      22.750   4.218  51.295  1.00  0.00     0.194 A 
HETATM   23  N3  UNL     1      23.312   5.206  51.992  1.00  0.00    -0.198 NA
HETATM   24  C16 UNL     1      24.060   6.020  51.267  1.00  0.00     0.171 A 
HETATM   25  C17 UNL     1      24.317   5.950  49.856  1.00  0.00     0.111 A 
HETATM   26  S1  UNL     1      23.274   4.416  49.560  1.00  0.00    -0.058 SA
BRANCH  24  27
HETATM   27  O3  UNL     1      24.590   7.012  52.122  1.00  0.00    -0.344 OA
HETATM   28  H13 UNL     1      24.894   7.913  51.760  1.00  0.00     0.219 HD
ENDBRANCH  24  27
ENDBRANCH  12  22
TORSDOF 5
ENDMDL
MODEL 5
REMARK VINA RESULT:      -8.5      3.244      5.980
REMARK  5 active torsions:
REMARK  status: ('A' for Active; 'I' for Inactive)
REMARK    1  A    between atoms: O1_2  and  C2_3 
REMARK    2  A    between atoms: C5_6  and  O2_7 
REMARK    3  A    between atoms: O2_7  and  C6_8 
REMARK    4  A    between atoms: N2_19  and  C15_20 
REMARK    5  A    between atoms: C16_22  and  O3_23 
ROOT
HETATM    1  C6  UNL     1      23.488   2.433  52.328  1.00  0.00     0.261 C 
HETATM    2  C7  UNL     1      23.519   3.967  52.455  1.00  0.00     0.118 C 
HETATM    3  C8  UNL     1      22.437   4.321  51.497  1.00  0.00     0.069 C 
HETATM    4  C9  UNL     1      22.280   5.572  50.808  1.00  0.00    -0.010 A 
HETATM    5  C10 UNL     1      21.237   5.786  49.943  1.00  0.00     0.015 A 
HETATM    6  C11 UNL     1      21.089   6.989  49.282  1.00  0.00     0.020 A 
HETATM    7  C12 UNL     1      21.992   8.012  49.478  1.00  0.00     0.011 A 
HETATM    8 BR1  UNL     1      21.847   9.696  48.599  1.00  0.00    -0.051 Br
HETATM    9  C13 UNL     1      23.044   7.804  50.347  1.00  0.00     0.020 A 
HETATM   10  C14 UNL     1      23.175   6.594  50.997  1.00  0.00     0.015 A 
HETATM   11  N1  UNL     1      21.622   3.309  51.360  1.00  0.00    -0.172 NA
HETATM   12  N2  UNL     1      22.059   2.254  52.165  1.00  0.00    -0.215 N 
ENDROOT
BRANCH   1  13
HETATM   13  O2  UNL     1      24.009   1.808  53.444  1.00  0.00    -0.324 OA
BRANCH  13  14
HETATM   14  C5  UNL     1      25.285   1.283  53.427  1.00  0.00     0.071 A 
HETATM   15  C4  UNL     1      26.530   1.771  53.732  1.00  0.00     0.039 A 
HETATM   16  C3  UNL     1      27.639   0.974  53.606  1.00  0.00     0.039 A 
HETATM   17  C2  UNL     1      27.576  -0.328  53.179  1.00  0.00     0.068 A 
HETATM   18  C19 UNL     1      26.346  -0.844  52.865  1.00  0.00     0.039 A 
HETATM   19  C18 UNL     1      25.202  -0.047  52.986  1.00  0.00     0.039 A 
BRANCH  17  20
HETATM   20  O1  UNL     1      28.722  -1.097  53.067  1.00  0.00    -0.356 OA
HETATM   21  C1  UNL     1      29.973  -0.727  53.559  1.00  0.00     0.210 C 
ENDBRANCH  17  20
ENDBRANCH  13  14
ENDBRANCH   1  13
BRANCH  12  22
HETATM   22  C15 UNL     1      21.351   1.167  52.763  1.00  0.00     0.194 A 
HETATM   23  N3  UNL     1      21.615   0.277  53.721  1.00  0.00    -0.198 NA
HETATM   24  C16 UNL     1      20.631  -0.575  53.952  1.00  0.00     0.171 A 
HETATM   25  C17 UNL     1      19.353  -0.636  53.299  1.00  0.00     0.111 A 
HETATM   26  S1  UNL     1      19.669   0.816  52.151  1.00  0.00    -0.058 SA
BRANCH  24  27
HETATM   27  O3  UNL     1      21.039  -1.453  54.981  1.00  0.00    -0.344 OA
HETATM   28  H13 UNL     1      21.900  -1.989  54.906  1.00  0.00     0.219 HD
ENDBRANCH  24  27
ENDBRANCH  12  22
TORSDOF 5
ENDMDL
MODEL 6
REMARK VINA RESULT:      -8.4      2.802      5.854
REMARK  5 active torsions:
REMARK  status: ('A' for Active; 'I' for Inactive)
REMARK    1  A    between atoms: O1_2  and  C2_3 
REMARK    2  A    between atoms: C5_6  and  O2_7 
REMARK    3  A    between atoms: O2_7  and  C6_8 
REMARK    4  A    between atoms: N2_19  and  C15_20 
REMARK    5  A    between atoms: C16_22  and  O3_23 
ROOT
HETATM    1  C6  UNL     1      23.892   1.438  51.485  1.00  0.00     0.261 C 
HETATM    2  C7  UNL     1      24.495   2.853  51.545  1.00  0.00     0.118 C 
HETATM    3  C8  UNL     1      23.764   3.488  50.415  1.00  0.00     0.069 C 
HETATM    4  C9  UNL     1      24.190   4.629  49.653  1.00  0.00    -0.010 A 
HETATM    5  C10 UNL     1      23.429   5.129  48.628  1.00  0.00     0.015 A 
HETATM    6  C11 UNL     1      23.840   6.226  47.898  1.00  0.00     0.020 A 
HETATM    7  C12 UNL     1      25.035   6.850  48.186  1.00  0.00     0.011 A 
HETATM    8 BR1  UNL     1      25.663   8.367  47.218  1.00  0.00    -0.051 Br
HETATM    9  C13 UNL     1      25.807   6.353  49.216  1.00  0.00     0.020 A 
HETATM   10  C14 UNL     1      25.378   5.255  49.933  1.00  0.00     0.015 A 
HETATM   11  N1  UNL     1      22.646   2.847  50.199  1.00  0.00    -0.172 NA
HETATM   12  N2  UNL     1      22.537   1.792  51.109  1.00  0.00    -0.215 N 
ENDROOT
BRANCH   1  13
HETATM   13  O2  UNL     1      23.986   0.780  52.695  1.00  0.00    -0.324 OA
BRANCH  13  14
HETATM   14  C5  UNL     1      25.218   0.500  53.252  1.00  0.00     0.071 A 
HETATM   15  C4  UNL     1      25.914   0.973  54.334  1.00  0.00     0.039 A 
HETATM   16  C3  UNL     1      27.157   0.475  54.632  1.00  0.00     0.039 A 
HETATM   17  C2  UNL     1      27.767  -0.501  53.887  1.00  0.00     0.068 A 
HETATM   18  C19 UNL     1      27.096  -0.993  52.798  1.00  0.00     0.039 A 
HETATM   19  C18 UNL     1      25.827  -0.499  52.476  1.00  0.00     0.039 A 
BRANCH  17  20
HETATM   20  O1  UNL     1      29.023  -0.975  54.225  1.00  0.00    -0.356 OA
HETATM   21  C1  UNL     1      30.195  -0.666  53.536  1.00  0.00     0.210 C 
ENDBRANCH  17  20
ENDBRANCH  13  14
ENDBRANCH   1  13
BRANCH  12  22
HETATM   22  C15 UNL     1      21.395   1.116  51.639  1.00  0.00     0.194 A 
HETATM   23  N3  UNL     1      21.095   0.531  52.799  1.00  0.00    -0.198 NA
HETATM   24  C16 UNL     1      19.877   0.018  52.846  1.00  0.00     0.171 A 
HETATM   25  C17 UNL     1      18.882   0.027  51.809  1.00  0.00     0.111 A 
HETATM   26  S1  UNL     1      19.935   0.954  50.560  1.00  0.00    -0.058 SA
BRANCH  24  27
HETATM   27  O3  UNL     1      19.692  -0.565  54.119  1.00  0.00    -0.344 OA
HETATM   28  H13 UNL     1      20.198  -1.403  54.395  1.00  0.00     0.219 HD
ENDBRANCH  24  27
ENDBRANCH  12  22
TORSDOF 5
ENDMDL
MODEL 7
REMARK VINA RESULT:      -8.3      4.409      6.793
REMARK  5 active torsions:
REMARK  status: ('A' for Active; 'I' for Inactive)
REMARK    1  A    between atoms: O1_2  and  C2_3 
REMARK    2  A    between atoms: C5_6  and  O2_7 
REMARK    3  A    between atoms: O2_7  and  C6_8 
REMARK    4  A    between atoms: N2_19  and  C15_20 
REMARK    5  A    between atoms: C16_22  and  O3_23 
ROOT
HETATM    1  C6  UNL     1      21.320   0.814  51.913  1.00  0.00     0.261 C 
HETATM    2  C7  UNL     1      22.361   0.728  53.043  1.00  0.00     0.118 C 
HETATM    3  C8  UNL     1      23.595   1.053  52.276  1.00  0.00     0.069 C 
HETATM    4  C9  UNL     1      24.940   0.690  52.624  1.00  0.00    -0.010 A 
HETATM    5  C10 UNL     1      26.004   1.048  51.836  1.00  0.00     0.015 A 
HETATM    6  C11 UNL     1      27.296   0.697  52.173  1.00  0.00     0.020 A 
HETATM    7  C12 UNL     1      27.549  -0.026  53.319  1.00  0.00     0.011 A 
HETATM    8 BR1  UNL     1      29.307  -0.544  53.842  1.00  0.00    -0.051 Br
HETATM    9  C13 UNL     1      26.484  -0.390  54.117  1.00  0.00     0.020 A 
HETATM   10  C14 UNL     1      25.200  -0.031  53.762  1.00  0.00     0.015 A 
HETATM   11  N1  UNL     1      23.280   1.737  51.207  1.00  0.00    -0.172 NA
HETATM   12  N2  UNL     1      21.895   1.917  51.167  1.00  0.00    -0.215 N 
ENDROOT
BRANCH   1  13
HETATM   13  O2  UNL     1      20.049   1.062  52.393  1.00  0.00    -0.324 OA
BRANCH  13  14
HETATM   14  C5  UNL     1      19.171   0.025  52.632  1.00  0.00     0.071 A 
HETATM   15  C4  UNL     1      19.141  -1.028  53.510  1.00  0.00     0.039 A 
HETATM   16  C3  UNL     1      18.095  -1.916  53.496  1.00  0.00     0.039 A 
HETATM   17  C2  UNL     1      17.040  -1.810  52.626  1.00  0.00     0.068 A 
HETATM   18  C19 UNL     1      17.042  -0.768  51.735  1.00  0.00     0.039 A 
HETATM   19  C18 UNL     1      18.100   0.149  51.733  1.00  0.00     0.039 A 
BRANCH  17  20
HETATM   20  O1  UNL     1      16.005  -2.729  52.647  1.00  0.00    -0.356 OA
HETATM   21  C1  UNL     1      16.114  -4.029  53.138  1.00  0.00     0.210 C 
ENDBRANCH  17  20
ENDBRANCH  13  14
ENDBRANCH   1  13
BRANCH  12  22
HETATM   22  C15 UNL     1      21.091   2.929  50.558  1.00  0.00     0.194 A 
HETATM   23  N3  UNL     1      20.183   2.958  49.581  1.00  0.00    -0.198 NA
HETATM   24  C16 UNL     1      19.681   4.158  49.347  1.00  0.00     0.171 A 
HETATM   25  C17 UNL     1      20.003   5.389  50.013  1.00  0.00     0.111 A 
HETATM   26  S1  UNL     1      21.263   4.633  51.184  1.00  0.00    -0.058 SA
BRANCH  24  27
HETATM   27  O3  UNL     1      18.740   4.046  48.299  1.00  0.00    -0.344 OA
HETATM   28  H13 UNL     1      17.832   3.614  48.450  1.00  0.00     0.219 HD
ENDBRANCH  24  27
ENDBRANCH  12  22
TORSDOF 5
ENDMDL
MODEL 8
REMARK VINA RESULT:      -8.2      7.122     10.810
REMARK  5 active torsions:
REMARK  status: ('A' for Active; 'I' for Inactive)
REMARK    1  A    between atoms: O1_2  and  C2_3 
REMARK    2  A    between atoms: C5_6  and  O2_7 
REMARK    3  A    between atoms: O2_7  and  C6_8 
REMARK    4  A    between atoms: N2_19  and  C15_20 
REMARK    5  A    between atoms: C16_22  and  O3_23 
ROOT
HETATM    1  C6  UNL     1      30.269   6.909  46.913  1.00  0.00     0.261 C 
HETATM    2  C7  UNL     1      29.002   7.226  47.728  1.00  0.00     0.118 C 
HETATM    3  C8  UNL     1      28.675   5.862  48.228  1.00  0.00     0.069 C 
HETATM    4  C9  UNL     1      27.384   5.390  48.645  1.00  0.00    -0.010 A 
HETATM    5  C10 UNL     1      27.202   4.106  49.090  1.00  0.00     0.015 A 
HETATM    6  C11 UNL     1      25.960   3.655  49.491  1.00  0.00     0.020 A 
HETATM    7  C12 UNL     1      24.866   4.492  49.453  1.00  0.00     0.011 A 
HETATM    8 BR1  UNL     1      23.125   3.934  49.991  1.00  0.00    -0.051 Br
HETATM    9  C13 UNL     1      25.041   5.786  49.006  1.00  0.00     0.020 A 
HETATM   10  C14 UNL     1      26.290   6.217  48.610  1.00  0.00     0.015 A 
HETATM   11  N1  UNL     1      29.755   5.127  48.236  1.00  0.00    -0.172 NA
HETATM   12  N2  UNL     1      30.833   5.886  47.771  1.00  0.00    -0.215 N 
ENDROOT
BRANCH   1  13
HETATM   13  O2  UNL     1      31.076   8.018  46.754  1.00  0.00    -0.324 OA
BRANCH  13  14
HETATM   14  C5  UNL     1      30.774   9.207  47.385  1.00  0.00     0.071 A 
HETATM   15  C4  UNL     1      30.954   9.696  48.654  1.00  0.00     0.039 A 
HETATM   16  C3  UNL     1      30.527  10.958  48.979  1.00  0.00     0.039 A 
HETATM   17  C2  UNL     1      29.910  11.790  48.081  1.00  0.00     0.068 A 
HETATM   18  C19 UNL     1      29.715  11.329  46.805  1.00  0.00     0.039 A 
HETATM   19  C18 UNL     1      30.142  10.044  46.453  1.00  0.00     0.039 A 
BRANCH  17  20
HETATM   20  O1  UNL     1      29.496  13.058  48.453  1.00  0.00    -0.356 OA
HETATM   21  C1  UNL     1      28.185  13.394  48.790  1.00  0.00     0.210 C 
ENDBRANCH  17  20
ENDBRANCH  13  14
ENDBRANCH   1  13
BRANCH  12  22
HETATM   22  C15 UNL     1      32.237   5.780  48.015  1.00  0.00     0.194 A 
HETATM   23  N3  UNL     1      33.190   6.613  48.434  1.00  0.00    -0.198 NA
HETATM   24  C16 UNL     1      34.390   6.064  48.514  1.00  0.00     0.171 A 
HETATM   25  C17 UNL     1      34.756   4.709  48.206  1.00  0.00     0.111 A 
HETATM   26  S1  UNL     1      33.026   4.164  47.717  1.00  0.00    -0.058 SA
BRANCH  24  27
HETATM   27  O3  UNL     1      35.298   7.047  48.966  1.00  0.00    -0.344 OA
HETATM   28  H13 UNL     1      36.236   7.116  48.581  1.00  0.00     0.219 HD
ENDBRANCH  24  27
ENDBRANCH  12  22
TORSDOF 5
ENDMDL
MODEL 9
REMARK VINA RESULT:      -8.1      4.504      8.223
REMARK  5 active torsions:
REMARK  status: ('A' for Active; 'I' for Inactive)
REMARK    1  A    between atoms: O1_2  and  C2_3 
REMARK    2  A    between atoms: C5_6  and  O2_7 
REMARK    3  A    between atoms: O2_7  and  C6_8 
REMARK    4  A    between atoms: N2_19  and  C15_20 
REMARK    5  A    between atoms: C16_22  and  O3_23 
ROOT
HETATM    1  C6  UNL     1      23.146   3.903  52.623  1.00  0.00     0.261 C 
HETATM    2  C7  UNL     1      24.509   3.427  52.088  1.00  0.00     0.118 C 
HETATM    3  C8  UNL     1      24.438   1.988  52.461  1.00  0.00     0.069 C 
HETATM    4  C9  UNL     1      25.549   1.101  52.667  1.00  0.00    -0.010 A 
HETATM    5  C10 UNL     1      25.361  -0.213  53.009  1.00  0.00     0.015 A 
HETATM    6  C11 UNL     1      26.431  -1.063  53.207  1.00  0.00     0.020 A 
HETATM    7  C12 UNL     1      27.724  -0.607  53.064  1.00  0.00     0.011 A 
HETATM    8 BR1  UNL     1      29.245  -1.725  53.322  1.00  0.00    -0.051 Br
HETATM    9  C13 UNL     1      27.921   0.715  52.720  1.00  0.00     0.020 A 
HETATM   10  C14 UNL     1      26.838   1.548  52.527  1.00  0.00     0.015 A 
HETATM   11  N1  UNL     1      23.188   1.626  52.579  1.00  0.00    -0.172 NA
HETATM   12  N2  UNL     1      22.363   2.723  52.313  1.00  0.00    -0.215 N 
ENDROOT
BRANCH   1  13
HETATM   13  O2  UNL     1      22.710   5.049  51.988  1.00  0.00    -0.324 OA
BRANCH  13  14
HETATM   14  C5  UNL     1      23.279   5.457  50.799  1.00  0.00     0.071 A 
HETATM   15  C4  UNL     1      23.184   5.043  49.495  1.00  0.00     0.039 A 
HETATM   16  C3  UNL     1      23.901   5.674  48.511  1.00  0.00     0.039 A 
HETATM   17  C2  UNL     1      24.737   6.732  48.761  1.00  0.00     0.068 A 
HETATM   18  C19 UNL     1      24.854   7.169  50.055  1.00  0.00     0.039 A 
HETATM   19  C18 UNL     1      24.131   6.538  51.074  1.00  0.00     0.039 A 
BRANCH  17  20
HETATM   20  O1  UNL     1      25.442   7.340  47.736  1.00  0.00    -0.356 OA
HETATM   21  C1  UNL     1      26.809   7.609  47.770  1.00  0.00     0.210 C 
ENDBRANCH  17  20
ENDBRANCH  13  14
ENDBRANCH   1  13
BRANCH  12  22
HETATM   22  C15 UNL     1      21.019   2.800  51.835  1.00  0.00     0.194 A 
HETATM   23  N3  UNL     1      19.880   3.321  52.292  1.00  0.00    -0.198 NA
HETATM   24  C16 UNL     1      18.847   3.149  51.486  1.00  0.00     0.171 A 
HETATM   25  C17 UNL     1      18.828   2.481  50.214  1.00  0.00     0.111 A 
HETATM   26  S1  UNL     1      20.653   2.036  50.221  1.00  0.00    -0.058 SA
BRANCH  24  27
HETATM   27  O3  UNL     1      17.714   3.745  52.085  1.00  0.00    -0.344 OA
HETATM   28  H13 UNL     1      16.830   3.248  52.152  1.00  0.00     0.219 HD
ENDBRANCH  24  27
ENDBRANCH  12  22
TORSDOF 5
ENDMDL
