MODEL 1
REMARK VINA RESULT:      -7.9      0.000      0.000
REMARK  10 active torsions:
REMARK  status: ('A' for Active; 'I' for Inactive)
REMARK    1  A    between atoms: N1_2  and  C3_4 
REMARK    2  A    between atoms: C3_4  and  C4_5 
REMARK    3  A    between atoms: C4_5  and  C5_6 
REMARK    4  A    between atoms: C5_6  and  C6_7 
REMARK    5  A    between atoms: C6_7  and  C7_9 
REMARK    6  A    between atoms: C13_16  and  N3_17 
REMARK    7  A    between atoms: N3_17  and  C14_18 
REMARK    8  A    between atoms: C14_18  and  C15_19 
REMARK    9  A    between atoms: C16_20  and  C17_22 
REMARK   10  A    between atoms: C21_26  and  N4_27 
ROOT
HETATM    1  C7  UNL     1      24.305  -0.743  53.452  1.00  0.00     0.128 C 
HETATM    2  C8  UNL     1      24.570   0.442  52.535  1.00  0.00     0.003 C 
HETATM    3  C9  UNL     1      25.840   0.715  52.348  1.00  0.00    -0.011 C 
HETATM    4  C10 UNL     1      27.064  -0.269  52.320  1.00  0.00     0.082 C 
HETATM    5  C11 UNL     1      27.245   0.260  53.811  1.00  0.00    -0.034 C 
HETATM    6  C12 UNL     1      27.992   1.396  53.844  1.00  0.00     0.126 C 
HETATM    7  N2  UNL     1      27.504   2.529  52.970  1.00  0.00    -0.243 NA
HETATM    8  C13 UNL     1      26.368   2.123  52.353  1.00  0.00     0.129 C 
HETATM    9  C20 UNL     1      26.496  -0.370  54.933  1.00  0.00     0.034 C 
HETATM   10  C21 UNL     1      25.195  -0.784  54.667  1.00  0.00     0.018 C 
ENDROOT
BRANCH   8  11
HETATM   11  N3  UNL     1      25.437   2.996  51.748  1.00  0.00    -0.371 N 
HETATM   12  H18 UNL     1      24.747   3.582  52.247  1.00  0.00     0.161 HD
BRANCH  11  13
HETATM   13  C14 UNL     1      25.518   3.029  50.303  1.00  0.00     0.150 C 
BRANCH  13  14
HETATM   14  C15 UNL     1      26.701   3.669  49.744  1.00  0.00     0.012 C 
HETATM   15  C16 UNL     1      26.589   4.859  49.122  1.00  0.00     0.015 C 
HETATM   16 BR1  UNL     1      24.852   5.689  48.999  1.00  0.00    -0.051 Br
BRANCH  15  17
HETATM   17  C17 UNL     1      27.663   5.651  48.484  1.00  0.00    -0.041 A 
HETATM   18  C18 UNL     1      28.271   6.695  47.853  1.00  0.00    -0.013 A 
HETATM   19  C19 UNL     1      29.109   5.526  48.166  1.00  0.00     0.067 A 
ENDBRANCH  15  17
ENDBRANCH  13  14
ENDBRANCH  11  13
ENDBRANCH   8  11
BRANCH   1  20
HETATM   20  C6  UNL     1      22.950  -0.490  54.014  1.00  0.00     0.140 C 
HETATM   21  O1  UNL     1      22.352  -1.207  54.825  1.00  0.00    -0.297 OA
BRANCH  20  22
HETATM   22  C5  UNL     1      22.250   0.716  53.573  1.00  0.00     0.081 C 
BRANCH  22  23
HETATM   23  C4  UNL     1      20.758   0.664  53.840  1.00  0.00     0.038 C 
BRANCH  23  24
HETATM   24  C3  UNL     1      19.990   1.107  52.635  1.00  0.00     0.271 C 
BRANCH  24  25
HETATM   25  N1  UNL     1      19.314  -0.038  52.071  1.00  0.00     0.080 N 
HETATM   26  C1  UNL     1      18.572  -0.806  53.054  1.00  0.00     0.309 C 
HETATM   27  C2  UNL     1      18.482   0.297  50.950  1.00  0.00     0.309 C 
ENDBRANCH  24  25
ENDBRANCH  23  24
ENDBRANCH  22  23
ENDBRANCH  20  22
ENDBRANCH   1  20
BRANCH  10  28
HETATM   28  N4  UNL     1      24.855  -1.287  55.977  1.00  0.00    -0.401 N 
HETATM   29  H26 UNL     1      23.799  -1.209  56.009  1.00  0.00     0.156 HD
HETATM   30  H27 UNL     1      25.571  -1.623  56.649  1.00  0.00     0.156 HD
ENDBRANCH  10  28
TORSDOF 10
ENDMDL
MODEL 2
REMARK VINA RESULT:      -7.6      3.041      7.369
REMARK  10 active torsions:
REMARK  status: ('A' for Active; 'I' for Inactive)
REMARK    1  A    between atoms: N1_2  and  C3_4 
REMARK    2  A    between atoms: C3_4  and  C4_5 
REMARK    3  A    between atoms: C4_5  and  C5_6 
REMARK    4  A    between atoms: C5_6  and  C6_7 
REMARK    5  A    between atoms: C6_7  and  C7_9 
REMARK    6  A    between atoms: C13_16  and  N3_17 
REMARK    7  A    between atoms: N3_17  and  C14_18 
REMARK    8  A    between atoms: C14_18  and  C15_19 
REMARK    9  A    between atoms: C16_20  and  C17_22 
REMARK   10  A    between atoms: C21_26  and  N4_27 
ROOT
HETATM    1  C7  UNL     1      24.593   3.693  51.039  1.00  0.00     0.128 C 
HETATM    2  C8  UNL     1      23.784   2.815  50.095  1.00  0.00     0.003 C 
HETATM    3  C9  UNL     1      23.008   3.474  49.267  1.00  0.00    -0.011 C 
HETATM    4  C10 UNL     1      23.233   4.888  48.623  1.00  0.00     0.082 C 
HETATM    5  C11 UNL     1      22.245   5.336  49.788  1.00  0.00    -0.034 C 
HETATM    6  C12 UNL     1      20.945   5.222  49.403  1.00  0.00     0.126 C 
HETATM    7  N2  UNL     1      20.527   3.861  48.891  1.00  0.00    -0.243 NA
HETATM    8  C13 UNL     1      21.601   3.038  48.967  1.00  0.00     0.129 C 
HETATM    9  C20 UNL     1      22.767   5.640  51.148  1.00  0.00     0.034 C 
HETATM   10  C21 UNL     1      23.817   4.851  51.610  1.00  0.00     0.018 C 
ENDROOT
BRANCH   8  11
HETATM   11  N3  UNL     1      21.525   1.629  48.922  1.00  0.00    -0.371 N 
HETATM   12  H18 UNL     1      22.075   1.014  48.299  1.00  0.00     0.161 HD
BRANCH  11  13
HETATM   13  C14 UNL     1      20.580   1.062  49.861  1.00  0.00     0.150 C 
BRANCH  13  14
HETATM   14  C15 UNL     1      21.144   0.212  50.900  1.00  0.00     0.012 C 
HETATM   15  C16 UNL     1      21.283   0.687  52.154  1.00  0.00     0.015 C 
HETATM   16 BR1  UNL     1      20.718   2.491  52.537  1.00  0.00    -0.051 Br
BRANCH  15  17
HETATM   17  C17 UNL     1      21.842  -0.014  53.330  1.00  0.00    -0.041 A 
HETATM   18  C18 UNL     1      22.769  -0.589  54.148  1.00  0.00    -0.013 A 
HETATM   19  C19 UNL     1      21.371  -0.605  54.610  1.00  0.00     0.067 A 
ENDBRANCH  15  17
ENDBRANCH  13  14
ENDBRANCH  11  13
ENDBRANCH   8  11
BRANCH   1  20
HETATM   20  C6  UNL     1      24.861   2.830  52.222  1.00  0.00     0.140 C 
HETATM   21  O1  UNL     1      24.108   2.663  53.189  1.00  0.00    -0.297 OA
BRANCH  20  22
HETATM   22  C5  UNL     1      26.134   2.109  52.256  1.00  0.00     0.081 C 
BRANCH  22  23
HETATM   23  C4  UNL     1      25.963   0.605  52.145  1.00  0.00     0.038 C 
BRANCH  23  24
HETATM   24  C3  UNL     1      27.112  -0.105  52.790  1.00  0.00     0.271 C 
BRANCH  24  25
HETATM   25  N1  UNL     1      27.285   0.415  54.126  1.00  0.00     0.080 N 
HETATM   26  C1  UNL     1      26.317  -0.107  55.073  1.00  0.00     0.309 C 
HETATM   27  C2  UNL     1      28.622   0.256  54.622  1.00  0.00     0.309 C 
ENDBRANCH  24  25
ENDBRANCH  23  24
ENDBRANCH  22  23
ENDBRANCH  20  22
ENDBRANCH   1  20
BRANCH  10  28
HETATM   28  N4  UNL     1      23.980   5.450  52.913  1.00  0.00    -0.401 N 
HETATM   29  H26 UNL     1      23.590   6.427  52.791  1.00  0.00     0.156 HD
HETATM   30  H27 UNL     1      24.399   4.940  53.714  1.00  0.00     0.156 HD
ENDBRANCH  10  28
TORSDOF 10
ENDMDL
MODEL 3
REMARK VINA RESULT:      -7.4      2.033      5.229
REMARK  10 active torsions:
REMARK  status: ('A' for Active; 'I' for Inactive)
REMARK    1  A    between atoms: N1_2  and  C3_4 
REMARK    2  A    between atoms: C3_4  and  C4_5 
REMARK    3  A    between atoms: C4_5  and  C5_6 
REMARK    4  A    between atoms: C5_6  and  C6_7 
REMARK    5  A    between atoms: C6_7  and  C7_9 
REMARK    6  A    between atoms: C13_16  and  N3_17 
REMARK    7  A    between atoms: N3_17  and  C14_18 
REMARK    8  A    between atoms: C14_18  and  C15_19 
REMARK    9  A    between atoms: C16_20  and  C17_22 
REMARK   10  A    between atoms: C21_26  and  N4_27 
ROOT
HETATM    1  C7  UNL     1      24.026   0.733  53.458  1.00  0.00     0.128 C 
HETATM    2  C8  UNL     1      24.662   1.750  52.522  1.00  0.00     0.003 C 
HETATM    3  C9  UNL     1      23.806   2.458  51.822  1.00  0.00    -0.011 C 
HETATM    4  C10 UNL     1      22.360   2.924  52.218  1.00  0.00     0.082 C 
HETATM    5  C11 UNL     1      21.947   1.675  51.321  1.00  0.00    -0.034 C 
HETATM    6  C12 UNL     1      21.842   2.023  50.010  1.00  0.00     0.126 C 
HETATM    7  N2  UNL     1      23.059   2.689  49.407  1.00  0.00    -0.243 NA
HETATM    8  C13 UNL     1      24.016   2.758  50.364  1.00  0.00     0.129 C 
HETATM    9  C20 UNL     1      21.893   0.309  51.907  1.00  0.00     0.034 C 
HETATM   10  C21 UNL     1      22.863  -0.010  52.852  1.00  0.00     0.018 C 
ENDROOT
BRANCH   8  11
HETATM   11  N3  UNL     1      25.385   2.980  50.102  1.00  0.00    -0.371 N 
HETATM   12  H18 UNL     1      26.157   2.330  50.327  1.00  0.00     0.161 HD
BRANCH  11  13
HETATM   13  C14 UNL     1      25.660   4.245  49.452  1.00  0.00     0.150 C 
BRANCH  13  14
HETATM   14  C15 UNL     1      27.042   4.472  49.054  1.00  0.00     0.012 C 
HETATM   15  C16 UNL     1      27.407   5.666  48.546  1.00  0.00     0.015 C 
HETATM   16 BR1  UNL     1      26.076   7.051  48.369  1.00  0.00    -0.051 Br
BRANCH  15  17
HETATM   17  C17 UNL     1      28.747   6.078  48.078  1.00  0.00    -0.041 A 
HETATM   18  C18 UNL     1      29.697   6.778  47.395  1.00  0.00    -0.013 A 
HETATM   19  C19 UNL     1      30.170   5.701  48.280  1.00  0.00     0.067 A 
ENDBRANCH  15  17
ENDBRANCH  13  14
ENDBRANCH  11  13
ENDBRANCH   8  11
BRANCH   1  20
HETATM   20  C6  UNL     1      25.064  -0.319  53.634  1.00  0.00     0.140 C 
HETATM   21  O1  UNL     1      25.310  -0.933  54.680  1.00  0.00    -0.297 OA
BRANCH  20  22
HETATM   22  C5  UNL     1      25.877  -0.668  52.469  1.00  0.00     0.081 C 
BRANCH  22  23
HETATM   23  C4  UNL     1      27.329  -0.933  52.820  1.00  0.00     0.038 C 
BRANCH  23  24
HETATM   24  C3  UNL     1      28.135   0.322  52.713  1.00  0.00     0.271 C 
BRANCH  24  25
HETATM   25  N1  UNL     1      29.147   0.312  53.743  1.00  0.00     0.080 N 
HETATM   26  C1  UNL     1      28.598   0.267  55.085  1.00  0.00     0.309 C 
HETATM   27  C2  UNL     1      30.127  -0.722  53.557  1.00  0.00     0.309 C 
ENDBRANCH  24  25
ENDBRANCH  23  24
ENDBRANCH  22  23
ENDBRANCH  20  22
ENDBRANCH   1  20
BRANCH  10  28
HETATM   28  N4  UNL     1      22.467  -1.372  53.120  1.00  0.00    -0.401 N 
HETATM   29  H26 UNL     1      21.515  -1.271  53.572  1.00  0.00     0.156 HD
HETATM   30  H27 UNL     1      23.064  -2.185  52.878  1.00  0.00     0.156 HD
ENDBRANCH  10  28
TORSDOF 10
ENDMDL
MODEL 4
REMARK VINA RESULT:      -7.3      2.731      7.338
REMARK  10 active torsions:
REMARK  status: ('A' for Active; 'I' for Inactive)
REMARK    1  A    between atoms: N1_2  and  C3_4 
REMARK    2  A    between atoms: C3_4  and  C4_5 
REMARK    3  A    between atoms: C4_5  and  C5_6 
REMARK    4  A    between atoms: C5_6  and  C6_7 
REMARK    5  A    between atoms: C6_7  and  C7_9 
REMARK    6  A    between atoms: C13_16  and  N3_17 
REMARK    7  A    between atoms: N3_17  and  C14_18 
REMARK    8  A    between atoms: C14_18  and  C15_19 
REMARK    9  A    between atoms: C16_20  and  C17_22 
REMARK   10  A    between atoms: C21_26  and  N4_27 
ROOT
HETATM    1  C7  UNL     1      24.754   1.833  51.576  1.00  0.00     0.128 C 
HETATM    2  C8  UNL     1      23.361   2.442  51.571  1.00  0.00     0.003 C 
HETATM    3  C9  UNL     1      23.097   3.193  50.528  1.00  0.00    -0.011 C 
HETATM    4  C10 UNL     1      23.625   3.053  49.056  1.00  0.00     0.082 C 
HETATM    5  C11 UNL     1      24.622   4.199  49.536  1.00  0.00    -0.034 C 
HETATM    6  C12 UNL     1      24.076   5.432  49.362  1.00  0.00     0.126 C 
HETATM    7  N2  UNL     1      22.722   5.649  50.002  1.00  0.00    -0.243 NA
HETATM    8  C13 UNL     1      22.377   4.508  50.647  1.00  0.00     0.129 C 
HETATM    9  C20 UNL     1      25.884   3.855  50.246  1.00  0.00     0.034 C 
HETATM   10  C21 UNL     1      25.837   2.782  51.130  1.00  0.00     0.018 C 
ENDROOT
BRANCH   8  11
HETATM   11  N3  UNL     1      21.377   4.430  51.641  1.00  0.00    -0.371 N 
HETATM   12  H18 UNL     1      21.479   4.730  52.625  1.00  0.00     0.161 HD
BRANCH  11  13
HETATM   13  C14 UNL     1      20.123   3.881  51.169  1.00  0.00     0.150 C 
BRANCH  13  14
HETATM   14  C15 UNL     1      19.559   2.800  51.964  1.00  0.00     0.012 C 
HETATM   15  C16 UNL     1      19.492   1.555  51.452  1.00  0.00     0.015 C 
HETATM   16 BR1  UNL     1      20.160   1.240  49.670  1.00  0.00    -0.051 Br
BRANCH  15  17
HETATM   17  C17 UNL     1      18.945   0.341  52.096  1.00  0.00    -0.041 A 
HETATM   18  C18 UNL     1      18.883  -0.748  52.914  1.00  0.00    -0.013 A 
HETATM   19  C19 UNL     1      17.717  -0.494  52.052  1.00  0.00     0.067 A 
ENDBRANCH  15  17
ENDBRANCH  13  14
ENDBRANCH  11  13
ENDBRANCH   8  11
BRANCH   1  20
HETATM   20  C6  UNL     1      25.060   1.599  53.014  1.00  0.00     0.140 C 
HETATM   21  O1  UNL     1      25.473   2.442  53.819  1.00  0.00    -0.297 OA
BRANCH  20  22
HETATM   22  C5  UNL     1      24.860   0.247  53.535  1.00  0.00     0.081 C 
BRANCH  22  23
HETATM   23  C4  UNL     1      26.129  -0.363  54.100  1.00  0.00     0.038 C 
BRANCH  23  24
HETATM   24  C3  UNL     1      27.105  -0.659  53.005  1.00  0.00     0.271 C 
BRANCH  24  25
HETATM   25  N1  UNL     1      28.427  -0.288  53.452  1.00  0.00     0.080 N 
HETATM   26  C1  UNL     1      28.433   0.356  54.752  1.00  0.00     0.309 C 
HETATM   27  C2  UNL     1      29.358  -1.380  53.418  1.00  0.00     0.309 C 
ENDBRANCH  24  25
ENDBRANCH  23  24
ENDBRANCH  22  23
ENDBRANCH  20  22
ENDBRANCH   1  20
BRANCH  10  28
HETATM   28  N4  UNL     1      27.205   2.818  51.589  1.00  0.00    -0.401 N 
HETATM   29  H26 UNL     1      27.718   2.205  50.894  1.00  0.00     0.156 HD
HETATM   30  H27 UNL     1      27.500   3.358  52.424  1.00  0.00     0.156 HD
ENDBRANCH  10  28
TORSDOF 10
ENDMDL
MODEL 5
REMARK VINA RESULT:      -7.3      5.097     10.181
REMARK  10 active torsions:
REMARK  status: ('A' for Active; 'I' for Inactive)
REMARK    1  A    between atoms: N1_2  and  C3_4 
REMARK    2  A    between atoms: C3_4  and  C4_5 
REMARK    3  A    between atoms: C4_5  and  C5_6 
REMARK    4  A    between atoms: C5_6  and  C6_7 
REMARK    5  A    between atoms: C6_7  and  C7_9 
REMARK    6  A    between atoms: C13_16  and  N3_17 
REMARK    7  A    between atoms: N3_17  and  C14_18 
REMARK    8  A    between atoms: C14_18  and  C15_19 
REMARK    9  A    between atoms: C16_20  and  C17_22 
REMARK   10  A    between atoms: C21_26  and  N4_27 
ROOT
HETATM    1  C7  UNL     1      29.348   7.825  48.166  1.00  0.00     0.128 C 
HETATM    2  C8  UNL     1      28.506   6.559  48.197  1.00  0.00     0.003 C 
HETATM    3  C9  UNL     1      27.220   6.763  48.365  1.00  0.00    -0.011 C 
HETATM    4  C10 UNL     1      26.346   7.977  47.888  1.00  0.00     0.082 C 
HETATM    5  C11 UNL     1      26.541   8.432  49.401  1.00  0.00    -0.034 C 
HETATM    6  C12 UNL     1      25.586   7.892  50.205  1.00  0.00     0.126 C 
HETATM    7  N2  UNL     1      25.455   6.385  50.151  1.00  0.00    -0.243 NA
HETATM    8  C13 UNL     1      26.387   5.915  49.287  1.00  0.00     0.129 C 
HETATM    9  C20 UNL     1      27.751   9.194  49.812  1.00  0.00     0.034 C 
HETATM   10  C21 UNL     1      28.951   8.848  49.199  1.00  0.00     0.018 C 
ENDROOT
BRANCH   8  11
HETATM   11  N3  UNL     1      26.813   4.571  49.234  1.00  0.00    -0.371 N 
HETATM   12  H18 UNL     1      27.622   4.214  48.697  1.00  0.00     0.161 HD
BRANCH  11  13
HETATM   13  C14 UNL     1      26.009   3.669  50.032  1.00  0.00     0.150 C 
BRANCH  13  14
HETATM   14  C15 UNL     1      26.687   2.483  50.536  1.00  0.00     0.012 C 
HETATM   15  C16 UNL     1      26.233   1.871  51.647  1.00  0.00     0.015 C 
HETATM   16 BR1  UNL     1      24.678   2.587  52.537  1.00  0.00    -0.051 Br
BRANCH  15  17
HETATM   17  C17 UNL     1      26.790   0.674  52.313  1.00  0.00    -0.041 A 
HETATM   18  C18 UNL     1      27.642  -0.089  53.054  1.00  0.00    -0.013 A 
HETATM   19  C19 UNL     1      26.468  -0.767  52.481  1.00  0.00     0.067 A 
ENDBRANCH  15  17
ENDBRANCH  13  14
ENDBRANCH  11  13
ENDBRANCH   8  11
BRANCH   1  20
HETATM   20  C6  UNL     1      30.703   7.389  48.604  1.00  0.00     0.140 C 
HETATM   21  O1  UNL     1      31.711   8.101  48.674  1.00  0.00    -0.297 OA
BRANCH  20  22
HETATM   22  C5  UNL     1      30.869   5.987  48.987  1.00  0.00     0.081 C 
BRANCH  22  23
HETATM   23  C4  UNL     1      32.287   5.485  48.788  1.00  0.00     0.038 C 
BRANCH  23  24
HETATM   24  C3  UNL     1      32.440   4.859  47.438  1.00  0.00     0.271 C 
BRANCH  24  25
HETATM   25  N1  UNL     1      32.831   3.479  47.610  1.00  0.00     0.080 N 
HETATM   26  C1  UNL     1      32.275   2.597  46.601  1.00  0.00     0.309 C 
HETATM   27  C2  UNL     1      34.252   3.306  47.713  1.00  0.00     0.309 C 
ENDBRANCH  24  25
ENDBRANCH  23  24
ENDBRANCH  22  23
ENDBRANCH  20  22
ENDBRANCH   1  20
BRANCH  10  28
HETATM   28  N4  UNL     1      29.820   9.777  49.882  1.00  0.00    -0.401 N 
HETATM   29  H26 UNL     1      30.789   9.498  49.559  1.00  0.00     0.156 HD
HETATM   30  H27 UNL     1      29.461  10.510  50.522  1.00  0.00     0.156 HD
ENDBRANCH  10  28
TORSDOF 10
ENDMDL
MODEL 6
REMARK VINA RESULT:      -7.1      3.378      7.004
REMARK  10 active torsions:
REMARK  status: ('A' for Active; 'I' for Inactive)
REMARK    1  A    between atoms: N1_2  and  C3_4 
REMARK    2  A    between atoms: C3_4  and  C4_5 
REMARK    3  A    between atoms: C4_5  and  C5_6 
REMARK    4  A    between atoms: C5_6  and  C6_7 
REMARK    5  A    between atoms: C6_7  and  C7_9 
REMARK    6  A    between atoms: C13_16  and  N3_17 
REMARK    7  A    between atoms: N3_17  and  C14_18 
REMARK    8  A    between atoms: C14_18  and  C15_19 
REMARK    9  A    between atoms: C16_20  and  C17_22 
REMARK   10  A    between atoms: C21_26  and  N4_27 
ROOT
HETATM    1  C7  UNL     1      24.328   2.975  51.209  1.00  0.00     0.128 C 
HETATM    2  C8  UNL     1      23.688   1.862  52.024  1.00  0.00     0.003 C 
HETATM    3  C9  UNL     1      24.454   1.365  52.967  1.00  0.00    -0.011 C 
HETATM    4  C10 UNL     1      25.558   2.087  53.819  1.00  0.00     0.082 C 
HETATM    5  C11 UNL     1      26.523   1.383  52.766  1.00  0.00    -0.034 C 
HETATM    6  C12 UNL     1      26.853   0.125  53.164  1.00  0.00     0.126 C 
HETATM    7  N2  UNL     1      25.691  -0.795  53.467  1.00  0.00    -0.243 NA
HETATM    8  C13 UNL     1      24.544  -0.112  53.233  1.00  0.00     0.129 C 
HETATM    9  C20 UNL     1      26.813   2.029  51.457  1.00  0.00     0.034 C 
HETATM   10  C21 UNL     1      25.768   2.717  50.848  1.00  0.00     0.018 C 
ENDROOT
BRANCH   8  11
HETATM   11  N3  UNL     1      23.281  -0.718  53.058  1.00  0.00    -0.371 N 
HETATM   12  H18 UNL     1      22.970  -1.234  52.218  1.00  0.00     0.161 HD
BRANCH  11  13
HETATM   13  C14 UNL     1      22.400  -0.575  54.198  1.00  0.00     0.150 C 
BRANCH  13  14
HETATM   14  C15 UNL     1      21.135  -1.292  54.122  1.00  0.00     0.012 C 
HETATM   15  C16 UNL     1      20.060  -0.699  53.568  1.00  0.00     0.015 C 
HETATM   16 BR1  UNL     1      20.234   1.093  52.877  1.00  0.00    -0.051 Br
BRANCH  15  17
HETATM   17  C17 UNL     1      18.698  -1.257  53.414  1.00  0.00    -0.041 A 
HETATM   18  C18 UNL     1      17.383  -1.324  53.062  1.00  0.00    -0.013 A 
HETATM   19  C19 UNL     1      17.954  -2.501  53.736  1.00  0.00     0.067 A 
ENDBRANCH  15  17
ENDBRANCH  13  14
ENDBRANCH  11  13
ENDBRANCH   8  11
BRANCH   1  20
HETATM   20  C6  UNL     1      23.624   2.937  49.898  1.00  0.00     0.140 C 
HETATM   21  O1  UNL     1      23.803   3.712  48.951  1.00  0.00    -0.297 OA
BRANCH  20  22
HETATM   22  C5  UNL     1      22.622   1.890  49.700  1.00  0.00     0.081 C 
BRANCH  22  23
HETATM   23  C4  UNL     1      22.093   1.839  48.279  1.00  0.00     0.038 C 
BRANCH  23  24
HETATM   24  C3  UNL     1      20.649   2.228  48.239  1.00  0.00     0.271 C 
BRANCH  24  25
HETATM   25  N1  UNL     1      20.523   3.466  47.506  1.00  0.00     0.080 N 
HETATM   26  C1  UNL     1      19.461   3.442  46.518  1.00  0.00     0.309 C 
HETATM   27  C2  UNL     1      20.401   4.614  48.360  1.00  0.00     0.309 C 
ENDBRANCH  24  25
ENDBRANCH  23  24
ENDBRANCH  22  23
ENDBRANCH  20  22
ENDBRANCH   1  20
BRANCH  10  28
HETATM   28  N4  UNL     1      26.455   3.140  49.651  1.00  0.00    -0.401 N 
HETATM   29  H26 UNL     1      26.281   2.348  48.969  1.00  0.00     0.156 HD
HETATM   30  H27 UNL     1      26.969   4.038  49.590  1.00  0.00     0.156 HD
ENDBRANCH  10  28
TORSDOF 10
ENDMDL
MODEL 7
REMARK VINA RESULT:      -7.0      3.687      8.908
REMARK  10 active torsions:
REMARK  status: ('A' for Active; 'I' for Inactive)
REMARK    1  A    between atoms: N1_2  and  C3_4 
REMARK    2  A    between atoms: C3_4  and  C4_5 
REMARK    3  A    between atoms: C4_5  and  C5_6 
REMARK    4  A    between atoms: C5_6  and  C6_7 
REMARK    5  A    between atoms: C6_7  and  C7_9 
REMARK    6  A    between atoms: C13_16  and  N3_17 
REMARK    7  A    between atoms: N3_17  and  C14_18 
REMARK    8  A    between atoms: C14_18  and  C15_19 
REMARK    9  A    between atoms: C16_20  and  C17_22 
REMARK   10  A    between atoms: C21_26  and  N4_27 
ROOT
HETATM    1  C7  UNL     1      25.361   5.703  48.922  1.00  0.00     0.128 C 
HETATM    2  C8  UNL     1      24.505   4.448  48.994  1.00  0.00     0.003 C 
HETATM    3  C9  UNL     1      23.296   4.637  49.468  1.00  0.00    -0.011 C 
HETATM    4  C10 UNL     1      22.378   5.905  49.344  1.00  0.00     0.082 C 
HETATM    5  C11 UNL     1      22.919   6.173  50.817  1.00  0.00    -0.034 C 
HETATM    6  C12 UNL     1      22.149   5.546  51.746  1.00  0.00     0.126 C 
HETATM    7  N2  UNL     1      21.959   4.058  51.548  1.00  0.00    -0.243 NA
HETATM    8  C13 UNL     1      22.660   3.690  50.448  1.00  0.00     0.129 C 
HETATM    9  C20 UNL     1      24.214   6.873  51.032  1.00  0.00     0.034 C 
HETATM   10  C21 UNL     1      25.237   6.595  50.129  1.00  0.00     0.018 C 
ENDROOT
BRANCH   8  11
HETATM   11  N3  UNL     1      23.020   2.359  50.145  1.00  0.00    -0.371 N 
HETATM   12  H18 UNL     1      23.203   1.983  49.199  1.00  0.00     0.161 HD
BRANCH  11  13
HETATM   13  C14 UNL     1      23.132   1.503  51.307  1.00  0.00     0.150 C 
BRANCH  13  14
HETATM   14  C15 UNL     1      24.470   1.348  51.860  1.00  0.00     0.012 C 
HETATM   15  C16 UNL     1      24.693   0.446  52.836  1.00  0.00     0.015 C 
HETATM   16 BR1  UNL     1      23.220  -0.627  53.470  1.00  0.00    -0.051 Br
BRANCH  15  17
HETATM   17  C17 UNL     1      25.968   0.155  53.526  1.00  0.00    -0.041 A 
HETATM   18  C18 UNL     1      26.933   0.196  54.488  1.00  0.00    -0.013 A 
HETATM   19  C19 UNL     1      27.202  -0.646  53.311  1.00  0.00     0.067 A 
ENDBRANCH  15  17
ENDBRANCH  13  14
ENDBRANCH  11  13
ENDBRANCH   8  11
BRANCH   1  20
HETATM   20  C6  UNL     1      26.764   5.209  48.991  1.00  0.00     0.140 C 
HETATM   21  O1  UNL     1      27.154   4.202  49.594  1.00  0.00    -0.297 OA
BRANCH  20  22
HETATM   22  C5  UNL     1      27.786   5.980  48.285  1.00  0.00     0.081 C 
BRANCH  22  23
HETATM   23  C4  UNL     1      29.129   5.276  48.237  1.00  0.00     0.038 C 
BRANCH  23  24
HETATM   24  C3  UNL     1      30.214   6.233  47.853  1.00  0.00     0.271 C 
BRANCH  24  25
HETATM   25  N1  UNL     1      31.081   6.430  48.990  1.00  0.00     0.080 N 
HETATM   26  C1  UNL     1      32.348   5.734  48.871  1.00  0.00     0.309 C 
HETATM   27  C2  UNL     1      31.286   7.815  49.307  1.00  0.00     0.309 C 
ENDBRANCH  24  25
ENDBRANCH  23  24
ENDBRANCH  22  23
ENDBRANCH  20  22
ENDBRANCH   1  20
BRANCH  10  28
HETATM   28  N4  UNL     1      26.265   7.430  50.704  1.00  0.00    -0.401 N 
HETATM   29  H26 UNL     1      25.972   7.527  51.717  1.00  0.00     0.156 HD
HETATM   30  H27 UNL     1      27.063   7.794  50.150  1.00  0.00     0.156 HD
ENDBRANCH  10  28
TORSDOF 10
ENDMDL
MODEL 8
REMARK VINA RESULT:      -7.0      4.342     10.614
REMARK  10 active torsions:
REMARK  status: ('A' for Active; 'I' for Inactive)
REMARK    1  A    between atoms: N1_2  and  C3_4 
REMARK    2  A    between atoms: C3_4  and  C4_5 
REMARK    3  A    between atoms: C4_5  and  C5_6 
REMARK    4  A    between atoms: C5_6  and  C6_7 
REMARK    5  A    between atoms: C6_7  and  C7_9 
REMARK    6  A    between atoms: C13_16  and  N3_17 
REMARK    7  A    between atoms: N3_17  and  C14_18 
REMARK    8  A    between atoms: C14_18  and  C15_19 
REMARK    9  A    between atoms: C16_20  and  C17_22 
REMARK   10  A    between atoms: C21_26  and  N4_27 
ROOT
HETATM    1  C7  UNL     1      29.785   6.402  47.881  1.00  0.00     0.128 C 
HETATM    2  C8  UNL     1      28.532   5.616  48.237  1.00  0.00     0.003 C 
HETATM    3  C9  UNL     1      27.443   6.341  48.338  1.00  0.00    -0.011 C 
HETATM    4  C10 UNL     1      27.053   7.645  47.555  1.00  0.00     0.082 C 
HETATM    5  C11 UNL     1      27.552   8.340  48.898  1.00  0.00    -0.034 C 
HETATM    6  C12 UNL     1      26.546   8.430  49.809  1.00  0.00     0.126 C 
HETATM    7  N2  UNL     1      25.848   7.131  50.149  1.00  0.00    -0.243 NA
HETATM    8  C13 UNL     1      26.443   6.139  49.443  1.00  0.00     0.129 C 
HETATM    9  C20 UNL     1      28.995   8.641  49.103  1.00  0.00     0.034 C 
HETATM   10  C21 UNL     1      29.908   7.715  48.609  1.00  0.00     0.018 C 
ENDROOT
BRANCH   8  11
HETATM   11  N3  UNL     1      26.320   4.766  49.746  1.00  0.00    -0.371 N 
HETATM   12  H18 UNL     1      27.102   4.098  49.853  1.00  0.00     0.161 HD
BRANCH  11  13
HETATM   13  C14 UNL     1      24.952   4.324  49.918  1.00  0.00     0.150 C 
BRANCH  13  14
HETATM   14  C15 UNL     1      24.776   2.988  50.469  1.00  0.00     0.012 C 
HETATM   15  C16 UNL     1      24.110   2.822  51.628  1.00  0.00     0.015 C 
HETATM   16 BR1  UNL     1      23.397   4.373  52.526  1.00  0.00    -0.051 Br
BRANCH  15  17
HETATM   17  C17 UNL     1      23.843   1.556  52.345  1.00  0.00    -0.041 A 
HETATM   18  C18 UNL     1      23.142   0.496  52.838  1.00  0.00    -0.013 A 
HETATM   19  C19 UNL     1      24.582   0.540  53.139  1.00  0.00     0.067 A 
ENDBRANCH  15  17
ENDBRANCH  13  14
ENDBRANCH  11  13
ENDBRANCH   8  11
BRANCH   1  20
HETATM   20  C6  UNL     1      30.908   5.590  48.426  1.00  0.00     0.140 C 
HETATM   21  O1  UNL     1      31.303   5.585  49.598  1.00  0.00    -0.297 OA
BRANCH  20  22
HETATM   22  C5  UNL     1      31.620   4.713  47.496  1.00  0.00     0.081 C 
BRANCH  22  23
HETATM   23  C4  UNL     1      32.428   5.478  46.464  1.00  0.00     0.038 C 
BRANCH  23  24
HETATM   24  C3  UNL     1      33.882   5.467  46.818  1.00  0.00     0.271 C 
BRANCH  24  25
HETATM   25  N1  UNL     1      34.313   6.826  47.047  1.00  0.00     0.080 N 
HETATM   26  C1  UNL     1      33.473   7.811  46.391  1.00  0.00     0.309 C 
HETATM   27  C2  UNL     1      34.475   7.137  48.439  1.00  0.00     0.309 C 
ENDBRANCH  24  25
ENDBRANCH  23  24
ENDBRANCH  22  23
ENDBRANCH  20  22
ENDBRANCH   1  20
BRANCH  10  28
HETATM   28  N4  UNL     1      31.126   8.365  49.031  1.00  0.00    -0.401 N 
HETATM   29  H26 UNL     1      31.417   8.927  48.182  1.00  0.00     0.156 HD
HETATM   30  H27 UNL     1      31.530   8.235  49.977  1.00  0.00     0.156 HD
ENDBRANCH  10  28
TORSDOF 10
ENDMDL
MODEL 9
REMARK VINA RESULT:      -6.9      3.891      9.286
REMARK  10 active torsions:
REMARK  status: ('A' for Active; 'I' for Inactive)
REMARK    1  A    between atoms: N1_2  and  C3_4 
REMARK    2  A    between atoms: C3_4  and  C4_5 
REMARK    3  A    between atoms: C4_5  and  C5_6 
REMARK    4  A    between atoms: C5_6  and  C6_7 
REMARK    5  A    between atoms: C6_7  and  C7_9 
REMARK    6  A    between atoms: C13_16  and  N3_17 
REMARK    7  A    between atoms: N3_17  and  C14_18 
REMARK    8  A    between atoms: C14_18  and  C15_19 
REMARK    9  A    between atoms: C16_20  and  C17_22 
REMARK   10  A    between atoms: C21_26  and  N4_27 
ROOT
HETATM    1  C7  UNL     1      25.355   5.936  48.877  1.00  0.00     0.128 C 
HETATM    2  C8  UNL     1      24.489   4.686  48.868  1.00  0.00     0.003 C 
HETATM    3  C9  UNL     1      23.278   4.857  49.344  1.00  0.00    -0.011 C 
HETATM    4  C10 UNL     1      22.371   6.137  49.287  1.00  0.00     0.082 C 
HETATM    5  C11 UNL     1      22.902   6.313  50.778  1.00  0.00    -0.034 C 
HETATM    6  C12 UNL     1      22.119   5.638  51.662  1.00  0.00     0.126 C 
HETATM    7  N2  UNL     1      21.920   4.166  51.375  1.00  0.00    -0.243 NA
HETATM    8  C13 UNL     1      22.627   3.858  50.260  1.00  0.00     0.129 C 
HETATM    9  C20 UNL     1      24.201   6.988  51.044  1.00  0.00     0.034 C 
HETATM   10  C21 UNL     1      25.228   6.757  50.134  1.00  0.00     0.018 C 
ENDROOT
BRANCH   8  11
HETATM   11  N3  UNL     1      22.979   2.544  49.881  1.00  0.00    -0.371 N 
HETATM   12  H18 UNL     1      22.851   2.132  48.942  1.00  0.00     0.161 HD
BRANCH  11  13
HETATM   13  C14 UNL     1      23.575   1.767  50.948  1.00  0.00     0.150 C 
BRANCH  13  14
HETATM   14  C15 UNL     1      22.653   1.002  51.774  1.00  0.00     0.012 C 
HETATM   15  C16 UNL     1      23.111   0.339  52.854  1.00  0.00     0.015 C 
HETATM   16 BR1  UNL     1      24.990   0.434  53.281  1.00  0.00    -0.051 Br
BRANCH  15  17
HETATM   17  C17 UNL     1      22.337  -0.495  53.799  1.00  0.00    -0.041 A 
HETATM   18  C18 UNL     1      21.918  -1.608  54.465  1.00  0.00    -0.013 A 
HETATM   19  C19 UNL     1      21.259  -0.338  54.809  1.00  0.00     0.067 A 
ENDBRANCH  15  17
ENDBRANCH  13  14
ENDBRANCH  11  13
ENDBRANCH   8  11
BRANCH   1  20
HETATM   20  C6  UNL     1      26.754   5.428  48.927  1.00  0.00     0.140 C 
HETATM   21  O1  UNL     1      27.155   4.461  49.586  1.00  0.00    -0.297 OA
BRANCH  20  22
HETATM   22  C5  UNL     1      27.756   6.131  48.128  1.00  0.00     0.081 C 
BRANCH  22  23
HETATM   23  C4  UNL     1      29.140   5.517  48.242  1.00  0.00     0.038 C 
BRANCH  23  24
HETATM   24  C3  UNL     1      30.195   6.534  47.938  1.00  0.00     0.271 C 
BRANCH  24  25
HETATM   25  N1  UNL     1      31.487   5.959  48.227  1.00  0.00     0.080 N 
HETATM   26  C1  UNL     1      31.803   5.944  49.643  1.00  0.00     0.309 C 
HETATM   27  C2  UNL     1      31.666   4.657  47.650  1.00  0.00     0.309 C 
ENDBRANCH  24  25
ENDBRANCH  23  24
ENDBRANCH  22  23
ENDBRANCH  20  22
ENDBRANCH   1  20
BRANCH  10  28
HETATM   28  N4  UNL     1      26.258   7.547  50.765  1.00  0.00    -0.401 N 
HETATM   29  H26 UNL     1      25.749   8.426  51.068  1.00  0.00     0.156 HD
HETATM   30  H27 UNL     1      27.241   7.224  50.844  1.00  0.00     0.156 HD
ENDBRANCH  10  28
TORSDOF 10
ENDMDL
