MODEL 1
REMARK VINA RESULT:      -8.7      0.000      0.000
REMARK  6 active torsions:
REMARK  status: ('A' for Active; 'I' for Inactive)
REMARK    1  A    between atoms: O1_2  and  C2_3 
REMARK    2  A    between atoms: C6_9  and  N3_10 
REMARK    3  A    between atoms: N3_10  and  C7_11 
REMARK    4  A    between atoms: C16_23  and  C18_25 
REMARK    5  A    between atoms: C18_25  and  O3_26 
REMARK    6  A    between atoms: C21_30  and  O4_31 
ROOT
HETATM    1  C2  UNL     1      19.958   0.624  51.523  1.00  0.00     0.130 C 
HETATM    2  C3  UNL     1      21.139   0.668  51.996  1.00  0.00     0.092 C 
HETATM    3  C4  UNL     1      22.554   0.769  52.233  1.00  0.00     0.056 A 
HETATM    4  N1  UNL     1      22.533  -0.171  53.175  1.00  0.00    -0.245 NA
HETATM    5  C5  UNL     1      23.566  -0.580  53.887  1.00  0.00     0.235 A 
HETATM    6  N2  UNL     1      24.701   0.052  53.577  1.00  0.00    -0.224 NA
HETATM    7  C6  UNL     1      24.728   1.009  52.619  1.00  0.00     0.139 A 
HETATM    8  C13 UNL     1      23.664   1.484  51.828  1.00  0.00     0.037 A 
HETATM    9  C14 UNL     1      24.218   2.510  50.940  1.00  0.00     0.212 C 
HETATM   10  O2  UNL     1      23.577   2.839  49.807  1.00  0.00    -0.384 OA
HETATM   11  C15 UNL     1      22.331   3.339  49.965  1.00  0.00     0.211 C 
HETATM   12  C16 UNL     1      21.546   3.655  48.754  1.00  0.00     0.195 C 
HETATM   13  C17 UNL     1      22.043   5.116  48.383  1.00  0.00     0.053 C 
HETATM   14  N4  UNL     1      20.151   3.943  49.028  1.00  0.00     0.097 N 
HETATM   15  C19 UNL     1      19.572   2.931  49.896  1.00  0.00     0.273 C 
HETATM   16  C20 UNL     1      19.451   1.564  49.341  1.00  0.00     0.065 C 
HETATM   17  C21 UNL     1      18.902   0.675  50.493  1.00  0.00     0.158 C 
HETATM   18  H20 UNL     1      20.059   4.832  49.587  1.00  0.00     0.317 HD
ENDROOT
BRANCH   7  19
HETATM   19  N3  UNL     1      26.070   1.549  52.501  1.00  0.00    -0.340 N 
HETATM   20  H6  UNL     1      26.468   2.460  52.132  1.00  0.00     0.167 HD
BRANCH  19  21
HETATM   21  C7  UNL     1      27.209   0.828  52.943  1.00  0.00     0.035 A 
HETATM   22  C8  UNL     1      28.302   1.417  53.541  1.00  0.00     0.032 A 
HETATM   23  C9  UNL     1      29.439   0.764  53.951  1.00  0.00     0.046 A 
HETATM   24  C10 UNL     1      29.537  -0.597  53.767  1.00  0.00     0.138 A 
HETATM   25  F1  UNL     1      30.627  -1.284  54.147  1.00  0.00    -0.204 F 
HETATM   26  C11 UNL     1      28.488  -1.252  53.179  1.00  0.00     0.074 A 
HETATM   27 CL1  UNL     1      28.605  -2.986  52.940  1.00  0.00    -0.081 Cl
HETATM   28  C12 UNL     1      27.391  -0.542  52.797  1.00  0.00     0.056 A 
ENDBRANCH  19  21
ENDBRANCH   7  19
BRANCH   1  29
HETATM   29  O1  UNL     1      19.447   0.383  52.792  1.00  0.00    -0.378 OA
HETATM   30  C1  UNL     1      19.033  -0.854  53.290  1.00  0.00     0.202 C 
ENDBRANCH   1  29
BRANCH  17  31
HETATM   31  O4  UNL     1      17.769   1.294  50.996  1.00  0.00    -0.392 OA
HETATM   32  H26 UNL     1      17.227   0.590  51.435  1.00  0.00     0.210 HD
ENDBRANCH  17  31
BRANCH  12  33
HETATM   33  C18 UNL     1      21.720   2.926  47.497  1.00  0.00     0.207 C 
BRANCH  33  34
HETATM   34  O3  UNL     1      22.439   1.726  47.629  1.00  0.00    -0.398 OA
HETATM   35  H19 UNL     1      22.250   1.365  48.509  1.00  0.00     0.209 HD
ENDBRANCH  33  34
ENDBRANCH  12  33
TORSDOF 6
ENDMDL
MODEL 2
REMARK VINA RESULT:      -8.6      4.728      7.414
REMARK  6 active torsions:
REMARK  status: ('A' for Active; 'I' for Inactive)
REMARK    1  A    between atoms: O1_2  and  C2_3 
REMARK    2  A    between atoms: C6_9  and  N3_10 
REMARK    3  A    between atoms: N3_10  and  C7_11 
REMARK    4  A    between atoms: C16_23  and  C18_25 
REMARK    5  A    between atoms: C18_25  and  O3_26 
REMARK    6  A    between atoms: C21_30  and  O4_31 
ROOT
HETATM    1  C2  UNL     1      22.818   0.543  52.477  1.00  0.00     0.130 C 
HETATM    2  C3  UNL     1      23.276   1.447  51.706  1.00  0.00     0.092 C 
HETATM    3  C4  UNL     1      24.006   2.504  51.061  1.00  0.00     0.056 A 
HETATM    4  N1  UNL     1      22.903   3.048  50.551  1.00  0.00    -0.245 NA
HETATM    5  C5  UNL     1      22.850   4.107  49.767  1.00  0.00     0.235 A 
HETATM    6  N2  UNL     1      24.053   4.627  49.504  1.00  0.00    -0.224 NA
HETATM    7  C6  UNL     1      25.178   4.078  50.020  1.00  0.00     0.139 A 
HETATM    8  C13 UNL     1      25.296   2.954  50.861  1.00  0.00     0.037 A 
HETATM    9  C14 UNL     1      26.724   2.781  51.142  1.00  0.00     0.212 C 
HETATM   10  O2  UNL     1      27.120   2.086  52.220  1.00  0.00    -0.384 OA
HETATM   11  C15 UNL     1      26.733   0.791  52.256  1.00  0.00     0.211 C 
HETATM   12  C16 UNL     1      27.076  -0.008  53.450  1.00  0.00     0.195 C 
HETATM   13  C17 UNL     1      28.552  -0.499  53.133  1.00  0.00     0.053 C 
HETATM   14  N4  UNL     1      26.406  -1.294  53.497  1.00  0.00     0.097 N 
HETATM   15  C19 UNL     1      24.983  -1.148  53.237  1.00  0.00     0.273 C 
HETATM   16  C20 UNL     1      24.192  -0.405  54.243  1.00  0.00     0.065 C 
HETATM   17  C21 UNL     1      22.746  -0.313  53.677  1.00  0.00     0.158 C 
HETATM   18  H20 UNL     1      26.739  -1.915  52.714  1.00  0.00     0.317 HD
ENDROOT
BRANCH   7  19
HETATM   19  N3  UNL     1      26.340   4.815  49.559  1.00  0.00    -0.340 N 
HETATM   20  H6  UNL     1      27.339   4.546  49.326  1.00  0.00     0.167 HD
BRANCH  19  21
HETATM   21  C7  UNL     1      26.290   6.210  49.306  1.00  0.00     0.035 A 
HETATM   22  C8  UNL     1      25.801   7.133  50.206  1.00  0.00     0.032 A 
HETATM   23  C9  UNL     1      25.700   8.486  49.990  1.00  0.00     0.046 A 
HETATM   24  C10 UNL     1      26.112   9.007  48.785  1.00  0.00     0.138 A 
HETATM   25  F1  UNL     1      26.034  10.322  48.520  1.00  0.00    -0.204 F 
HETATM   26  C11 UNL     1      26.610   8.150  47.840  1.00  0.00     0.074 A 
HETATM   27 CL1  UNL     1      27.136   8.806  46.300  1.00  0.00    -0.081 Cl
HETATM   28  C12 UNL     1      26.682   6.820  48.121  1.00  0.00     0.056 A 
ENDBRANCH  19  21
ENDBRANCH   7  19
BRANCH   1  29
HETATM   29  O1  UNL     1      21.803   0.267  51.571  1.00  0.00    -0.378 OA
HETATM   30  C1  UNL     1      20.475   0.688  51.672  1.00  0.00     0.202 C 
ENDBRANCH   1  29
BRANCH  17  31
HETATM   31  O4  UNL     1      22.350  -1.596  53.331  1.00  0.00    -0.392 OA
HETATM   32  H26 UNL     1      21.443  -1.521  52.940  1.00  0.00     0.210 HD
ENDBRANCH  17  31
BRANCH  12  33
HETATM   33  C18 UNL     1      27.213   0.589  54.779  1.00  0.00     0.207 C 
BRANCH  33  34
HETATM   34  O3  UNL     1      28.398   1.325  54.953  1.00  0.00    -0.398 OA
HETATM   35  H19 UNL     1      28.907   1.262  54.130  1.00  0.00     0.209 HD
ENDBRANCH  33  34
ENDBRANCH  12  33
TORSDOF 6
ENDMDL
MODEL 3
REMARK VINA RESULT:      -8.4      4.287      5.998
REMARK  6 active torsions:
REMARK  status: ('A' for Active; 'I' for Inactive)
REMARK    1  A    between atoms: O1_2  and  C2_3 
REMARK    2  A    between atoms: C6_9  and  N3_10 
REMARK    3  A    between atoms: N3_10  and  C7_11 
REMARK    4  A    between atoms: C16_23  and  C18_25 
REMARK    5  A    between atoms: C18_25  and  O3_26 
REMARK    6  A    between atoms: C21_30  and  O4_31 
ROOT
HETATM    1  C2  UNL     1      23.540   0.117  53.114  1.00  0.00     0.130 C 
HETATM    2  C3  UNL     1      24.111   1.053  52.466  1.00  0.00     0.092 C 
HETATM    3  C4  UNL     1      24.526   2.061  51.528  1.00  0.00     0.056 A 
HETATM    4  N1  UNL     1      25.819   1.829  51.747  1.00  0.00    -0.245 NA
HETATM    5  C5  UNL     1      26.827   2.477  51.195  1.00  0.00     0.235 A 
HETATM    6  N2  UNL     1      26.438   3.437  50.352  1.00  0.00    -0.224 NA
HETATM    7  C6  UNL     1      25.125   3.675  50.125  1.00  0.00     0.139 A 
HETATM    8  C13 UNL     1      24.008   3.019  50.680  1.00  0.00     0.037 A 
HETATM    9  C14 UNL     1      22.816   3.647  50.103  1.00  0.00     0.212 C 
HETATM   10  O2  UNL     1      21.644   2.991  50.098  1.00  0.00    -0.384 OA
HETATM   11  C15 UNL     1      21.152   2.664  51.313  1.00  0.00     0.211 C 
HETATM   12  C16 UNL     1      19.901   1.879  51.372  1.00  0.00     0.195 C 
HETATM   13  C17 UNL     1      18.779   2.995  51.261  1.00  0.00     0.053 C 
HETATM   14  N4  UNL     1      19.599   1.372  52.697  1.00  0.00     0.097 N 
HETATM   15  C19 UNL     1      20.763   0.730  53.286  1.00  0.00     0.273 C 
HETATM   16  C20 UNL     1      21.242  -0.510  52.637  1.00  0.00     0.065 C 
HETATM   17  C21 UNL     1      22.535  -0.926  53.396  1.00  0.00     0.158 C 
HETATM   18  H20 UNL     1      19.391   2.166  53.359  1.00  0.00     0.317 HD
ENDROOT
BRANCH   7  19
HETATM   19  N3  UNL     1      24.980   4.780  49.195  1.00  0.00    -0.340 N 
HETATM   20  H6  UNL     1      24.313   4.990  48.398  1.00  0.00     0.167 HD
BRANCH  19  21
HETATM   21  C7  UNL     1      25.835   5.911  49.238  1.00  0.00     0.035 A 
HETATM   22  C8  UNL     1      25.634   6.990  50.071  1.00  0.00     0.032 A 
HETATM   23  C9  UNL     1      26.413   8.120  50.120  1.00  0.00     0.046 A 
HETATM   24  C10 UNL     1      27.499   8.225  49.280  1.00  0.00     0.138 A 
HETATM   25  F1  UNL     1      28.293   9.309  49.284  1.00  0.00    -0.204 F 
HETATM   26  C11 UNL     1      27.762   7.190  48.422  1.00  0.00     0.074 A 
HETATM   27 CL1  UNL     1      29.144   7.317  47.347  1.00  0.00    -0.081 Cl
HETATM   28  C12 UNL     1      26.948   6.100  48.427  1.00  0.00     0.056 A 
ENDBRANCH  19  21
ENDBRANCH   7  19
BRANCH   1  29
HETATM   29  O1  UNL     1      24.496   0.214  54.118  1.00  0.00    -0.378 OA
HETATM   30  C1  UNL     1      25.632  -0.586  54.250  1.00  0.00     0.202 C 
ENDBRANCH   1  29
BRANCH  17  31
HETATM   31  O4  UNL     1      22.235  -0.953  54.749  1.00  0.00    -0.392 OA
HETATM   32  H26 UNL     1      22.800  -1.660  55.154  1.00  0.00     0.210 HD
ENDBRANCH  17  31
BRANCH  12  33
HETATM   33  C18 UNL     1      19.521   0.933  50.322  1.00  0.00     0.207 C 
BRANCH  33  34
HETATM   34  O3  UNL     1      19.417   1.511  49.045  1.00  0.00    -0.398 OA
HETATM   35  H19 UNL     1      19.812   2.395  49.090  1.00  0.00     0.209 HD
ENDBRANCH  33  34
ENDBRANCH  12  33
TORSDOF 6
ENDMDL
MODEL 4
REMARK VINA RESULT:      -8.1      4.432      8.305
REMARK  6 active torsions:
REMARK  status: ('A' for Active; 'I' for Inactive)
REMARK    1  A    between atoms: O1_2  and  C2_3 
REMARK    2  A    between atoms: C6_9  and  N3_10 
REMARK    3  A    between atoms: N3_10  and  C7_11 
REMARK    4  A    between atoms: C16_23  and  C18_25 
REMARK    5  A    between atoms: C18_25  and  O3_26 
REMARK    6  A    between atoms: C21_30  and  O4_31 
ROOT
HETATM    1  C2  UNL     1      23.963   2.862  50.990  1.00  0.00     0.130 C 
HETATM    2  C3  UNL     1      22.864   2.398  51.437  1.00  0.00     0.092 C 
HETATM    3  C4  UNL     1      21.786   1.608  51.967  1.00  0.00     0.056 A 
HETATM    4  N1  UNL     1      20.875   2.224  51.215  1.00  0.00    -0.245 NA
HETATM    5  C5  UNL     1      19.576   1.996  51.228  1.00  0.00     0.235 A 
HETATM    6  N2  UNL     1      19.216   1.048  52.098  1.00  0.00    -0.224 NA
HETATM    7  C6  UNL     1      20.139   0.418  52.863  1.00  0.00     0.139 A 
HETATM    8  C13 UNL     1      21.533   0.616  52.893  1.00  0.00     0.037 A 
HETATM    9  C14 UNL     1      22.075  -0.319  53.883  1.00  0.00     0.212 C 
HETATM   10  O2  UNL     1      23.370  -0.670  53.841  1.00  0.00    -0.384 OA
HETATM   11  C15 UNL     1      24.255   0.340  53.989  1.00  0.00     0.211 C 
HETATM   12  C16 UNL     1      25.696   0.029  53.881  1.00  0.00     0.195 C 
HETATM   13  C17 UNL     1      26.062  -0.455  55.347  1.00  0.00     0.053 C 
HETATM   14  N4  UNL     1      26.537   1.208  53.804  1.00  0.00     0.097 N 
HETATM   15  C19 UNL     1      26.030   2.146  52.816  1.00  0.00     0.273 C 
HETATM   16  C20 UNL     1      26.063   1.711  51.403  1.00  0.00     0.065 C 
HETATM   17  C21 UNL     1      25.382   2.844  50.584  1.00  0.00     0.158 C 
HETATM   18  H20 UNL     1      26.498   1.751  54.707  1.00  0.00     0.317 HD
ENDROOT
BRANCH   7  19
HETATM   19  N3  UNL     1      19.483  -0.540  53.734  1.00  0.00    -0.340 N 
HETATM   20  H6  UNL     1      19.657  -0.876  54.724  1.00  0.00     0.167 HD
BRANCH  19  21
HETATM   21  C7  UNL     1      18.334  -1.263  53.321  1.00  0.00     0.035 A 
HETATM   22  C8  UNL     1      17.307  -0.710  52.585  1.00  0.00     0.032 A 
HETATM   23  C9  UNL     1      16.162  -1.361  52.195  1.00  0.00     0.046 A 
HETATM   24  C10 UNL     1      15.984  -2.679  52.550  1.00  0.00     0.138 A 
HETATM   25  F1  UNL     1      14.882  -3.363  52.197  1.00  0.00    -0.204 F 
HETATM   26  C11 UNL     1      16.963  -3.296  53.282  1.00  0.00     0.074 A 
HETATM   27 CL1  UNL     1      16.743  -4.976  53.738  1.00  0.00    -0.081 Cl
HETATM   28  C12 UNL     1      18.073  -2.591  53.634  1.00  0.00     0.056 A 
ENDBRANCH  19  21
ENDBRANCH   7  19
BRANCH   1  29
HETATM   29  O1  UNL     1      23.378   4.109  50.815  1.00  0.00    -0.378 OA
HETATM   30  C1  UNL     1      23.030   5.003  51.829  1.00  0.00     0.202 C 
ENDBRANCH   1  29
BRANCH  17  31
HETATM   31  O4  UNL     1      25.996   4.038  50.930  1.00  0.00    -0.392 OA
HETATM   32  H26 UNL     1      25.753   4.224  51.873  1.00  0.00     0.210 HD
ENDBRANCH  17  31
BRANCH  12  33
HETATM   33  C18 UNL     1      26.200  -1.061  53.045  1.00  0.00     0.207 C 
BRANCH  33  34
HETATM   34  O3  UNL     1      27.519  -1.444  53.344  1.00  0.00    -0.398 OA
HETATM   35  H19 UNL     1      27.699  -2.272  52.872  1.00  0.00     0.209 HD
ENDBRANCH  33  34
ENDBRANCH  12  33
TORSDOF 6
ENDMDL
MODEL 5
REMARK VINA RESULT:      -8.0      1.989      4.303
REMARK  6 active torsions:
REMARK  status: ('A' for Active; 'I' for Inactive)
REMARK    1  A    between atoms: O1_2  and  C2_3 
REMARK    2  A    between atoms: C6_9  and  N3_10 
REMARK    3  A    between atoms: N3_10  and  C7_11 
REMARK    4  A    between atoms: C16_23  and  C18_25 
REMARK    5  A    between atoms: C18_25  and  O3_26 
REMARK    6  A    between atoms: C21_30  and  O4_31 
ROOT
HETATM    1  C2  UNL     1      21.739   4.556  48.632  1.00  0.00     0.130 C 
HETATM    2  C3  UNL     1      22.626   3.885  49.253  1.00  0.00     0.092 C 
HETATM    3  C4  UNL     1      23.402   3.091  50.167  1.00  0.00     0.056 A 
HETATM    4  N1  UNL     1      24.520   3.768  49.913  1.00  0.00    -0.245 NA
HETATM    5  C5  UNL     1      25.709   3.523  50.428  1.00  0.00     0.235 A 
HETATM    6  N2  UNL     1      25.714   2.487  51.272  1.00  0.00    -0.224 NA
HETATM    7  C6  UNL     1      24.579   1.795  51.534  1.00  0.00     0.139 A 
HETATM    8  C13 UNL     1      23.286   2.011  51.018  1.00  0.00     0.037 A 
HETATM    9  C14 UNL     1      22.414   0.999  51.622  1.00  0.00     0.212 C 
HETATM   10  O2  UNL     1      21.086   1.194  51.669  1.00  0.00    -0.384 OA
HETATM   11  C15 UNL     1      20.472   1.325  50.472  1.00  0.00     0.211 C 
HETATM   12  C16 UNL     1      19.023   1.612  50.458  1.00  0.00     0.195 C 
HETATM   13  C17 UNL     1      18.376   0.169  50.589  1.00  0.00     0.053 C 
HETATM   14  N4  UNL     1      18.519   1.979  49.148  1.00  0.00     0.097 N 
HETATM   15  C19 UNL     1      19.358   2.994  48.533  1.00  0.00     0.273 C 
HETATM   16  C20 UNL     1      19.384   4.323  49.183  1.00  0.00     0.065 C 
HETATM   17  C21 UNL     1      20.420   5.172  48.392  1.00  0.00     0.158 C 
HETATM   18  H20 UNL     1      18.587   1.164  48.483  1.00  0.00     0.317 HD
ENDROOT
BRANCH   7  19
HETATM   19  N3  UNL     1      24.866   0.711  52.454  1.00  0.00    -0.340 N 
HETATM   20  H6  UNL     1      24.266   0.026  52.996  1.00  0.00     0.167 HD
BRANCH  19  21
HETATM   21  C7  UNL     1      26.195   0.356  52.802  1.00  0.00     0.035 A 
HETATM   22  C8  UNL     1      26.724  -0.903  52.615  1.00  0.00     0.032 A 
HETATM   23  C9  UNL     1      27.990  -1.300  52.970  1.00  0.00     0.046 A 
HETATM   24  C10 UNL     1      28.837  -0.393  53.566  1.00  0.00     0.138 A 
HETATM   25  F1  UNL     1      30.085  -0.729  53.935  1.00  0.00    -0.204 F 
HETATM   26  C11 UNL     1      28.381   0.880  53.784  1.00  0.00     0.074 A 
HETATM   27 CL1  UNL     1      29.455   2.041  54.545  1.00  0.00    -0.081 Cl
HETATM   28  C12 UNL     1      27.114   1.205  53.407  1.00  0.00     0.056 A 
ENDBRANCH  19  21
ENDBRANCH   7  19
BRANCH   1  29
HETATM   29  O1  UNL     1      22.635   4.807  47.601  1.00  0.00    -0.378 OA
HETATM   30  C1  UNL     1      23.262   6.026  47.336  1.00  0.00     0.202 C 
ENDBRANCH   1  29
BRANCH  17  31
HETATM   31  O4  UNL     1      20.088   5.092  47.049  1.00  0.00    -0.392 OA
HETATM   32  H26 UNL     1      20.826   5.522  46.545  1.00  0.00     0.210 HD
ENDBRANCH  17  31
BRANCH  12  33
HETATM   33  C18 UNL     1      18.363   2.360  51.529  1.00  0.00     0.207 C 
BRANCH  33  34
HETATM   34  O3  UNL     1      19.243   3.120  52.319  1.00  0.00    -0.398 OA
HETATM   35  H19 UNL     1      20.145   2.825  52.121  1.00  0.00     0.209 HD
ENDBRANCH  33  34
ENDBRANCH  12  33
TORSDOF 6
ENDMDL
MODEL 6
REMARK VINA RESULT:      -7.9      1.740      2.244
REMARK  6 active torsions:
REMARK  status: ('A' for Active; 'I' for Inactive)
REMARK    1  A    between atoms: O1_2  and  C2_3 
REMARK    2  A    between atoms: C6_9  and  N3_10 
REMARK    3  A    between atoms: N3_10  and  C7_11 
REMARK    4  A    between atoms: C16_23  and  C18_25 
REMARK    5  A    between atoms: C18_25  and  O3_26 
REMARK    6  A    between atoms: C21_30  and  O4_31 
ROOT
HETATM    1  C2  UNL     1      19.823   2.076  50.757  1.00  0.00     0.130 C 
HETATM    2  C3  UNL     1      20.765   1.635  51.492  1.00  0.00     0.092 C 
HETATM    3  C4  UNL     1      22.011   1.289  52.120  1.00  0.00     0.056 A 
HETATM    4  N1  UNL     1      21.583   0.074  52.456  1.00  0.00    -0.245 NA
HETATM    5  C5  UNL     1      22.265  -0.829  53.134  1.00  0.00     0.235 A 
HETATM    6  N2  UNL     1      23.486  -0.414  53.482  1.00  0.00    -0.224 NA
HETATM    7  C6  UNL     1      23.927   0.821  53.143  1.00  0.00     0.139 A 
HETATM    8  C13 UNL     1      23.249   1.822  52.420  1.00  0.00     0.037 A 
HETATM    9  C14 UNL     1      24.163   2.963  52.315  1.00  0.00     0.212 C 
HETATM   10  O2  UNL     1      23.987   3.881  51.350  1.00  0.00    -0.384 OA
HETATM   11  C15 UNL     1      22.812   4.547  51.385  1.00  0.00     0.211 C 
HETATM   12  C16 UNL     1      22.528   5.520  50.310  1.00  0.00     0.195 C 
HETATM   13  C17 UNL     1      23.246   6.838  50.828  1.00  0.00     0.053 C 
HETATM   14  N4  UNL     1      21.155   5.988  50.301  1.00  0.00     0.097 N 
HETATM   15  C19 UNL     1      20.226   4.873  50.389  1.00  0.00     0.273 C 
HETATM   16  C20 UNL     1      20.191   3.940  49.241  1.00  0.00     0.065 C 
HETATM   17  C21 UNL     1      19.201   2.806  49.635  1.00  0.00     0.158 C 
HETATM   18  H20 UNL     1      20.950   6.552  51.167  1.00  0.00     0.317 HD
ENDROOT
BRANCH   7  19
HETATM   19  N3  UNL     1      25.265   1.025  53.663  1.00  0.00    -0.340 N 
HETATM   20  H6  UNL     1      25.716   1.771  54.267  1.00  0.00     0.167 HD
BRANCH  19  21
HETATM   21  C7  UNL     1      26.317   0.108  53.405  1.00  0.00     0.035 A 
HETATM   22  C8  UNL     1      26.120  -1.155  52.888  1.00  0.00     0.032 A 
HETATM   23  C9  UNL     1      27.103  -2.087  52.657  1.00  0.00     0.046 A 
HETATM   24  C10 UNL     1      28.410  -1.774  52.954  1.00  0.00     0.138 A 
HETATM   25  F1  UNL     1      29.409  -2.648  52.750  1.00  0.00    -0.204 F 
HETATM   26  C11 UNL     1      28.683  -0.536  53.472  1.00  0.00     0.074 A 
HETATM   27 CL1  UNL     1      30.347  -0.130  53.854  1.00  0.00    -0.081 Cl
HETATM   28  C12 UNL     1      27.660   0.339  53.675  1.00  0.00     0.056 A 
ENDBRANCH  19  21
ENDBRANCH   7  19
BRANCH   1  29
HETATM   29  O1  UNL     1      18.883   1.452  51.567  1.00  0.00    -0.378 OA
HETATM   30  C1  UNL     1      18.262   0.228  51.311  1.00  0.00     0.202 C 
ENDBRANCH   1  29
BRANCH  17  31
HETATM   31  O4  UNL     1      18.021   3.405  50.045  1.00  0.00    -0.392 OA
HETATM   32  H26 UNL     1      17.846   4.155  49.421  1.00  0.00     0.210 HD
ENDBRANCH  17  31
BRANCH  12  33
HETATM   33  C18 UNL     1      23.067   5.371  48.957  1.00  0.00     0.207 C 
BRANCH  33  34
HETATM   34  O3  UNL     1      24.445   5.097  48.920  1.00  0.00    -0.398 OA
HETATM   35  H19 UNL     1      24.635   4.658  48.076  1.00  0.00     0.209 HD
ENDBRANCH  33  34
ENDBRANCH  12  33
TORSDOF 6
ENDMDL
MODEL 7
REMARK VINA RESULT:      -7.9      4.025      7.291
REMARK  6 active torsions:
REMARK  status: ('A' for Active; 'I' for Inactive)
REMARK    1  A    between atoms: O1_2  and  C2_3 
REMARK    2  A    between atoms: C6_9  and  N3_10 
REMARK    3  A    between atoms: N3_10  and  C7_11 
REMARK    4  A    between atoms: C16_23  and  C18_25 
REMARK    5  A    between atoms: C18_25  and  O3_26 
REMARK    6  A    between atoms: C21_30  and  O4_31 
ROOT
HETATM    1  C2  UNL     1      21.486   0.153  53.411  1.00  0.00     0.130 C 
HETATM    2  C3  UNL     1      21.392   1.220  52.722  1.00  0.00     0.092 C 
HETATM    3  C4  UNL     1      21.548   2.505  52.096  1.00  0.00     0.056 A 
HETATM    4  N1  UNL     1      20.234   2.722  52.059  1.00  0.00    -0.245 NA
HETATM    5  C5  UNL     1      19.637   3.778  51.542  1.00  0.00     0.235 A 
HETATM    6  N2  UNL     1      20.491   4.667  51.027  1.00  0.00    -0.224 NA
HETATM    7  C6  UNL     1      21.828   4.452  51.063  1.00  0.00     0.139 A 
HETATM    8  C13 UNL     1      22.521   3.350  51.601  1.00  0.00     0.037 A 
HETATM    9  C14 UNL     1      23.950   3.605  51.395  1.00  0.00     0.212 C 
HETATM   10  O2  UNL     1      24.863   2.974  52.151  1.00  0.00    -0.384 OA
HETATM   11  C15 UNL     1      24.868   1.625  52.058  1.00  0.00     0.211 C 
HETATM   12  C16 UNL     1      25.801   0.869  52.918  1.00  0.00     0.195 C 
HETATM   13  C17 UNL     1      27.149   0.892  52.080  1.00  0.00     0.053 C 
HETATM   14  N4  UNL     1      25.552  -0.560  52.925  1.00  0.00     0.097 N 
HETATM   15  C19 UNL     1      24.143  -0.841  53.143  1.00  0.00     0.273 C 
HETATM   16  C20 UNL     1      23.584  -0.473  54.463  1.00  0.00     0.065 C 
HETATM   17  C21 UNL     1      22.063  -0.786  54.392  1.00  0.00     0.158 C 
HETATM   18  H20 UNL     1      25.744  -0.974  51.975  1.00  0.00     0.317 HD
ENDROOT
BRANCH   7  19
HETATM   19  N3  UNL     1      22.520   5.551  50.417  1.00  0.00    -0.340 N 
HETATM   20  H6  UNL     1      23.138   6.339  50.764  1.00  0.00     0.167 HD
BRANCH  19  21
HETATM   21  C7  UNL     1      22.467   5.747  49.012  1.00  0.00     0.035 A 
HETATM   22  C8  UNL     1      22.548   6.984  48.410  1.00  0.00     0.032 A 
HETATM   23  C9  UNL     1      22.465   7.224  47.060  1.00  0.00     0.046 A 
HETATM   24  C10 UNL     1      22.284   6.165  46.199  1.00  0.00     0.138 A 
HETATM   25  F1  UNL     1      22.195   6.343  44.870  1.00  0.00    -0.204 F 
HETATM   26  C11 UNL     1      22.195   4.904  46.725  1.00  0.00     0.074 A 
HETATM   27 CL1  UNL     1      21.964   3.550  45.634  1.00  0.00    -0.081 Cl
HETATM   28  C12 UNL     1      22.286   4.739  48.073  1.00  0.00     0.056 A 
ENDBRANCH  19  21
ENDBRANCH   7  19
BRANCH   1  29
HETATM   29  O1  UNL     1      20.330  -0.342  52.822  1.00  0.00    -0.378 OA
HETATM   30  C1  UNL     1      19.089  -0.491  53.446  1.00  0.00     0.202 C 
ENDBRANCH   1  29
BRANCH  17  31
HETATM   31  O4  UNL     1      21.923  -2.092  53.949  1.00  0.00    -0.392 OA
HETATM   32  H26 UNL     1      21.203  -2.504  54.490  1.00  0.00     0.210 HD
ENDBRANCH  17  31
BRANCH  12  33
HETATM   33  C18 UNL     1      26.229   1.358  54.230  1.00  0.00     0.207 C 
BRANCH  33  34
HETATM   34  O3  UNL     1      26.931   2.575  54.182  1.00  0.00    -0.398 OA
HETATM   35  H19 UNL     1      26.613   3.068  53.410  1.00  0.00     0.209 HD
ENDBRANCH  33  34
ENDBRANCH  12  33
TORSDOF 6
ENDMDL
MODEL 8
REMARK VINA RESULT:      -7.7      4.451      7.723
REMARK  6 active torsions:
REMARK  status: ('A' for Active; 'I' for Inactive)
REMARK    1  A    between atoms: O1_2  and  C2_3 
REMARK    2  A    between atoms: C6_9  and  N3_10 
REMARK    3  A    between atoms: N3_10  and  C7_11 
REMARK    4  A    between atoms: C16_23  and  C18_25 
REMARK    5  A    between atoms: C18_25  and  O3_26 
REMARK    6  A    between atoms: C21_30  and  O4_31 
ROOT
HETATM    1  C2  UNL     1      25.968   0.290  53.536  1.00  0.00     0.130 C 
HETATM    2  C3  UNL     1      24.728  -0.002  53.549  1.00  0.00     0.092 C 
HETATM    3  C4  UNL     1      23.291  -0.026  53.518  1.00  0.00     0.056 A 
HETATM    4  N1  UNL     1      23.219  -0.976  54.448  1.00  0.00    -0.245 NA
HETATM    5  C5  UNL     1      22.113  -1.533  54.903  1.00  0.00     0.235 A 
HETATM    6  N2  UNL     1      21.006  -1.049  54.333  1.00  0.00    -0.224 NA
HETATM    7  C6  UNL     1      21.074  -0.082  53.388  1.00  0.00     0.139 A 
HETATM    8  C13 UNL     1      22.219   0.550  52.865  1.00  0.00     0.037 A 
HETATM    9  C14 UNL     1      21.752   1.526  51.876  1.00  0.00     0.212 C 
HETATM   10  O2  UNL     1      22.538   2.557  51.524  1.00  0.00    -0.384 OA
HETATM   11  C15 UNL     1      23.720   2.225  50.959  1.00  0.00     0.211 C 
HETATM   12  C16 UNL     1      24.659   3.312  50.614  1.00  0.00     0.195 C 
HETATM   13  C17 UNL     1      24.151   3.776  49.184  1.00  0.00     0.053 C 
HETATM   14  N4  UNL     1      25.982   2.839  50.252  1.00  0.00     0.097 N 
HETATM   15  C19 UNL     1      26.476   1.880  51.226  1.00  0.00     0.273 C 
HETATM   16  C20 UNL     1      26.745   2.389  52.589  1.00  0.00     0.065 C 
HETATM   17  C21 UNL     1      27.161   1.154  53.439  1.00  0.00     0.158 C 
HETATM   18  H20 UNL     1      25.946   2.287  49.355  1.00  0.00     0.317 HD
ENDROOT
BRANCH   7  19
HETATM   19  N3  UNL     1      19.740   0.240  52.918  1.00  0.00    -0.340 N 
HETATM   20  H6  UNL     1      19.293   1.110  52.507  1.00  0.00     0.167 HD
BRANCH  19  21
HETATM   21  C7  UNL     1      18.689  -0.713  52.935  1.00  0.00     0.035 A 
HETATM   22  C8  UNL     1      18.725  -1.877  53.673  1.00  0.00     0.032 A 
HETATM   23  C9  UNL     1      17.749  -2.843  53.691  1.00  0.00     0.046 A 
HETATM   24  C10 UNL     1      16.621  -2.675  52.920  1.00  0.00     0.138 A 
HETATM   25  F1  UNL     1      15.637  -3.589  52.899  1.00  0.00    -0.204 F 
HETATM   26  C11 UNL     1      16.515  -1.541  52.159  1.00  0.00     0.074 A 
HETATM   27 CL1  UNL     1      15.081  -1.320  51.173  1.00  0.00    -0.081 Cl
HETATM   28  C12 UNL     1      17.520  -0.625  52.189  1.00  0.00     0.056 A 
ENDBRANCH  19  21
ENDBRANCH   7  19
BRANCH   1  29
HETATM   29  O1  UNL     1      26.296  -1.043  53.739  1.00  0.00    -0.378 OA
HETATM   30  C1  UNL     1      26.408  -2.022  52.749  1.00  0.00     0.202 C 
ENDBRANCH   1  29
BRANCH  17  31
HETATM   31  O4  UNL     1      28.175   0.499  52.758  1.00  0.00    -0.392 OA
HETATM   32  H26 UNL     1      28.238  -0.412  53.144  1.00  0.00     0.210 HD
ENDBRANCH  17  31
BRANCH  12  33
HETATM   33  C18 UNL     1      24.710   4.569  51.361  1.00  0.00     0.207 C 
BRANCH  33  34
HETATM   34  O3  UNL     1      24.106   4.503  52.629  1.00  0.00    -0.398 OA
HETATM   35  H19 UNL     1      24.695   3.998  53.210  1.00  0.00     0.209 HD
ENDBRANCH  33  34
ENDBRANCH  12  33
TORSDOF 6
ENDMDL
MODEL 9
REMARK VINA RESULT:      -7.6      5.924      7.893
REMARK  6 active torsions:
REMARK  status: ('A' for Active; 'I' for Inactive)
REMARK    1  A    between atoms: O1_2  and  C2_3 
REMARK    2  A    between atoms: C6_9  and  N3_10 
REMARK    3  A    between atoms: N3_10  and  C7_11 
REMARK    4  A    between atoms: C16_23  and  C18_25 
REMARK    5  A    between atoms: C18_25  and  O3_26 
REMARK    6  A    between atoms: C21_30  and  O4_31 
ROOT
HETATM    1  C2  UNL     1      22.522   4.626  50.459  1.00  0.00     0.130 C 
HETATM    2  C3  UNL     1      23.501   5.072  49.777  1.00  0.00     0.092 C 
HETATM    3  C4  UNL     1      24.774   5.490  49.257  1.00  0.00     0.056 A 
HETATM    4  N1  UNL     1      24.250   6.547  48.638  1.00  0.00    -0.245 NA
HETATM    5  C5  UNL     1      24.907   7.411  47.888  1.00  0.00     0.235 A 
HETATM    6  N2  UNL     1      26.210   7.135  47.785  1.00  0.00    -0.224 NA
HETATM    7  C6  UNL     1      26.748   6.062  48.413  1.00  0.00     0.139 A 
HETATM    8  C13 UNL     1      26.101   5.110  49.225  1.00  0.00     0.037 A 
HETATM    9  C14 UNL     1      27.126   4.161  49.667  1.00  0.00     0.212 C 
HETATM   10  O2  UNL     1      26.924   3.410  50.762  1.00  0.00    -0.384 OA
HETATM   11  C15 UNL     1      25.863   2.575  50.710  1.00  0.00     0.211 C 
HETATM   12  C16 UNL     1      25.544   1.774  51.910  1.00  0.00     0.195 C 
HETATM   13  C17 UNL     1      26.495   0.512  51.754  1.00  0.00     0.053 C 
HETATM   14  N4  UNL     1      24.257   1.109  51.836  1.00  0.00     0.097 N 
HETATM   15  C19 UNL     1      23.217   2.034  51.415  1.00  0.00     0.273 C 
HETATM   16  C20 UNL     1      22.888   3.137  52.344  1.00  0.00     0.065 C 
HETATM   17  C21 UNL     1      21.834   4.018  51.615  1.00  0.00     0.158 C 
HETATM   18  H20 UNL     1      24.260   0.377  51.078  1.00  0.00     0.317 HD
ENDROOT
BRANCH   7  19
HETATM   19  N3  UNL     1      28.165   5.978  48.116  1.00  0.00    -0.340 N 
HETATM   20  H6  UNL     1      28.861   5.180  48.059  1.00  0.00     0.167 HD
BRANCH  19  21
HETATM   21  C7  UNL     1      28.933   7.129  47.801  1.00  0.00     0.035 A 
HETATM   22  C8  UNL     1      29.351   7.443  46.526  1.00  0.00     0.032 A 
HETATM   23  C9  UNL     1      30.126   8.525  46.181  1.00  0.00     0.046 A 
HETATM   24  C10 UNL     1      30.541   9.395  47.164  1.00  0.00     0.138 A 
HETATM   25  F1  UNL     1      31.301  10.467  46.882  1.00  0.00    -0.204 F 
HETATM   26  C11 UNL     1      30.164   9.147  48.457  1.00  0.00     0.074 A 
HETATM   27 CL1  UNL     1      30.691  10.251  49.715  1.00  0.00    -0.081 Cl
HETATM   28  C12 UNL     1      29.396   8.056  48.727  1.00  0.00     0.056 A 
ENDBRANCH  19  21
ENDBRANCH   7  19
BRANCH   1  29
HETATM   29  O1  UNL     1      21.645   4.946  49.431  1.00  0.00    -0.378 OA
HETATM   30  C1  UNL     1      20.822   6.072  49.374  1.00  0.00     0.202 C 
ENDBRANCH   1  29
BRANCH  17  31
HETATM   31  O4  UNL     1      20.816   3.182  51.183  1.00  0.00    -0.392 OA
HETATM   32  H26 UNL     1      21.032   2.272  51.512  1.00  0.00     0.210 HD
ENDBRANCH  17  31
BRANCH  12  33
HETATM   33  C18 UNL     1      25.846   2.239  53.264  1.00  0.00     0.207 C 
BRANCH  33  34
HETATM   34  O3  UNL     1      27.189   2.607  53.454  1.00  0.00    -0.398 OA
HETATM   35  H19 UNL     1      27.266   3.552  53.250  1.00  0.00     0.209 HD
ENDBRANCH  33  34
ENDBRANCH  12  33
TORSDOF 6
ENDMDL
