MODEL 1
REMARK VINA RESULT:      -8.3      0.000      0.000
REMARK  5 active torsions:
REMARK  status: ('A' for Active; 'I' for Inactive)
REMARK    1  A    between atoms: C4_4  and  C7_7 
REMARK    2  A    between atoms: C8_8  and  N1_9 
REMARK    3  A    between atoms: N1_9  and  C9_10 
REMARK    4  A    between atoms: N2_21  and  O3_22 
REMARK    5  A    between atoms: O3_22  and  C18_23 
ROOT
HETATM    1  C1  UNL     1      23.087   0.181  52.981  1.00  0.00     0.017 C 
HETATM    2  C2  UNL     1      24.200  -0.237  53.189  1.00  0.00    -0.088 C 
HETATM    3  C3  UNL     1      25.518  -0.744  53.444  1.00  0.00     0.084 C 
HETATM    4  C4  UNL     1      26.588  -0.265  52.852  1.00  0.00     0.026 C 
HETATM    5  C5  UNL     1      27.904  -0.797  53.132  1.00  0.00    -0.077 C 
HETATM    6  C6  UNL     1      28.997  -1.246  53.361  1.00  0.00     0.018 C 
ENDROOT
BRANCH   4   7
HETATM    7  C7  UNL     1      26.458   0.820  51.900  1.00  0.00     0.038 C 
HETATM    8  C8  UNL     1      27.079   1.982  52.028  1.00  0.00     0.086 C 
BRANCH   8   9
HETATM    9  N1  UNL     1      26.993   3.091  51.129  1.00  0.00    -0.372 N 
HETATM   10  H6  UNL     1      27.552   3.908  51.491  1.00  0.00     0.161 HD
BRANCH   9  11
HETATM   11  C9  UNL     1      26.288   3.208  49.884  1.00  0.00     0.251 A 
HETATM   12  C10 UNL     1      26.463   4.531  49.231  1.00  0.00     0.051 A 
HETATM   13  C11 UNL     1      25.128   4.883  49.323  1.00  0.00     0.073 A 
HETATM   14  C15 UNL     1      27.415   5.376  48.652  1.00  0.00     0.114 A 
HETATM   15  C12 UNL     1      24.790   6.120  48.809  1.00  0.00     0.035 A 
HETATM   16  N2  UNL     1      24.902   3.626  49.955  1.00  0.00    -0.230 N 
HETATM   17  C13 UNL     1      25.720   6.966  48.234  1.00  0.00     0.042 A 
HETATM   18  C14 UNL     1      27.051   6.608  48.145  1.00  0.00     0.102 A 
HETATM   19  O2  UNL     1      27.961   7.469  47.567  1.00  0.00    -0.346 OA
HETATM   20  C17 UNL     1      29.249   6.938  47.249  1.00  0.00     0.202 C 
HETATM   21  C16 UNL     1      29.710   6.113  48.431  1.00  0.00     0.202 C 
HETATM   22  O1  UNL     1      28.760   5.044  48.548  1.00  0.00    -0.345 OA
BRANCH  16  23
HETATM   23  O3  UNL     1      23.796   3.023  50.450  1.00  0.00    -0.276 OA
BRANCH  23  24
HETATM   24  C18 UNL     1      23.076   3.811  51.316  1.00  0.00     0.197 C 
HETATM   25  C19 UNL     1      23.808   3.758  52.655  1.00  0.00     0.036 C 
ENDBRANCH  23  24
ENDBRANCH  16  23
ENDBRANCH   9  11
ENDBRANCH   8   9
ENDBRANCH   4   7
TORSDOF 5
ENDMDL
MODEL 2
REMARK VINA RESULT:      -8.0      3.347      7.868
REMARK  5 active torsions:
REMARK  status: ('A' for Active; 'I' for Inactive)
REMARK    1  A    between atoms: C4_4  and  C7_7 
REMARK    2  A    between atoms: C8_8  and  N1_9 
REMARK    3  A    between atoms: N1_9  and  C9_10 
REMARK    4  A    between atoms: N2_21  and  O3_22 
REMARK    5  A    between atoms: O3_22  and  C18_23 
ROOT
HETATM    1  C1  UNL     1      21.626   1.320  48.937  1.00  0.00     0.017 C 
HETATM    2  C2  UNL     1      22.455   2.189  48.822  1.00  0.00    -0.088 C 
HETATM    3  C3  UNL     1      23.436   3.226  48.675  1.00  0.00     0.084 C 
HETATM    4  C4  UNL     1      24.416   3.401  49.531  1.00  0.00     0.026 C 
HETATM    5  C5  UNL     1      25.389   4.456  49.354  1.00  0.00    -0.077 C 
HETATM    6  C6  UNL     1      26.194   5.339  49.208  1.00  0.00     0.018 C 
ENDROOT
BRANCH   4   7
HETATM    7  C7  UNL     1      24.533   2.524  50.678  1.00  0.00     0.038 C 
HETATM    8  C8  UNL     1      25.643   2.397  51.390  1.00  0.00     0.086 C 
BRANCH   8   9
HETATM    9  N1  UNL     1      25.826   1.551  52.529  1.00  0.00    -0.372 N 
HETATM   10  H6  UNL     1      26.151   2.111  53.360  1.00  0.00     0.161 HD
BRANCH   9  11
HETATM   11  C9  UNL     1      25.630   0.135  52.658  1.00  0.00     0.251 A 
HETATM   12  C10 UNL     1      24.402  -0.222  53.414  1.00  0.00     0.051 A 
HETATM   13  C11 UNL     1      25.079  -0.834  54.453  1.00  0.00     0.073 A 
HETATM   14  C15 UNL     1      23.006  -0.137  53.386  1.00  0.00     0.114 A 
HETATM   15  C12 UNL     1      24.295  -1.355  55.465  1.00  0.00     0.035 A 
HETATM   16  N2  UNL     1      26.289  -0.516  53.773  1.00  0.00    -0.230 N 
HETATM   17  C13 UNL     1      22.914  -1.278  55.450  1.00  0.00     0.042 A 
HETATM   18  C14 UNL     1      22.245  -0.666  54.409  1.00  0.00     0.102 A 
HETATM   19  O2  UNL     1      20.867  -0.601  54.417  1.00  0.00    -0.346 OA
HETATM   20  C17 UNL     1      20.226  -0.218  53.199  1.00  0.00     0.202 C 
HETATM   21  C16 UNL     1      20.986   0.962  52.631  1.00  0.00     0.202 C 
HETATM   22  O1  UNL     1      22.305   0.472  52.353  1.00  0.00    -0.345 OA
BRANCH  16  23
HETATM   23  O3  UNL     1      27.595  -0.737  54.052  1.00  0.00    -0.276 OA
BRANCH  23  24
HETATM   24  C18 UNL     1      28.194   0.285  54.747  1.00  0.00     0.197 C 
HETATM   25  C19 UNL     1      29.433   0.682  53.947  1.00  0.00     0.036 C 
ENDBRANCH  23  24
ENDBRANCH  16  23
ENDBRANCH   9  11
ENDBRANCH   8   9
ENDBRANCH   4   7
TORSDOF 5
ENDMDL
MODEL 3
REMARK VINA RESULT:      -7.9      2.413      6.889
REMARK  5 active torsions:
REMARK  status: ('A' for Active; 'I' for Inactive)
REMARK    1  A    between atoms: C4_4  and  C7_7 
REMARK    2  A    between atoms: C8_8  and  N1_9 
REMARK    3  A    between atoms: N1_9  and  C9_10 
REMARK    4  A    between atoms: N2_21  and  O3_22 
REMARK    5  A    between atoms: O3_22  and  C18_23 
ROOT
HETATM    1  C1  UNL     1      23.740   7.553  48.514  1.00  0.00     0.017 C 
HETATM    2  C2  UNL     1      24.912   7.309  48.364  1.00  0.00    -0.088 C 
HETATM    3  C3  UNL     1      26.308   7.031  48.181  1.00  0.00     0.084 C 
HETATM    4  C4  UNL     1      26.856   5.890  48.532  1.00  0.00     0.026 C 
HETATM    5  C5  UNL     1      28.266   5.640  48.333  1.00  0.00    -0.077 C 
HETATM    6  C6  UNL     1      29.442   5.437  48.173  1.00  0.00     0.018 C 
ENDROOT
BRANCH   4   7
HETATM    7  C7  UNL     1      26.037   4.854  49.129  1.00  0.00     0.038 C 
HETATM    8  C8  UNL     1      26.530   3.858  49.848  1.00  0.00     0.086 C 
BRANCH   8   9
HETATM    9  N1  UNL     1      25.781   2.805  50.463  1.00  0.00    -0.372 N 
HETATM   10  H6  UNL     1      25.768   1.949  49.849  1.00  0.00     0.161 HD
BRANCH   9  11
HETATM   11  C9  UNL     1      25.099   2.785  51.726  1.00  0.00     0.251 A 
HETATM   12  C10 UNL     1      25.530   1.671  52.609  1.00  0.00     0.051 A 
HETATM   13  C11 UNL     1      24.296   1.047  52.620  1.00  0.00     0.073 A 
HETATM   14  C15 UNL     1      26.626   1.159  53.311  1.00  0.00     0.114 A 
HETATM   15  C12 UNL     1      24.208  -0.114  53.364  1.00  0.00     0.035 A 
HETATM   16  N2  UNL     1      23.827   2.091  51.770  1.00  0.00    -0.230 N 
HETATM   17  C13 UNL     1      25.284  -0.632  54.062  1.00  0.00     0.042 A 
HETATM   18  C14 UNL     1      26.513  -0.003  54.047  1.00  0.00     0.102 A 
HETATM   19  O2  UNL     1      27.571  -0.539  54.752  1.00  0.00    -0.346 OA
HETATM   20  C17 UNL     1      28.721   0.289  54.931  1.00  0.00     0.202 C 
HETATM   21  C16 UNL     1      29.020   0.954  53.604  1.00  0.00     0.202 C 
HETATM   22  O1  UNL     1      27.875   1.768  53.315  1.00  0.00    -0.345 OA
BRANCH  16  23
HETATM   23  O3  UNL     1      22.628   2.355  51.201  1.00  0.00    -0.276 OA
BRANCH  23  24
HETATM   24  C18 UNL     1      22.378   1.619  50.068  1.00  0.00     0.197 C 
HETATM   25  C19 UNL     1      21.292   0.613  50.440  1.00  0.00     0.036 C 
ENDBRANCH  23  24
ENDBRANCH  16  23
ENDBRANCH   9  11
ENDBRANCH   8   9
ENDBRANCH   4   7
TORSDOF 5
ENDMDL
MODEL 4
REMARK VINA RESULT:      -7.8      1.115      2.382
REMARK  5 active torsions:
REMARK  status: ('A' for Active; 'I' for Inactive)
REMARK    1  A    between atoms: C4_4  and  C7_7 
REMARK    2  A    between atoms: C8_8  and  N1_9 
REMARK    3  A    between atoms: N1_9  and  C9_10 
REMARK    4  A    between atoms: N2_21  and  O3_22 
REMARK    5  A    between atoms: O3_22  and  C18_23 
ROOT
HETATM    1  C1  UNL     1      29.356  -0.059  53.445  1.00  0.00     0.017 C 
HETATM    2  C2  UNL     1      28.155  -0.145  53.535  1.00  0.00    -0.088 C 
HETATM    3  C3  UNL     1      26.730  -0.255  53.654  1.00  0.00     0.084 C 
HETATM    4  C4  UNL     1      25.901   0.376  52.854  1.00  0.00     0.026 C 
HETATM    5  C5  UNL     1      24.468   0.243  53.000  1.00  0.00    -0.077 C 
HETATM    6  C6  UNL     1      23.276   0.137  53.127  1.00  0.00     0.018 C 
ENDROOT
BRANCH   4   7
HETATM    7  C7  UNL     1      26.425   1.223  51.801  1.00  0.00     0.038 C 
HETATM    8  C8  UNL     1      26.304   2.541  51.798  1.00  0.00     0.086 C 
BRANCH   8   9
HETATM    9  N1  UNL     1      26.795   3.434  50.793  1.00  0.00    -0.372 N 
HETATM   10  H6  UNL     1      27.675   3.912  51.118  1.00  0.00     0.161 HD
BRANCH   9  11
HETATM   11  C9  UNL     1      26.264   3.727  49.492  1.00  0.00     0.251 A 
HETATM   12  C10 UNL     1      26.786   4.993  48.916  1.00  0.00     0.051 A 
HETATM   13  C11 UNL     1      25.557   5.626  48.893  1.00  0.00     0.073 A 
HETATM   14  C15 UNL     1      27.953   5.621  48.468  1.00  0.00     0.114 A 
HETATM   15  C12 UNL     1      25.548   6.918  48.402  1.00  0.00     0.035 A 
HETATM   16  N2  UNL     1      25.001   4.437  49.446  1.00  0.00    -0.230 N 
HETATM   17  C13 UNL     1      26.693   7.551  47.956  1.00  0.00     0.042 A 
HETATM   18  C14 UNL     1      27.918   6.913  47.982  1.00  0.00     0.102 A 
HETATM   19  O2  UNL     1      29.046   7.566  47.531  1.00  0.00    -0.346 OA
HETATM   20  C17 UNL     1      30.216   6.773  47.318  1.00  0.00     0.202 C 
HETATM   21  C16 UNL     1      30.363   5.843  48.503  1.00  0.00     0.202 C 
HETATM   22  O1  UNL     1      29.198   5.006  48.481  1.00  0.00    -0.345 OA
BRANCH  16  23
HETATM   23  O3  UNL     1      23.746   4.080  49.806  1.00  0.00    -0.276 OA
BRANCH  23  24
HETATM   24  C18 UNL     1      23.175   3.148  48.973  1.00  0.00     0.197 C 
HETATM   25  C19 UNL     1      22.867   1.929  49.840  1.00  0.00     0.036 C 
ENDBRANCH  23  24
ENDBRANCH  16  23
ENDBRANCH   9  11
ENDBRANCH   8   9
ENDBRANCH   4   7
TORSDOF 5
ENDMDL
MODEL 5
REMARK VINA RESULT:      -7.8      2.541      7.257
REMARK  5 active torsions:
REMARK  status: ('A' for Active; 'I' for Inactive)
REMARK    1  A    between atoms: C4_4  and  C7_7 
REMARK    2  A    between atoms: C8_8  and  N1_9 
REMARK    3  A    between atoms: N1_9  and  C9_10 
REMARK    4  A    between atoms: N2_21  and  O3_22 
REMARK    5  A    between atoms: O3_22  and  C18_23 
ROOT
HETATM    1  C1  UNL     1      29.035   5.518  48.307  1.00  0.00     0.017 C 
HETATM    2  C2  UNL     1      27.952   6.049  48.268  1.00  0.00    -0.088 C 
HETATM    3  C3  UNL     1      26.671   6.691  48.213  1.00  0.00     0.084 C 
HETATM    4  C4  UNL     1      25.589   6.158  48.734  1.00  0.00     0.026 C 
HETATM    5  C5  UNL     1      24.311   6.831  48.664  1.00  0.00    -0.077 C 
HETATM    6  C6  UNL     1      23.246   7.390  48.598  1.00  0.00     0.018 C 
ENDROOT
BRANCH   4   7
HETATM    7  C7  UNL     1      25.669   4.872  49.396  1.00  0.00     0.038 C 
HETATM    8  C8  UNL     1      25.139   4.629  50.585  1.00  0.00     0.086 C 
BRANCH   8   9
HETATM    9  N1  UNL     1      25.183   3.386  51.293  1.00  0.00    -0.372 N 
HETATM   10  H6  UNL     1      25.759   2.678  50.768  1.00  0.00     0.161 HD
BRANCH   9  11
HETATM   11  C9  UNL     1      24.577   3.025  52.544  1.00  0.00     0.251 A 
HETATM   12  C10 UNL     1      25.185   1.819  53.164  1.00  0.00     0.051 A 
HETATM   13  C11 UNL     1      24.036   1.054  53.081  1.00  0.00     0.073 A 
HETATM   14  C15 UNL     1      26.371   1.320  53.713  1.00  0.00     0.114 A 
HETATM   15  C12 UNL     1      24.128  -0.235  53.570  1.00  0.00     0.035 A 
HETATM   16  N2  UNL     1      23.402   2.179  52.480  1.00  0.00    -0.230 N 
HETATM   17  C13 UNL     1      25.294  -0.742  54.115  1.00  0.00     0.042 A 
HETATM   18  C14 UNL     1      26.438   0.029  54.195  1.00  0.00     0.102 A 
HETATM   19  O2  UNL     1      27.588  -0.499  54.743  1.00  0.00    -0.346 OA
HETATM   20  C17 UNL     1      28.640   0.416  55.057  1.00  0.00     0.202 C 
HETATM   21  C16 UNL     1      28.785   1.368  53.888  1.00  0.00     0.202 C 
HETATM   22  O1  UNL     1      27.537   2.070  53.807  1.00  0.00    -0.345 OA
BRANCH  16  23
HETATM   23  O3  UNL     1      22.151   2.398  52.012  1.00  0.00    -0.276 OA
BRANCH  23  24
HETATM   24  C18 UNL     1      21.974   2.018  50.704  1.00  0.00     0.197 C 
HETATM   25  C19 UNL     1      21.333   0.633  50.741  1.00  0.00     0.036 C 
ENDBRANCH  23  24
ENDBRANCH  16  23
ENDBRANCH   9  11
ENDBRANCH   8   9
ENDBRANCH   4   7
TORSDOF 5
ENDMDL
MODEL 6
REMARK VINA RESULT:      -7.4      2.911      8.246
REMARK  5 active torsions:
REMARK  status: ('A' for Active; 'I' for Inactive)
REMARK    1  A    between atoms: C4_4  and  C7_7 
REMARK    2  A    between atoms: C8_8  and  N1_9 
REMARK    3  A    between atoms: N1_9  and  C9_10 
REMARK    4  A    between atoms: N2_21  and  O3_22 
REMARK    5  A    between atoms: O3_22  and  C18_23 
ROOT
HETATM    1  C1  UNL     1      22.119   6.662  50.821  1.00  0.00     0.017 C 
HETATM    2  C2  UNL     1      23.165   6.430  50.266  1.00  0.00    -0.088 C 
HETATM    3  C3  UNL     1      24.406   6.165  49.597  1.00  0.00     0.084 C 
HETATM    4  C4  UNL     1      25.194   5.169  49.934  1.00  0.00     0.026 C 
HETATM    5  C5  UNL     1      26.439   4.928  49.239  1.00  0.00    -0.077 C 
HETATM    6  C6  UNL     1      27.479   4.733  48.665  1.00  0.00     0.018 C 
ENDROOT
BRANCH   4   7
HETATM    7  C7  UNL     1      24.814   4.289  51.020  1.00  0.00     0.038 C 
HETATM    8  C8  UNL     1      24.867   2.968  50.942  1.00  0.00     0.086 C 
BRANCH   8   9
HETATM    9  N1  UNL     1      24.508   2.043  51.972  1.00  0.00    -0.372 N 
HETATM   10  H6  UNL     1      23.868   2.498  52.675  1.00  0.00     0.161 HD
BRANCH   9  11
HETATM   11  C9  UNL     1      24.889   0.670  52.143  1.00  0.00     0.251 A 
HETATM   12  C10 UNL     1      24.099  -0.035  53.186  1.00  0.00     0.051 A 
HETATM   13  C11 UNL     1      25.181  -0.263  54.017  1.00  0.00     0.073 A 
HETATM   14  C15 UNL     1      22.808  -0.460  53.515  1.00  0.00     0.114 A 
HETATM   15  C12 UNL     1      24.912  -0.936  55.193  1.00  0.00     0.035 A 
HETATM   16  N2  UNL     1      25.988   0.405  53.050  1.00  0.00    -0.230 N 
HETATM   17  C13 UNL     1      23.641  -1.362  55.531  1.00  0.00     0.042 A 
HETATM   18  C14 UNL     1      22.565  -1.131  54.696  1.00  0.00     0.102 A 
HETATM   19  O2  UNL     1      21.307  -1.566  55.056  1.00  0.00    -0.346 OA
HETATM   20  C17 UNL     1      20.299  -1.553  54.043  1.00  0.00     0.202 C 
HETATM   21  C16 UNL     1      20.407  -0.237  53.304  1.00  0.00     0.202 C 
HETATM   22  O1  UNL     1      21.707  -0.243  52.697  1.00  0.00    -0.345 OA
BRANCH  16  23
HETATM   23  O3  UNL     1      27.308   0.696  52.986  1.00  0.00    -0.276 OA
BRANCH  23  24
HETATM   24  C18 UNL     1      28.125  -0.393  53.175  1.00  0.00     0.197 C 
HETATM   25  C19 UNL     1      28.923  -0.116  54.446  1.00  0.00     0.036 C 
ENDBRANCH  23  24
ENDBRANCH  16  23
ENDBRANCH   9  11
ENDBRANCH   8   9
ENDBRANCH   4   7
TORSDOF 5
ENDMDL
MODEL 7
REMARK VINA RESULT:      -7.2      3.328      7.117
REMARK  5 active torsions:
REMARK  status: ('A' for Active; 'I' for Inactive)
REMARK    1  A    between atoms: C4_4  and  C7_7 
REMARK    2  A    between atoms: C8_8  and  N1_9 
REMARK    3  A    between atoms: N1_9  and  C9_10 
REMARK    4  A    between atoms: N2_21  and  O3_22 
REMARK    5  A    between atoms: O3_22  and  C18_23 
ROOT
HETATM    1  C1  UNL     1      21.965   3.493  46.889  1.00  0.00     0.017 C 
HETATM    2  C2  UNL     1      22.286   4.550  47.375  1.00  0.00    -0.088 C 
HETATM    3  C3  UNL     1      22.662   5.813  47.943  1.00  0.00     0.084 C 
HETATM    4  C4  UNL     1      23.291   5.915  49.092  1.00  0.00     0.026 C 
HETATM    5  C5  UNL     1      23.656   7.203  49.637  1.00  0.00    -0.077 C 
HETATM    6  C6  UNL     1      23.954   8.277  50.093  1.00  0.00     0.018 C 
ENDROOT
BRANCH   4   7
HETATM    7  C7  UNL     1      23.631   4.716  49.833  1.00  0.00     0.038 C 
HETATM    8  C8  UNL     1      24.571   4.677  50.763  1.00  0.00     0.086 C 
BRANCH   8   9
HETATM    9  N1  UNL     1      24.956   3.532  51.530  1.00  0.00    -0.372 N 
HETATM   10  H6  UNL     1      25.759   3.027  51.069  1.00  0.00     0.161 HD
BRANCH   9  11
HETATM   11  C9  UNL     1      24.415   3.031  52.762  1.00  0.00     0.251 A 
HETATM   12  C10 UNL     1      25.124   1.827  53.269  1.00  0.00     0.051 A 
HETATM   13  C11 UNL     1      24.030   0.990  53.153  1.00  0.00     0.073 A 
HETATM   14  C15 UNL     1      26.358   1.374  53.747  1.00  0.00     0.114 A 
HETATM   15  C12 UNL     1      24.226  -0.323  53.536  1.00  0.00     0.035 A 
HETATM   16  N2  UNL     1      23.300   2.110  52.659  1.00  0.00    -0.230 N 
HETATM   17  C13 UNL     1      25.440  -0.785  54.009  1.00  0.00     0.042 A 
HETATM   18  C14 UNL     1      26.529   0.057  54.123  1.00  0.00     0.102 A 
HETATM   19  O2  UNL     1      27.730  -0.428  54.599  1.00  0.00    -0.346 OA
HETATM   20  C17 UNL     1      28.723   0.533  54.959  1.00  0.00     0.202 C 
HETATM   21  C16 UNL     1      28.767   1.581  53.867  1.00  0.00     0.202 C 
HETATM   22  O1  UNL     1      27.471   2.196  53.873  1.00  0.00    -0.345 OA
BRANCH  16  23
HETATM   23  O3  UNL     1      22.024   2.274  52.241  1.00  0.00    -0.276 OA
BRANCH  23  24
HETATM   24  C18 UNL     1      21.536   1.212  51.520  1.00  0.00     0.197 C 
HETATM   25  C19 UNL     1      21.990   1.426  50.078  1.00  0.00     0.036 C 
ENDBRANCH  23  24
ENDBRANCH  16  23
ENDBRANCH   9  11
ENDBRANCH   8   9
ENDBRANCH   4   7
TORSDOF 5
ENDMDL
MODEL 8
REMARK VINA RESULT:      -7.2      2.186      5.727
REMARK  5 active torsions:
REMARK  status: ('A' for Active; 'I' for Inactive)
REMARK    1  A    between atoms: C4_4  and  C7_7 
REMARK    2  A    between atoms: C8_8  and  N1_9 
REMARK    3  A    between atoms: N1_9  and  C9_10 
REMARK    4  A    between atoms: N2_21  and  O3_22 
REMARK    5  A    between atoms: O3_22  and  C18_23 
ROOT
HETATM    1  C1  UNL     1      28.164  -0.556  53.146  1.00  0.00     0.017 C 
HETATM    2  C2  UNL     1      26.980  -0.734  53.297  1.00  0.00    -0.088 C 
HETATM    3  C3  UNL     1      25.575  -0.957  53.483  1.00  0.00     0.084 C 
HETATM    4  C4  UNL     1      24.664  -0.085  53.115  1.00  0.00     0.026 C 
HETATM    5  C5  UNL     1      23.255  -0.340  53.316  1.00  0.00    -0.077 C 
HETATM    6  C6  UNL     1      22.082  -0.551  53.490  1.00  0.00     0.018 C 
ENDROOT
BRANCH   4   7
HETATM    7  C7  UNL     1      25.071   1.159  52.494  1.00  0.00     0.038 C 
HETATM    8  C8  UNL     1      24.554   2.336  52.810  1.00  0.00     0.086 C 
BRANCH   8   9
HETATM    9  N1  UNL     1      24.908   3.598  52.238  1.00  0.00    -0.372 N 
HETATM   10  H6  UNL     1      25.654   4.072  52.811  1.00  0.00     0.161 HD
BRANCH   9  11
HETATM   11  C9  UNL     1      24.401   4.243  51.059  1.00  0.00     0.251 A 
HETATM   12  C10 UNL     1      23.187   3.586  50.506  1.00  0.00     0.051 A 
HETATM   13  C11 UNL     1      23.786   3.222  49.313  1.00  0.00     0.073 A 
HETATM   14  C15 UNL     1      21.852   3.282  50.789  1.00  0.00     0.114 A 
HETATM   15  C12 UNL     1      22.987   2.540  48.416  1.00  0.00     0.035 A 
HETATM   16  N2  UNL     1      24.978   3.837  49.793  1.00  0.00    -0.230 N 
HETATM   17  C13 UNL     1      21.665   2.233  48.683  1.00  0.00     0.042 A 
HETATM   18  C14 UNL     1      21.074   2.599  49.876  1.00  0.00     0.102 A 
HETATM   19  O2  UNL     1      19.754   2.281  50.118  1.00  0.00    -0.346 OA
HETATM   20  C17 UNL     1      19.123   2.922  51.228  1.00  0.00     0.202 C 
HETATM   21  C16 UNL     1      20.087   2.876  52.395  1.00  0.00     0.202 C 
HETATM   22  O1  UNL     1      21.230   3.637  51.979  1.00  0.00    -0.345 OA
BRANCH  16  23
HETATM   23  O3  UNL     1      26.216   3.996  49.268  1.00  0.00    -0.276 OA
BRANCH  23  24
HETATM   24  C18 UNL     1      26.513   5.294  48.932  1.00  0.00     0.197 C 
HETATM   25  C19 UNL     1      27.971   5.299  48.481  1.00  0.00     0.036 C 
ENDBRANCH  23  24
ENDBRANCH  16  23
ENDBRANCH   9  11
ENDBRANCH   8   9
ENDBRANCH   4   7
TORSDOF 5
ENDMDL
MODEL 9
REMARK VINA RESULT:      -7.1      2.422      5.583
REMARK  5 active torsions:
REMARK  status: ('A' for Active; 'I' for Inactive)
REMARK    1  A    between atoms: C4_4  and  C7_7 
REMARK    2  A    between atoms: C8_8  and  N1_9 
REMARK    3  A    between atoms: N1_9  and  C9_10 
REMARK    4  A    between atoms: N2_21  and  O3_22 
REMARK    5  A    between atoms: O3_22  and  C18_23 
ROOT
HETATM    1  C1  UNL     1      21.222  -0.315  54.565  1.00  0.00     0.017 C 
HETATM    2  C2  UNL     1      22.335  -0.443  54.118  1.00  0.00    -0.088 C 
HETATM    3  C3  UNL     1      23.658  -0.609  53.588  1.00  0.00     0.084 C 
HETATM    4  C4  UNL     1      24.342   0.383  53.065  1.00  0.00     0.026 C 
HETATM    5  C5  UNL     1      25.675   0.183  52.540  1.00  0.00    -0.077 C 
HETATM    6  C6  UNL     1      26.781   0.013  52.097  1.00  0.00     0.018 C 
ENDROOT
BRANCH   4   7
HETATM    7  C7  UNL     1      23.757   1.708  53.011  1.00  0.00     0.038 C 
HETATM    8  C8  UNL     1      24.471   2.815  52.880  1.00  0.00     0.086 C 
BRANCH   8   9
HETATM    9  N1  UNL     1      23.959   4.150  52.820  1.00  0.00    -0.372 N 
HETATM   10  H6  UNL     1      23.962   4.593  53.776  1.00  0.00     0.161 HD
BRANCH   9  11
HETATM   11  C9  UNL     1      23.481   4.897  51.691  1.00  0.00     0.251 A 
HETATM   12  C10 UNL     1      22.523   4.136  50.846  1.00  0.00     0.051 A 
HETATM   13  C11 UNL     1      23.337   4.128  49.728  1.00  0.00     0.073 A 
HETATM   14  C15 UNL     1      21.262   3.533  50.851  1.00  0.00     0.114 A 
HETATM   15  C12 UNL     1      22.830   3.488  48.613  1.00  0.00     0.035 A 
HETATM   16  N2  UNL     1      24.293   4.858  50.491  1.00  0.00    -0.230 N 
HETATM   17  C13 UNL     1      21.584   2.887  48.603  1.00  0.00     0.042 A 
HETATM   18  C14 UNL     1      20.777   2.900  49.724  1.00  0.00     0.102 A 
HETATM   19  O2  UNL     1      19.539   2.294  49.690  1.00  0.00    -0.346 OA
HETATM   20  C17 UNL     1      18.644   2.579  50.766  1.00  0.00     0.202 C 
HETATM   21  C16 UNL     1      19.435   2.498  52.055  1.00  0.00     0.202 C 
HETATM   22  O1  UNL     1      20.427   3.529  51.962  1.00  0.00    -0.345 OA
BRANCH  16  23
HETATM   23  O3  UNL     1      25.523   5.348  50.212  1.00  0.00    -0.276 OA
BRANCH  23  24
HETATM   24  C18 UNL     1      26.258   4.552  49.367  1.00  0.00     0.197 C 
HETATM   25  C19 UNL     1      26.650   3.316  50.173  1.00  0.00     0.036 C 
ENDBRANCH  23  24
ENDBRANCH  16  23
ENDBRANCH   9  11
ENDBRANCH   8   9
ENDBRANCH   4   7
TORSDOF 5
ENDMDL
