MODEL 1
REMARK VINA RESULT:      -7.3      0.000      0.000
REMARK  8 active torsions:
REMARK  status: ('A' for Active; 'I' for Inactive)
REMARK    1  A    between atoms: S1_2  and  C1_4 
REMARK    2  A    between atoms: S1_2  and  C3_7 
REMARK    3  A    between atoms: C1_4  and  C2_5 
REMARK    4  A    between atoms: C2_5  and  O3_6 
REMARK    5  A    between atoms: C6_10  and  N1_11 
REMARK    6  A    between atoms: N1_11  and  C7_12 
REMARK    7  A    between atoms: C8_13  and  C9_14 
REMARK    8  A    between atoms: C10_15  and  C11_16 
ROOT
HETATM    1  C3  UNL     1      25.582  -0.362  54.283  1.00  0.00     0.151 A 
HETATM    2  C4  UNL     1      24.543  -0.063  53.413  1.00  0.00     0.061 A 
HETATM    3  C5  UNL     1      23.223  -0.400  53.608  1.00  0.00     0.043 A 
HETATM    4  C6  UNL     1      22.147  -0.144  52.783  1.00  0.00     0.141 A 
HETATM    5  N2  UNL     1      20.924  -0.560  53.126  1.00  0.00    -0.224 NA
HETATM    6  C12 UNL     1      20.639  -1.231  54.247  1.00  0.00     0.236 A 
HETATM    7  N3  UNL     1      21.675  -1.476  55.039  1.00  0.00    -0.240 NA
HETATM    8  C13 UNL     1      22.901  -1.092  54.756  1.00  0.00     0.089 A 
HETATM    9  C14 UNL     1      23.929  -1.390  55.622  1.00  0.00     0.150 A 
HETATM   10  N4  UNL     1      25.186  -1.035  55.375  1.00  0.00    -0.247 NA
ENDROOT
BRANCH   4  11
HETATM   11  N1  UNL     1      22.411   0.572  51.586  1.00  0.00    -0.350 N 
HETATM   12  H7  UNL     1      22.523   1.160  50.758  1.00  0.00     0.166 HD
BRANCH  11  13
HETATM   13  C7  UNL     1      21.465   1.643  51.884  1.00  0.00     0.090 C 
HETATM   14  C8  UNL     1      21.760   2.918  52.220  1.00  0.00     0.017 C 
BRANCH  14  15
HETATM   15  C9  UNL     1      22.938   3.722  52.417  1.00  0.00    -0.000 C 
HETATM   16  C10 UNL     1      24.146   3.921  51.934  1.00  0.00     0.004 C 
BRANCH  16  17
HETATM   17  C11 UNL     1      24.964   3.366  50.845  1.00  0.00     0.249 C 
HETATM   18  F1  UNL     1      25.158   1.999  51.006  1.00  0.00    -0.251 F 
ENDBRANCH  16  17
ENDBRANCH  14  15
ENDBRANCH  11  13
ENDBRANCH   4  11
BRANCH   1  19
HETATM   19  S1  UNL     1      27.221   0.104  53.916  1.00  0.00     0.194 S 
HETATM   20  O1  UNL     1      27.721  -0.614  52.691  1.00  0.00    -0.221 OA
HETATM   21  O2  UNL     1      28.088  -0.224  55.116  1.00  0.00    -0.221 OA
BRANCH  19  22
HETATM   22  C1  UNL     1      27.272   1.841  53.647  1.00  0.00     0.173 C 
BRANCH  22  23
HETATM   23  C2  UNL     1      28.618   2.455  53.539  1.00  0.00     0.179 C 
BRANCH  23  24
HETATM   24  O3  UNL     1      29.453   2.342  54.618  1.00  0.00    -0.400 OA
HETATM   25  H5  UNL     1      28.978   2.189  55.481  1.00  0.00     0.209 HD
ENDBRANCH  23  24
ENDBRANCH  22  23
ENDBRANCH  19  22
ENDBRANCH   1  19
TORSDOF 8
ENDMDL
MODEL 2
REMARK VINA RESULT:      -7.2      1.806      2.170
REMARK  8 active torsions:
REMARK  status: ('A' for Active; 'I' for Inactive)
REMARK    1  A    between atoms: S1_2  and  C1_4 
REMARK    2  A    between atoms: S1_2  and  C3_7 
REMARK    3  A    between atoms: C1_4  and  C2_5 
REMARK    4  A    between atoms: C2_5  and  O3_6 
REMARK    5  A    between atoms: C6_10  and  N1_11 
REMARK    6  A    between atoms: N1_11  and  C7_12 
REMARK    7  A    between atoms: C8_13  and  C9_14 
REMARK    8  A    between atoms: C10_15  and  C11_16 
ROOT
HETATM    1  C3  UNL     1      25.757  -0.154  54.203  1.00  0.00     0.151 A 
HETATM    2  C4  UNL     1      24.695   0.239  53.400  1.00  0.00     0.061 A 
HETATM    3  C5  UNL     1      23.382  -0.133  53.583  1.00  0.00     0.043 A 
HETATM    4  C6  UNL     1      22.285   0.211  52.821  1.00  0.00     0.141 A 
HETATM    5  N2  UNL     1      21.074  -0.257  53.137  1.00  0.00    -0.224 NA
HETATM    6  C12 UNL     1      20.821  -1.064  54.174  1.00  0.00     0.236 A 
HETATM    7  N3  UNL     1      21.877  -1.393  54.905  1.00  0.00    -0.240 NA
HETATM    8  C13 UNL     1      23.093  -0.964  54.644  1.00  0.00     0.089 A 
HETATM    9  C14 UNL     1      24.144  -1.356  55.442  1.00  0.00     0.150 A 
HETATM   10  N4  UNL     1      25.393  -0.960  55.213  1.00  0.00    -0.247 NA
ENDROOT
BRANCH   4  11
HETATM   11  N1  UNL     1      22.515   1.072  51.715  1.00  0.00    -0.350 N 
HETATM   12  H7  UNL     1      22.599   1.636  50.868  1.00  0.00     0.166 HD
BRANCH  11  13
HETATM   13  C7  UNL     1      21.438   0.508  50.907  1.00  0.00     0.090 C 
HETATM   14  C8  UNL     1      21.213   0.721  49.592  1.00  0.00     0.017 C 
BRANCH  14  15
HETATM   15  C9  UNL     1      21.809   1.471  48.517  1.00  0.00    -0.000 C 
HETATM   16  C10 UNL     1      22.626   2.477  48.287  1.00  0.00     0.004 C 
BRANCH  16  17
HETATM   17  C11 UNL     1      23.412   3.420  49.098  1.00  0.00     0.249 C 
HETATM   18  F1  UNL     1      24.498   2.789  49.693  1.00  0.00    -0.251 F 
ENDBRANCH  16  17
ENDBRANCH  14  15
ENDBRANCH  11  13
ENDBRANCH   4  11
BRANCH   1  19
HETATM   19  S1  UNL     1      27.383   0.371  53.858  1.00  0.00     0.194 S 
HETATM   20  O1  UNL     1      27.984   1.067  55.050  1.00  0.00    -0.221 OA
HETATM   21  O2  UNL     1      27.337   1.303  52.663  1.00  0.00    -0.221 OA
BRANCH  19  22
HETATM   22  C1  UNL     1      28.356  -1.032  53.437  1.00  0.00     0.173 C 
BRANCH  22  23
HETATM   23  C2  UNL     1      29.828  -0.851  53.472  1.00  0.00     0.179 C 
BRANCH  23  24
HETATM   24  O3  UNL     1      30.311   0.426  53.363  1.00  0.00    -0.400 OA
HETATM   25  H5  UNL     1      30.932   0.686  54.098  1.00  0.00     0.209 HD
ENDBRANCH  23  24
ENDBRANCH  22  23
ENDBRANCH  19  22
ENDBRANCH   1  19
TORSDOF 8
ENDMDL
MODEL 3
REMARK VINA RESULT:      -7.1      1.395      1.889
REMARK  8 active torsions:
REMARK  status: ('A' for Active; 'I' for Inactive)
REMARK    1  A    between atoms: S1_2  and  C1_4 
REMARK    2  A    between atoms: S1_2  and  C3_7 
REMARK    3  A    between atoms: C1_4  and  C2_5 
REMARK    4  A    between atoms: C2_5  and  O3_6 
REMARK    5  A    between atoms: C6_10  and  N1_11 
REMARK    6  A    between atoms: N1_11  and  C7_12 
REMARK    7  A    between atoms: C8_13  and  C9_14 
REMARK    8  A    between atoms: C10_15  and  C11_16 
ROOT
HETATM    1  C3  UNL     1      25.705   0.108  54.184  1.00  0.00     0.151 A 
HETATM    2  C4  UNL     1      24.543   0.342  53.462  1.00  0.00     0.061 A 
HETATM    3  C5  UNL     1      23.320  -0.235  53.717  1.00  0.00     0.043 A 
HETATM    4  C6  UNL     1      22.134  -0.055  53.035  1.00  0.00     0.141 A 
HETATM    5  N2  UNL     1      21.035  -0.713  53.415  1.00  0.00    -0.224 NA
HETATM    6  C12 UNL     1      20.981  -1.567  54.443  1.00  0.00     0.236 A 
HETATM    7  N3  UNL     1      22.122  -1.739  55.096  1.00  0.00    -0.240 NA
HETATM    8  C13 UNL     1      23.236  -1.120  54.770  1.00  0.00     0.089 A 
HETATM    9  C14 UNL     1      24.386  -1.355  55.490  1.00  0.00     0.150 A 
HETATM   10  N4  UNL     1      25.540  -0.763  55.192  1.00  0.00    -0.247 NA
ENDROOT
BRANCH   4  11
HETATM   11  N1  UNL     1      22.153   0.851  51.942  1.00  0.00    -0.350 N 
HETATM   12  H7  UNL     1      22.066   1.538  51.192  1.00  0.00     0.166 HD
BRANCH  11  13
HETATM   13  C7  UNL     1      20.888   1.485  52.299  1.00  0.00     0.090 C 
HETATM   14  C8  UNL     1      20.633   2.811  52.363  1.00  0.00     0.017 C 
BRANCH  14  15
HETATM   15  C9  UNL     1      21.345   4.044  52.149  1.00  0.00    -0.000 C 
HETATM   16  C10 UNL     1      22.564   4.538  52.099  1.00  0.00     0.004 C 
BRANCH  16  17
HETATM   17  C11 UNL     1      23.933   4.020  52.249  1.00  0.00     0.249 C 
HETATM   18  F1  UNL     1      24.133   3.486  53.517  1.00  0.00    -0.251 F 
ENDBRANCH  16  17
ENDBRANCH  14  15
ENDBRANCH  11  13
ENDBRANCH   4  11
BRANCH   1  19
HETATM   19  S1  UNL     1      27.203   0.888  53.752  1.00  0.00     0.194 S 
HETATM   20  O1  UNL     1      27.164   2.352  54.103  1.00  0.00    -0.221 OA
HETATM   21  O2  UNL     1      27.422   0.703  52.263  1.00  0.00    -0.221 OA
BRANCH  19  22
HETATM   22  C1  UNL     1      28.521   0.106  54.613  1.00  0.00     0.173 C 
BRANCH  22  23
HETATM   23  C2  UNL     1      29.291  -0.915  53.861  1.00  0.00     0.179 C 
BRANCH  23  24
HETATM   24  O3  UNL     1      28.592  -1.963  53.324  1.00  0.00    -0.400 OA
HETATM   25  H5  UNL     1      27.909  -1.690  52.651  1.00  0.00     0.209 HD
ENDBRANCH  23  24
ENDBRANCH  22  23
ENDBRANCH  19  22
ENDBRANCH   1  19
TORSDOF 8
ENDMDL
MODEL 4
REMARK VINA RESULT:      -7.0      2.355      4.252
REMARK  8 active torsions:
REMARK  status: ('A' for Active; 'I' for Inactive)
REMARK    1  A    between atoms: S1_2  and  C1_4 
REMARK    2  A    between atoms: S1_2  and  C3_7 
REMARK    3  A    between atoms: C1_4  and  C2_5 
REMARK    4  A    between atoms: C2_5  and  O3_6 
REMARK    5  A    between atoms: C6_10  and  N1_11 
REMARK    6  A    between atoms: N1_11  and  C7_12 
REMARK    7  A    between atoms: C8_13  and  C9_14 
REMARK    8  A    between atoms: C10_15  and  C11_16 
ROOT
HETATM    1  C3  UNL     1      26.140   1.182  52.616  1.00  0.00     0.151 A 
HETATM    2  C4  UNL     1      24.831   0.993  52.196  1.00  0.00     0.061 A 
HETATM    3  C5  UNL     1      24.181   1.756  51.253  1.00  0.00     0.043 A 
HETATM    4  C6  UNL     1      22.885   1.630  50.800  1.00  0.00     0.141 A 
HETATM    5  N2  UNL     1      22.409   2.475  49.881  1.00  0.00    -0.224 NA
HETATM    6  C12 UNL     1      23.111   3.476  49.338  1.00  0.00     0.236 A 
HETATM    7  N3  UNL     1      24.357   3.596  49.775  1.00  0.00    -0.240 NA
HETATM    8  C13 UNL     1      24.881   2.795  50.677  1.00  0.00     0.089 A 
HETATM    9  C14 UNL     1      26.180   2.985  51.091  1.00  0.00     0.150 A 
HETATM   10  N4  UNL     1      26.751   2.211  52.008  1.00  0.00    -0.247 NA
ENDROOT
BRANCH   4  11
HETATM   11  N1  UNL     1      22.112   0.573  51.350  1.00  0.00    -0.350 N 
HETATM   12  H7  UNL     1      21.496  -0.108  51.796  1.00  0.00     0.166 HD
BRANCH  11  13
HETATM   13  C7  UNL     1      21.183   1.461  52.042  1.00  0.00     0.090 C 
HETATM   14  C8  UNL     1      20.658   1.286  53.275  1.00  0.00     0.017 C 
BRANCH  14  15
HETATM   15  C9  UNL     1      20.735   0.318  54.338  1.00  0.00    -0.000 C 
HETATM   16  C10 UNL     1      21.544  -0.575  54.866  1.00  0.00     0.004 C 
BRANCH  16  17
HETATM   17  C11 UNL     1      22.906  -1.068  54.604  1.00  0.00     0.249 C 
HETATM   18  F1  UNL     1      23.619  -1.231  55.786  1.00  0.00    -0.251 F 
ENDBRANCH  16  17
ENDBRANCH  14  15
ENDBRANCH  11  13
ENDBRANCH   4  11
BRANCH   1  19
HETATM   19  S1  UNL     1      26.848   0.157  53.835  1.00  0.00     0.194 S 
HETATM   20  O1  UNL     1      26.353  -1.259  53.698  1.00  0.00    -0.221 OA
HETATM   21  O2  UNL     1      26.485   0.718  55.196  1.00  0.00    -0.221 OA
BRANCH  19  22
HETATM   22  C1  UNL     1      28.597   0.193  53.663  1.00  0.00     0.173 C 
BRANCH  22  23
HETATM   23  C2  UNL     1      29.313   1.265  54.398  1.00  0.00     0.179 C 
BRANCH  23  24
HETATM   24  O3  UNL     1      28.824   2.540  54.289  1.00  0.00    -0.400 OA
HETATM   25  H5  UNL     1      29.251   3.075  53.564  1.00  0.00     0.209 HD
ENDBRANCH  23  24
ENDBRANCH  22  23
ENDBRANCH  19  22
ENDBRANCH   1  19
TORSDOF 8
ENDMDL
MODEL 5
REMARK VINA RESULT:      -6.8      2.532      4.013
REMARK  8 active torsions:
REMARK  status: ('A' for Active; 'I' for Inactive)
REMARK    1  A    between atoms: S1_2  and  C1_4 
REMARK    2  A    between atoms: S1_2  and  C3_7 
REMARK    3  A    between atoms: C1_4  and  C2_5 
REMARK    4  A    between atoms: C2_5  and  O3_6 
REMARK    5  A    between atoms: C6_10  and  N1_11 
REMARK    6  A    between atoms: N1_11  and  C7_12 
REMARK    7  A    between atoms: C8_13  and  C9_14 
REMARK    8  A    between atoms: C10_15  and  C11_16 
ROOT
HETATM    1  C3  UNL     1      24.727   0.998  53.348  1.00  0.00     0.151 A 
HETATM    2  C4  UNL     1      24.470   2.344  53.127  1.00  0.00     0.061 A 
HETATM    3  C5  UNL     1      23.264   2.866  52.721  1.00  0.00     0.043 A 
HETATM    4  C6  UNL     1      22.945   4.185  52.474  1.00  0.00     0.141 A 
HETATM    5  N2  UNL     1      21.715   4.515  52.069  1.00  0.00    -0.224 NA
HETATM    6  C12 UNL     1      20.723   3.640  51.874  1.00  0.00     0.236 A 
HETATM    7  N3  UNL     1      21.031   2.372  52.111  1.00  0.00    -0.240 NA
HETATM    8  C13 UNL     1      22.223   1.986  52.512  1.00  0.00     0.089 A 
HETATM    9  C14 UNL     1      22.473   0.650  52.730  1.00  0.00     0.150 A 
HETATM   10  N4  UNL     1      23.664   0.209  53.124  1.00  0.00    -0.247 NA
ENDROOT
BRANCH   4  11
HETATM   11  N1  UNL     1      23.973   5.143  52.678  1.00  0.00    -0.350 N 
HETATM   12  H7  UNL     1      24.703   5.857  52.716  1.00  0.00     0.166 HD
BRANCH  11  13
HETATM   13  C7  UNL     1      23.935   5.643  51.307  1.00  0.00     0.090 C 
HETATM   14  C8  UNL     1      24.698   5.232  50.270  1.00  0.00     0.017 C 
BRANCH  14  15
HETATM   15  C9  UNL     1      25.742   4.270  50.032  1.00  0.00    -0.000 C 
HETATM   16  C10 UNL     1      26.885   4.120  49.397  1.00  0.00     0.004 C 
BRANCH  16  17
HETATM   17  C11 UNL     1      27.744   4.949  48.538  1.00  0.00     0.249 C 
HETATM   18  F1  UNL     1      27.083   6.101  48.126  1.00  0.00    -0.251 F 
ENDBRANCH  16  17
ENDBRANCH  14  15
ENDBRANCH  11  13
ENDBRANCH   4  11
BRANCH   1  19
HETATM   19  S1  UNL     1      26.307   0.455  53.845  1.00  0.00     0.194 S 
HETATM   20  O1  UNL     1      26.205  -0.489  55.014  1.00  0.00    -0.221 OA
HETATM   21  O2  UNL     1      27.132   1.673  54.214  1.00  0.00    -0.221 OA
BRANCH  19  22
HETATM   22  C1  UNL     1      27.082  -0.357  52.492  1.00  0.00     0.173 C 
BRANCH  22  23
HETATM   23  C2  UNL     1      26.819  -1.810  52.352  1.00  0.00     0.179 C 
BRANCH  23  24
HETATM   24  O3  UNL     1      27.516  -2.659  53.169  1.00  0.00    -0.400 OA
HETATM   25  H5  UNL     1      28.414  -2.317  53.436  1.00  0.00     0.209 HD
ENDBRANCH  23  24
ENDBRANCH  22  23
ENDBRANCH  19  22
ENDBRANCH   1  19
TORSDOF 8
ENDMDL
MODEL 6
REMARK VINA RESULT:      -6.4      3.696      5.484
REMARK  8 active torsions:
REMARK  status: ('A' for Active; 'I' for Inactive)
REMARK    1  A    between atoms: S1_2  and  C1_4 
REMARK    2  A    between atoms: S1_2  and  C3_7 
REMARK    3  A    between atoms: C1_4  and  C2_5 
REMARK    4  A    between atoms: C2_5  and  O3_6 
REMARK    5  A    between atoms: C6_10  and  N1_11 
REMARK    6  A    between atoms: N1_11  and  C7_12 
REMARK    7  A    between atoms: C8_13  and  C9_14 
REMARK    8  A    between atoms: C10_15  and  C11_16 
ROOT
HETATM    1  C3  UNL     1      22.616   0.204  53.313  1.00  0.00     0.151 A 
HETATM    2  C4  UNL     1      23.673   1.085  53.127  1.00  0.00     0.061 A 
HETATM    3  C5  UNL     1      24.946   0.911  53.619  1.00  0.00     0.043 A 
HETATM    4  C6  UNL     1      26.034   1.748  53.482  1.00  0.00     0.141 A 
HETATM    5  N2  UNL     1      27.204   1.427  54.043  1.00  0.00    -0.224 NA
HETATM    6  C12 UNL     1      27.422   0.316  54.755  1.00  0.00     0.236 A 
HETATM    7  N3  UNL     1      26.375  -0.487  54.886  1.00  0.00    -0.240 NA
HETATM    8  C13 UNL     1      25.199  -0.225  54.357  1.00  0.00     0.089 A 
HETATM    9  C14 UNL     1      24.154  -1.102  54.543  1.00  0.00     0.150 A 
HETATM   10  N4  UNL     1      22.944  -0.876  54.040  1.00  0.00    -0.247 NA
ENDROOT
BRANCH   4  11
HETATM   11  N1  UNL     1      25.841   2.934  52.726  1.00  0.00    -0.350 N 
HETATM   12  H7  UNL     1      25.769   3.742  52.104  1.00  0.00     0.166 HD
BRANCH  11  13
HETATM   13  C7  UNL     1      26.633   2.474  51.589  1.00  0.00     0.090 C 
HETATM   14  C8  UNL     1      26.475   2.824  50.293  1.00  0.00     0.017 C 
BRANCH  14  15
HETATM   15  C9  UNL     1      25.608   3.673  49.518  1.00  0.00    -0.000 C 
HETATM   16  C10 UNL     1      24.336   3.891  49.260  1.00  0.00     0.004 C 
BRANCH  16  17
HETATM   17  C11 UNL     1      23.048   3.320  49.682  1.00  0.00     0.249 C 
HETATM   18  F1  UNL     1      23.174   1.972  49.998  1.00  0.00    -0.251 F 
ENDBRANCH  16  17
ENDBRANCH  14  15
ENDBRANCH  11  13
ENDBRANCH   4  11
BRANCH   1  19
HETATM   19  S1  UNL     1      21.039   0.544  52.653  1.00  0.00     0.194 S 
HETATM   20  O1  UNL     1      19.964  -0.137  53.458  1.00  0.00    -0.221 OA
HETATM   21  O2  UNL     1      21.013   0.063  51.215  1.00  0.00    -0.221 OA
BRANCH  19  22
HETATM   22  C1  UNL     1      20.779   2.283  52.666  1.00  0.00     0.173 C 
BRANCH  22  23
HETATM   23  C2  UNL     1      19.619   2.785  51.890  1.00  0.00     0.179 C 
BRANCH  23  24
HETATM   24  O3  UNL     1      18.586   1.915  51.664  1.00  0.00    -0.400 OA
HETATM   25  H5  UNL     1      17.800   2.058  52.261  1.00  0.00     0.209 HD
ENDBRANCH  23  24
ENDBRANCH  22  23
ENDBRANCH  19  22
ENDBRANCH   1  19
TORSDOF 8
ENDMDL
MODEL 7
REMARK VINA RESULT:      -6.4      1.862      2.425
REMARK  8 active torsions:
REMARK  status: ('A' for Active; 'I' for Inactive)
REMARK    1  A    between atoms: S1_2  and  C1_4 
REMARK    2  A    between atoms: S1_2  and  C3_7 
REMARK    3  A    between atoms: C1_4  and  C2_5 
REMARK    4  A    between atoms: C2_5  and  O3_6 
REMARK    5  A    between atoms: C6_10  and  N1_11 
REMARK    6  A    between atoms: N1_11  and  C7_12 
REMARK    7  A    between atoms: C8_13  and  C9_14 
REMARK    8  A    between atoms: C10_15  and  C11_16 
ROOT
HETATM    1  C3  UNL     1      25.178   0.343  53.601  1.00  0.00     0.151 A 
HETATM    2  C4  UNL     1      24.522   1.378  52.950  1.00  0.00     0.061 A 
HETATM    3  C5  UNL     1      23.157   1.486  52.805  1.00  0.00     0.043 A 
HETATM    4  C6  UNL     1      22.444   2.478  52.165  1.00  0.00     0.141 A 
HETATM    5  N2  UNL     1      21.110   2.416  52.107  1.00  0.00    -0.224 NA
HETATM    6  C12 UNL     1      20.375   1.435  52.641  1.00  0.00     0.236 A 
HETATM    7  N3  UNL     1      21.062   0.483  53.256  1.00  0.00    -0.240 NA
HETATM    8  C13 UNL     1      22.375   0.488  53.346  1.00  0.00     0.089 A 
HETATM    9  C14 UNL     1      23.022  -0.540  53.992  1.00  0.00     0.150 A 
HETATM   10  N4  UNL     1      24.347  -0.586  54.098  1.00  0.00    -0.247 NA
ENDROOT
BRANCH   4  11
HETATM   11  N1  UNL     1      23.193   3.540  51.592  1.00  0.00    -0.350 N 
HETATM   12  H7  UNL     1      23.704   4.261  51.081  1.00  0.00     0.166 HD
BRANCH  11  13
HETATM   13  C7  UNL     1      22.894   3.160  50.215  1.00  0.00     0.090 C 
HETATM   14  C8  UNL     1      23.223   3.839  49.095  1.00  0.00     0.017 C 
BRANCH  14  15
HETATM   15  C9  UNL     1      23.911   5.057  48.751  1.00  0.00    -0.000 C 
HETATM   16  C10 UNL     1      25.102   5.616  48.785  1.00  0.00     0.004 C 
BRANCH  16  17
HETATM   17  C11 UNL     1      26.449   5.231  49.233  1.00  0.00     0.249 C 
HETATM   18  F1  UNL     1      26.720   3.901  48.929  1.00  0.00    -0.251 F 
ENDBRANCH  16  17
ENDBRANCH  14  15
ENDBRANCH  11  13
ENDBRANCH   4  11
BRANCH   1  19
HETATM   19  S1  UNL     1      26.918   0.308  53.703  1.00  0.00     0.194 S 
HETATM   20  O1  UNL     1      27.501  -0.570  52.628  1.00  0.00    -0.221 OA
HETATM   21  O2  UNL     1      27.302  -0.206  55.077  1.00  0.00    -0.221 OA
BRANCH  19  22
HETATM   22  C1  UNL     1      27.531   1.947  53.528  1.00  0.00     0.173 C 
BRANCH  22  23
HETATM   23  C2  UNL     1      28.979   2.143  53.781  1.00  0.00     0.179 C 
BRANCH  23  24
HETATM   24  O3  UNL     1      29.790   1.043  53.693  1.00  0.00    -0.400 OA
HETATM   25  H5  UNL     1      29.298   0.190  53.537  1.00  0.00     0.209 HD
ENDBRANCH  23  24
ENDBRANCH  22  23
ENDBRANCH  19  22
ENDBRANCH   1  19
TORSDOF 8
ENDMDL
MODEL 8
REMARK VINA RESULT:      -6.4      3.486      5.630
REMARK  8 active torsions:
REMARK  status: ('A' for Active; 'I' for Inactive)
REMARK    1  A    between atoms: S1_2  and  C1_4 
REMARK    2  A    between atoms: S1_2  and  C3_7 
REMARK    3  A    between atoms: C1_4  and  C2_5 
REMARK    4  A    between atoms: C2_5  and  O3_6 
REMARK    5  A    between atoms: C6_10  and  N1_11 
REMARK    6  A    between atoms: N1_11  and  C7_12 
REMARK    7  A    between atoms: C8_13  and  C9_14 
REMARK    8  A    between atoms: C10_15  and  C11_16 
ROOT
HETATM    1  C3  UNL     1      22.088   0.793  51.891  1.00  0.00     0.151 A 
HETATM    2  C4  UNL     1      23.353   0.513  52.388  1.00  0.00     0.061 A 
HETATM    3  C5  UNL     1      23.615  -0.193  53.540  1.00  0.00     0.043 A 
HETATM    4  C6  UNL     1      24.841  -0.496  54.094  1.00  0.00     0.141 A 
HETATM    5  N2  UNL     1      24.910  -1.186  55.237  1.00  0.00    -0.224 NA
HETATM    6  C12 UNL     1      23.848  -1.627  55.919  1.00  0.00     0.236 A 
HETATM    7  N3  UNL     1      22.670  -1.335  55.385  1.00  0.00    -0.240 NA
HETATM    8  C13 UNL     1      22.538  -0.660  54.264  1.00  0.00     0.089 A 
HETATM    9  C14 UNL     1      21.282  -0.385  53.773  1.00  0.00     0.150 A 
HETATM   10  N4  UNL     1      21.096   0.304  52.651  1.00  0.00    -0.247 NA
ENDROOT
BRANCH   4  11
HETATM   11  N1  UNL     1      25.991  -0.048  53.392  1.00  0.00    -0.350 N 
HETATM   12  H7  UNL     1      26.834   0.167  52.857  1.00  0.00     0.166 HD
BRANCH  11  13
HETATM   13  C7  UNL     1      26.314  -1.365  52.851  1.00  0.00     0.090 C 
HETATM   14  C8  UNL     1      27.534  -1.944  52.795  1.00  0.00     0.017 C 
BRANCH  14  15
HETATM   15  C9  UNL     1      28.885  -1.619  53.171  1.00  0.00    -0.000 C 
HETATM   16  C10 UNL     1      29.627  -0.620  53.601  1.00  0.00     0.004 C 
BRANCH  16  17
HETATM   17  C11 UNL     1      29.415   0.795  53.944  1.00  0.00     0.249 C 
HETATM   18  F1  UNL     1      28.876   0.929  55.218  1.00  0.00    -0.251 F 
ENDBRANCH  16  17
ENDBRANCH  14  15
ENDBRANCH  11  13
ENDBRANCH   4  11
BRANCH   1  19
HETATM   19  S1  UNL     1      21.884   1.716  50.425  1.00  0.00     0.194 S 
HETATM   20  O1  UNL     1      21.375   0.842  49.309  1.00  0.00    -0.221 OA
HETATM   21  O2  UNL     1      23.223   2.324  50.058  1.00  0.00    -0.221 OA
BRANCH  19  22
HETATM   22  C1  UNL     1      20.742   3.018  50.727  1.00  0.00     0.173 C 
BRANCH  22  23
HETATM   23  C2  UNL     1      20.979   3.839  51.939  1.00  0.00     0.179 C 
BRANCH  23  24
HETATM   24  O3  UNL     1      22.230   4.368  52.109  1.00  0.00    -0.400 OA
HETATM   25  H5  UNL     1      22.264   5.125  52.758  1.00  0.00     0.209 HD
ENDBRANCH  23  24
ENDBRANCH  22  23
ENDBRANCH  19  22
ENDBRANCH   1  19
TORSDOF 8
ENDMDL
MODEL 9
REMARK VINA RESULT:      -6.4      3.058      5.117
REMARK  8 active torsions:
REMARK  status: ('A' for Active; 'I' for Inactive)
REMARK    1  A    between atoms: S1_2  and  C1_4 
REMARK    2  A    between atoms: S1_2  and  C3_7 
REMARK    3  A    between atoms: C1_4  and  C2_5 
REMARK    4  A    between atoms: C2_5  and  O3_6 
REMARK    5  A    between atoms: C6_10  and  N1_11 
REMARK    6  A    between atoms: N1_11  and  C7_12 
REMARK    7  A    between atoms: C8_13  and  C9_14 
REMARK    8  A    between atoms: C10_15  and  C11_16 
ROOT
HETATM    1  C3  UNL     1      26.877   1.156  53.001  1.00  0.00     0.151 A 
HETATM    2  C4  UNL     1      25.492   1.104  52.932  1.00  0.00     0.061 A 
HETATM    3  C5  UNL     1      24.716   1.793  52.028  1.00  0.00     0.043 A 
HETATM    4  C6  UNL     1      23.342   1.795  51.912  1.00  0.00     0.141 A 
HETATM    5  N2  UNL     1      22.748   2.542  50.976  1.00  0.00    -0.224 NA
HETATM    6  C12 UNL     1      23.398   3.320  50.104  1.00  0.00     0.236 A 
HETATM    7  N3  UNL     1      24.719   3.316  50.217  1.00  0.00    -0.240 NA
HETATM    8  C13 UNL     1      25.360   2.603  51.117  1.00  0.00     0.089 A 
HETATM    9  C14 UNL     1      26.734   2.657  51.182  1.00  0.00     0.150 A 
HETATM   10  N4  UNL     1      27.427   1.965  52.082  1.00  0.00    -0.247 NA
ENDROOT
BRANCH   4  11
HETATM   11  N1  UNL     1      22.619   0.974  52.818  1.00  0.00    -0.350 N 
HETATM   12  H7  UNL     1      22.032   0.360  53.384  1.00  0.00     0.166 HD
BRANCH  11  13
HETATM   13  C7  UNL     1      21.679   0.494  51.810  1.00  0.00     0.090 C 
HETATM   14  C8  UNL     1      20.480  -0.090  52.030  1.00  0.00     0.017 C 
BRANCH  14  15
HETATM   15  C9  UNL     1      19.669  -0.465  53.159  1.00  0.00    -0.000 C 
HETATM   16  C10 UNL     1      18.508  -1.003  53.465  1.00  0.00     0.004 C 
BRANCH  16  17
HETATM   17  C11 UNL     1      17.355  -1.542  52.727  1.00  0.00     0.249 C 
HETATM   18  F1  UNL     1      17.154  -2.886  53.019  1.00  0.00    -0.251 F 
ENDBRANCH  16  17
ENDBRANCH  14  15
ENDBRANCH  11  13
ENDBRANCH   4  11
BRANCH   1  19
HETATM   19  S1  UNL     1      27.750   0.248  54.207  1.00  0.00     0.194 S 
HETATM   20  O1  UNL     1      26.806  -0.343  55.220  1.00  0.00    -0.221 OA
HETATM   21  O2  UNL     1      28.737   1.182  54.881  1.00  0.00    -0.221 OA
BRANCH  19  22
HETATM   22  C1  UNL     1      28.648  -1.037  53.411  1.00  0.00     0.173 C 
BRANCH  22  23
HETATM   23  C2  UNL     1      27.852  -2.165  52.870  1.00  0.00     0.179 C 
BRANCH  23  24
HETATM   24  O3  UNL     1      28.424  -3.408  52.889  1.00  0.00    -0.400 OA
HETATM   25  H5  UNL     1      29.155  -3.526  52.220  1.00  0.00     0.209 HD
ENDBRANCH  23  24
ENDBRANCH  22  23
ENDBRANCH  19  22
ENDBRANCH   1  19
TORSDOF 8
ENDMDL
