MODEL 1
REMARK VINA RESULT:      -6.5      0.000      0.000
REMARK  9 active torsions:
REMARK  status: ('A' for Active; 'I' for Inactive)
REMARK    1  A    between atoms: O1_2  and  C2_3 
REMARK    2  A    between atoms: C2_3  and  C3_4 
REMARK    3  A    between atoms: C3_4  and  O2_5 
REMARK    4  A    between atoms: O2_5  and  C4_6 
REMARK    5  A    between atoms: C8_12  and  N3_13 
REMARK    6  A    between atoms: C11_17  and  O3_18 
REMARK    7  A    between atoms: O3_18  and  C12_19 
REMARK    8  A    between atoms: C12_19  and  C13_20 
REMARK    9  A    between atoms: C13_20  and  O4_21 
ROOT
HETATM    1  C4  UNL     1      24.280   2.013  53.049  1.00  0.00     0.104 A 
HETATM    2  C5  UNL     1      25.517   2.579  53.395  1.00  0.00     0.072 A 
HETATM    3  C6  UNL     1      26.659   1.826  53.555  1.00  0.00     0.075 A 
HETATM    4  N1  UNL     1      27.849   2.358  53.883  1.00  0.00    -0.241 NA
HETATM    5  C7  UNL     1      28.941   1.583  54.028  1.00  0.00     0.236 A 
HETATM    6  N2  UNL     1      28.883   0.230  53.847  1.00  0.00    -0.223 NA
HETATM    7  C8  UNL     1      27.717  -0.342  53.517  1.00  0.00     0.152 A 
HETATM    8  C9  UNL     1      26.611   0.461  53.374  1.00  0.00     0.042 A 
HETATM    9  C10 UNL     1      25.390  -0.084  53.034  1.00  0.00     0.057 A 
HETATM   10  C11 UNL     1      24.211   0.609  52.859  1.00  0.00     0.103 A 
ENDROOT
BRANCH   1  11
HETATM   11  O2  UNL     1      23.166   2.746  52.890  1.00  0.00    -0.346 OA
BRANCH  11  12
HETATM   12  C3  UNL     1      22.641   3.574  51.944  1.00  0.00     0.201 C 
BRANCH  12  13
HETATM   13  C2  UNL     1      22.944   5.016  52.258  1.00  0.00     0.193 C 
BRANCH  13  14
HETATM   14  O1  UNL     1      23.995   5.476  51.514  1.00  0.00    -0.394 OA
HETATM   15  C1  UNL     1      23.932   6.774  51.118  1.00  0.00     0.201 C 
ENDBRANCH  13  14
ENDBRANCH  12  13
ENDBRANCH  11  12
ENDBRANCH   1  11
BRANCH  10  16
HETATM   16  O3  UNL     1      22.998   0.209  52.543  1.00  0.00    -0.346 OA
BRANCH  16  17
HETATM   17  C12 UNL     1      22.115  -0.771  52.906  1.00  0.00     0.201 C 
BRANCH  17  18
HETATM   18  C13 UNL     1      21.459  -0.667  54.240  1.00  0.00     0.193 C 
BRANCH  18  19
HETATM   19  O4  UNL     1      21.746  -1.652  55.141  1.00  0.00    -0.394 OA
HETATM   20  C14 UNL     1      23.070  -1.508  55.565  1.00  0.00     0.201 C 
ENDBRANCH  18  19
ENDBRANCH  17  18
ENDBRANCH  16  17
ENDBRANCH  10  16
BRANCH   7  21
HETATM   21  N3  UNL     1      27.700  -1.744  53.336  1.00  0.00    -0.282 N 
HETATM   22 CL1  UNL     1      29.216  -2.592  53.259  1.00  0.00     0.012 Cl
HETATM   23  H10 UNL     1      27.021  -2.504  53.224  1.00  0.00     0.182 HD
ENDBRANCH   7  21
TORSDOF 9
ENDMDL
MODEL 2
REMARK VINA RESULT:      -6.4      1.069      1.556
REMARK  9 active torsions:
REMARK  status: ('A' for Active; 'I' for Inactive)
REMARK    1  A    between atoms: O1_2  and  C2_3 
REMARK    2  A    between atoms: C2_3  and  C3_4 
REMARK    3  A    between atoms: C3_4  and  O2_5 
REMARK    4  A    between atoms: O2_5  and  C4_6 
REMARK    5  A    between atoms: C8_12  and  N3_13 
REMARK    6  A    between atoms: C11_17  and  O3_18 
REMARK    7  A    between atoms: O3_18  and  C12_19 
REMARK    8  A    between atoms: C12_19  and  C13_20 
REMARK    9  A    between atoms: C13_20  and  O4_21 
ROOT
HETATM    1  C4  UNL     1      24.446   2.283  53.064  1.00  0.00     0.104 A 
HETATM    2  C5  UNL     1      25.708   2.651  53.555  1.00  0.00     0.072 A 
HETATM    3  C6  UNL     1      26.743   1.752  53.693  1.00  0.00     0.075 A 
HETATM    4  N1  UNL     1      27.956   2.095  54.159  1.00  0.00    -0.241 NA
HETATM    5  C7  UNL     1      28.939   1.182  54.276  1.00  0.00     0.236 A 
HETATM    6  N2  UNL     1      28.744  -0.124  53.925  1.00  0.00    -0.223 NA
HETATM    7  C8  UNL     1      27.550  -0.509  53.454  1.00  0.00     0.152 A 
HETATM    8  C9  UNL     1      26.555   0.433  53.341  1.00  0.00     0.042 A 
HETATM    9  C10 UNL     1      25.311   0.083  52.860  1.00  0.00     0.057 A 
HETATM   10  C11 UNL     1      24.235   0.929  52.698  1.00  0.00     0.103 A 
ENDROOT
BRANCH   1  11
HETATM   11  O2  UNL     1      23.437   3.158  52.927  1.00  0.00    -0.346 OA
BRANCH  11  12
HETATM   12  C3  UNL     1      23.247   4.383  52.362  1.00  0.00     0.201 C 
BRANCH  12  13
HETATM   13  C2  UNL     1      21.822   4.552  51.903  1.00  0.00     0.193 C 
BRANCH  13  14
HETATM   14  O1  UNL     1      21.009   3.595  52.444  1.00  0.00    -0.394 OA
HETATM   15  C1  UNL     1      19.817   3.395  51.823  1.00  0.00     0.201 C 
ENDBRANCH  13  14
ENDBRANCH  12  13
ENDBRANCH  11  12
ENDBRANCH   1  11
BRANCH  10  16
HETATM   16  O3  UNL     1      23.013   0.717  52.259  1.00  0.00    -0.346 OA
BRANCH  16  17
HETATM   17  C12 UNL     1      21.959  -0.115  52.521  1.00  0.00     0.201 C 
BRANCH  17  18
HETATM   18  C13 UNL     1      21.028   0.256  53.623  1.00  0.00     0.193 C 
BRANCH  18  19
HETATM   19  O4  UNL     1      21.381  -0.139  54.881  1.00  0.00    -0.394 OA
HETATM   20  C14 UNL     1      21.982  -1.399  54.811  1.00  0.00     0.201 C 
ENDBRANCH  18  19
ENDBRANCH  17  18
ENDBRANCH  16  17
ENDBRANCH  10  16
BRANCH   7  21
HETATM   21  N3  UNL     1      27.389  -1.869  53.100  1.00  0.00    -0.282 N 
HETATM   22 CL1  UNL     1      28.792  -2.895  53.082  1.00  0.00     0.012 Cl
HETATM   23  H10 UNL     1      26.644  -2.515  52.822  1.00  0.00     0.182 HD
ENDBRANCH   7  21
TORSDOF 9
ENDMDL
MODEL 3
REMARK VINA RESULT:      -6.3      4.014      6.392
REMARK  9 active torsions:
REMARK  status: ('A' for Active; 'I' for Inactive)
REMARK    1  A    between atoms: O1_2  and  C2_3 
REMARK    2  A    between atoms: C2_3  and  C3_4 
REMARK    3  A    between atoms: C3_4  and  O2_5 
REMARK    4  A    between atoms: O2_5  and  C4_6 
REMARK    5  A    between atoms: C8_12  and  N3_13 
REMARK    6  A    between atoms: C11_17  and  O3_18 
REMARK    7  A    between atoms: O3_18  and  C12_19 
REMARK    8  A    between atoms: C12_19  and  C13_20 
REMARK    9  A    between atoms: C13_20  and  O4_21 
ROOT
HETATM    1  C4  UNL     1      25.917  -0.093  52.855  1.00  0.00     0.104 A 
HETATM    2  C5  UNL     1      25.052  -0.800  53.703  1.00  0.00     0.072 A 
HETATM    3  C6  UNL     1      23.724  -0.468  53.855  1.00  0.00     0.075 A 
HETATM    4  N1  UNL     1      22.887  -1.141  54.664  1.00  0.00    -0.241 NA
HETATM    5  C7  UNL     1      21.595  -0.780  54.780  1.00  0.00     0.236 A 
HETATM    6  N2  UNL     1      21.084   0.278  54.083  1.00  0.00    -0.223 NA
HETATM    7  C8  UNL     1      21.884   0.976  53.265  1.00  0.00     0.152 A 
HETATM    8  C9  UNL     1      23.201   0.599  53.157  1.00  0.00     0.042 A 
HETATM    9  C10 UNL     1      24.061   1.286  52.325  1.00  0.00     0.057 A 
HETATM   10  C11 UNL     1      25.396   1.008  52.128  1.00  0.00     0.103 A 
ENDROOT
BRANCH   1  11
HETATM   11  O2  UNL     1      27.212  -0.417  52.704  1.00  0.00    -0.346 OA
BRANCH  11  12
HETATM   12  C3  UNL     1      28.331  -0.450  53.480  1.00  0.00     0.201 C 
BRANCH  12  13
HETATM   13  C2  UNL     1      28.121   0.309  54.765  1.00  0.00     0.193 C 
BRANCH  13  14
HETATM   14  O1  UNL     1      28.956   1.389  54.844  1.00  0.00    -0.394 OA
HETATM   15  C1  UNL     1      28.852   2.305  53.845  1.00  0.00     0.201 C 
ENDBRANCH  13  14
ENDBRANCH  12  13
ENDBRANCH  11  12
ENDBRANCH   1  11
BRANCH  10  16
HETATM   16  O3  UNL     1      26.309   1.585  51.375  1.00  0.00    -0.346 OA
BRANCH  16  17
HETATM   17  C12 UNL     1      26.654   2.844  50.966  1.00  0.00     0.201 C 
BRANCH  17  18
HETATM   18  C13 UNL     1      26.259   3.270  49.594  1.00  0.00     0.193 C 
BRANCH  18  19
HETATM   19  O4  UNL     1      24.945   3.588  49.407  1.00  0.00    -0.394 OA
HETATM   20  C14 UNL     1      24.562   4.523  50.374  1.00  0.00     0.201 C 
ENDBRANCH  18  19
ENDBRANCH  17  18
ENDBRANCH  16  17
ENDBRANCH  10  16
BRANCH   7  21
HETATM   21  N3  UNL     1      21.318   2.063  52.560  1.00  0.00    -0.282 N 
HETATM   22 CL1  UNL     1      19.660   1.949  52.048  1.00  0.00     0.012 Cl
HETATM   23  H10 UNL     1      21.587   2.990  52.215  1.00  0.00     0.182 HD
ENDBRANCH   7  21
TORSDOF 9
ENDMDL
MODEL 4
REMARK VINA RESULT:      -6.2      3.762      5.480
REMARK  9 active torsions:
REMARK  status: ('A' for Active; 'I' for Inactive)
REMARK    1  A    between atoms: O1_2  and  C2_3 
REMARK    2  A    between atoms: C2_3  and  C3_4 
REMARK    3  A    between atoms: C3_4  and  O2_5 
REMARK    4  A    between atoms: O2_5  and  C4_6 
REMARK    5  A    between atoms: C8_12  and  N3_13 
REMARK    6  A    between atoms: C11_17  and  O3_18 
REMARK    7  A    between atoms: O3_18  and  C12_19 
REMARK    8  A    between atoms: C12_19  and  C13_20 
REMARK    9  A    between atoms: C13_20  and  O4_21 
ROOT
HETATM    1  C4  UNL     1      25.937   0.931  52.743  1.00  0.00     0.104 A 
HETATM    2  C5  UNL     1      26.742   1.752  51.938  1.00  0.00     0.072 A 
HETATM    3  C6  UNL     1      26.219   2.617  51.003  1.00  0.00     0.075 A 
HETATM    4  N1  UNL     1      26.981   3.409  50.229  1.00  0.00    -0.241 NA
HETATM    5  C7  UNL     1      26.425   4.241  49.327  1.00  0.00     0.236 A 
HETATM    6  N2  UNL     1      25.071   4.314  49.164  1.00  0.00    -0.223 NA
HETATM    7  C8  UNL     1      24.274   3.542  49.916  1.00  0.00     0.152 A 
HETATM    8  C9  UNL     1      24.854   2.697  50.831  1.00  0.00     0.042 A 
HETATM    9  C10 UNL     1      24.073   1.886  51.628  1.00  0.00     0.057 A 
HETATM   10  C11 UNL     1      24.530   1.000  52.580  1.00  0.00     0.103 A 
ENDROOT
BRANCH   1  11
HETATM   11  O2  UNL     1      26.445   0.089  53.657  1.00  0.00    -0.346 OA
BRANCH  11  12
HETATM   12  C3  UNL     1      26.925   0.166  54.930  1.00  0.00     0.201 C 
BRANCH  12  13
HETATM   13  C2  UNL     1      28.432   0.174  54.941  1.00  0.00     0.193 C 
BRANCH  13  14
HETATM   14  O1  UNL     1      28.939  -0.924  54.304  1.00  0.00    -0.394 OA
HETATM   15  C1  UNL     1      29.989  -0.705  53.470  1.00  0.00     0.201 C 
ENDBRANCH  13  14
ENDBRANCH  12  13
ENDBRANCH  11  12
ENDBRANCH   1  11
BRANCH  10  16
HETATM   16  O3  UNL     1      23.894   0.179  53.390  1.00  0.00    -0.346 OA
BRANCH  16  17
HETATM   17  C12 UNL     1      22.822  -0.670  53.354  1.00  0.00     0.201 C 
BRANCH  17  18
HETATM   18  C13 UNL     1      22.431  -1.361  54.613  1.00  0.00     0.193 C 
BRANCH  18  19
HETATM   19  O4  UNL     1      21.095  -1.566  54.809  1.00  0.00    -0.394 OA
HETATM   20  C14 UNL     1      20.380  -0.864  53.834  1.00  0.00     0.201 C 
ENDBRANCH  18  19
ENDBRANCH  17  18
ENDBRANCH  16  17
ENDBRANCH  10  16
BRANCH   7  21
HETATM   21  N3  UNL     1      22.877   3.649  49.719  1.00  0.00    -0.282 N 
HETATM   22 CL1  UNL     1      22.225   3.249  48.158  1.00  0.00     0.012 Cl
HETATM   23  H10 UNL     1      22.037   3.910  50.244  1.00  0.00     0.182 HD
ENDBRANCH   7  21
TORSDOF 9
ENDMDL
MODEL 5
REMARK VINA RESULT:      -6.2      3.515      5.134
REMARK  9 active torsions:
REMARK  status: ('A' for Active; 'I' for Inactive)
REMARK    1  A    between atoms: O1_2  and  C2_3 
REMARK    2  A    between atoms: C2_3  and  C3_4 
REMARK    3  A    between atoms: C3_4  and  O2_5 
REMARK    4  A    between atoms: O2_5  and  C4_6 
REMARK    5  A    between atoms: C8_12  and  N3_13 
REMARK    6  A    between atoms: C11_17  and  O3_18 
REMARK    7  A    between atoms: O3_18  and  C12_19 
REMARK    8  A    between atoms: C12_19  and  C13_20 
REMARK    9  A    between atoms: C13_20  and  O4_21 
ROOT
HETATM    1  C4  UNL     1      26.009   2.674  51.107  1.00  0.00     0.104 A 
HETATM    2  C5  UNL     1      24.666   2.495  50.744  1.00  0.00     0.072 A 
HETATM    3  C6  UNL     1      23.829   1.619  51.399  1.00  0.00     0.075 A 
HETATM    4  N1  UNL     1      22.540   1.443  51.060  1.00  0.00    -0.241 NA
HETATM    5  C7  UNL     1      21.758   0.576  51.731  1.00  0.00     0.236 A 
HETATM    6  N2  UNL     1      22.241  -0.156  52.779  1.00  0.00    -0.223 NA
HETATM    7  C8  UNL     1      23.520  -0.010  53.151  1.00  0.00     0.152 A 
HETATM    8  C9  UNL     1      24.307   0.878  52.457  1.00  0.00     0.042 A 
HETATM    9  C10 UNL     1      25.629   1.062  52.806  1.00  0.00     0.057 A 
HETATM   10  C11 UNL     1      26.519   1.919  52.194  1.00  0.00     0.103 A 
ENDROOT
BRANCH   1  11
HETATM   11  O2  UNL     1      26.826   3.529  50.470  1.00  0.00    -0.346 OA
BRANCH  11  12
HETATM   12  C3  UNL     1      27.030   3.951  49.191  1.00  0.00     0.201 C 
BRANCH  12  13
HETATM   13  C2  UNL     1      26.744   5.424  49.055  1.00  0.00     0.193 C 
BRANCH  13  14
HETATM   14  O1  UNL     1      25.637   5.784  49.772  1.00  0.00    -0.394 OA
HETATM   15  C1  UNL     1      25.605   7.063  50.229  1.00  0.00     0.201 C 
ENDBRANCH  13  14
ENDBRANCH  12  13
ENDBRANCH  11  12
ENDBRANCH   1  11
BRANCH  10  16
HETATM   16  O3  UNL     1      27.788   2.177  52.428  1.00  0.00    -0.346 OA
BRANCH  16  17
HETATM   17  C12 UNL     1      28.602   2.427  53.499  1.00  0.00     0.201 C 
BRANCH  17  18
HETATM   18  C13 UNL     1      29.331   1.280  54.110  1.00  0.00     0.193 C 
BRANCH  18  19
HETATM   19  O4  UNL     1      28.586   0.182  54.428  1.00  0.00    -0.394 OA
HETATM   20  C14 UNL     1      29.005  -0.896  53.643  1.00  0.00     0.201 C 
ENDBRANCH  18  19
ENDBRANCH  17  18
ENDBRANCH  16  17
ENDBRANCH  10  16
BRANCH   7  21
HETATM   21  N3  UNL     1      23.981  -0.783  54.242  1.00  0.00    -0.282 N 
HETATM   22 CL1  UNL     1      22.814  -1.407  55.371  1.00  0.00     0.012 Cl
HETATM   23  H10 UNL     1      24.863  -1.133  54.628  1.00  0.00     0.182 HD
ENDBRANCH   7  21
TORSDOF 9
ENDMDL
MODEL 6
REMARK VINA RESULT:      -6.2      3.526      5.713
REMARK  9 active torsions:
REMARK  status: ('A' for Active; 'I' for Inactive)
REMARK    1  A    between atoms: O1_2  and  C2_3 
REMARK    2  A    between atoms: C2_3  and  C3_4 
REMARK    3  A    between atoms: C3_4  and  O2_5 
REMARK    4  A    between atoms: O2_5  and  C4_6 
REMARK    5  A    between atoms: C8_12  and  N3_13 
REMARK    6  A    between atoms: C11_17  and  O3_18 
REMARK    7  A    between atoms: O3_18  and  C12_19 
REMARK    8  A    between atoms: C12_19  and  C13_20 
REMARK    9  A    between atoms: C13_20  and  O4_21 
ROOT
HETATM    1  C4  UNL     1      24.321   1.190  52.665  1.00  0.00     0.104 A 
HETATM    2  C5  UNL     1      23.577   2.355  52.425  1.00  0.00     0.072 A 
HETATM    3  C6  UNL     1      24.036   3.378  51.625  1.00  0.00     0.075 A 
HETATM    4  N1  UNL     1      23.330   4.497  51.387  1.00  0.00    -0.241 NA
HETATM    5  C7  UNL     1      23.819   5.472  50.596  1.00  0.00     0.236 A 
HETATM    6  N2  UNL     1      25.046   5.363  50.006  1.00  0.00    -0.223 NA
HETATM    7  C8  UNL     1      25.783   4.264  50.216  1.00  0.00     0.152 A 
HETATM    8  C9  UNL     1      25.273   3.277  51.026  1.00  0.00     0.042 A 
HETATM    9  C10 UNL     1      25.995   2.128  51.269  1.00  0.00     0.057 A 
HETATM   10  C11 UNL     1      25.597   1.069  52.057  1.00  0.00     0.103 A 
ENDROOT
BRANCH   1  11
HETATM   11  O2  UNL     1      23.874   0.191  53.442  1.00  0.00    -0.346 OA
BRANCH  11  12
HETATM   12  C3  UNL     1      22.890  -0.749  53.394  1.00  0.00     0.201 C 
BRANCH  12  13
HETATM   13  C2  UNL     1      22.099  -0.772  54.676  1.00  0.00     0.193 C 
BRANCH  13  14
HETATM   14  O1  UNL     1      21.064   0.121  54.637  1.00  0.00    -0.394 OA
HETATM   15  C1  UNL     1      20.319   0.131  53.501  1.00  0.00     0.201 C 
ENDBRANCH  13  14
ENDBRANCH  12  13
ENDBRANCH  11  12
ENDBRANCH   1  11
BRANCH  10  16
HETATM   16  O3  UNL     1      26.190  -0.065  52.365  1.00  0.00    -0.346 OA
BRANCH  16  17
HETATM   17  C12 UNL     1      27.375  -0.490  52.900  1.00  0.00     0.201 C 
BRANCH  17  18
HETATM   18  C13 UNL     1      27.732  -0.031  54.271  1.00  0.00     0.193 C 
BRANCH  18  19
HETATM   19  O4  UNL     1      28.918  -0.479  54.777  1.00  0.00    -0.394 OA
HETATM   20  C14 UNL     1      29.724  -0.921  53.723  1.00  0.00     0.201 C 
ENDBRANCH  18  19
ENDBRANCH  17  18
ENDBRANCH  16  17
ENDBRANCH  10  16
BRANCH   7  21
HETATM   21  N3  UNL     1      27.047   4.188  49.586  1.00  0.00    -0.282 N 
HETATM   22 CL1  UNL     1      27.512   5.463  48.500  1.00  0.00     0.012 Cl
HETATM   23  H10 UNL     1      27.862   3.568  49.553  1.00  0.00     0.182 HD
ENDBRANCH   7  21
TORSDOF 9
ENDMDL
MODEL 7
REMARK VINA RESULT:      -5.9      3.782      6.372
REMARK  9 active torsions:
REMARK  status: ('A' for Active; 'I' for Inactive)
REMARK    1  A    between atoms: O1_2  and  C2_3 
REMARK    2  A    between atoms: C2_3  and  C3_4 
REMARK    3  A    between atoms: C3_4  and  O2_5 
REMARK    4  A    between atoms: O2_5  and  C4_6 
REMARK    5  A    between atoms: C8_12  and  N3_13 
REMARK    6  A    between atoms: C11_17  and  O3_18 
REMARK    7  A    between atoms: O3_18  and  C12_19 
REMARK    8  A    between atoms: C12_19  and  C13_20 
REMARK    9  A    between atoms: C13_20  and  O4_21 
ROOT
HETATM    1  C4  UNL     1      24.159   1.509  51.818  1.00  0.00     0.104 A 
HETATM    2  C5  UNL     1      23.222   2.079  50.942  1.00  0.00     0.072 A 
HETATM    3  C6  UNL     1      23.508   3.174  50.159  1.00  0.00     0.075 A 
HETATM    4  N1  UNL     1      22.619   3.726  49.315  1.00  0.00    -0.241 NA
HETATM    5  C7  UNL     1      22.944   4.797  48.566  1.00  0.00     0.236 A 
HETATM    6  N2  UNL     1      24.185   5.364  48.633  1.00  0.00    -0.223 NA
HETATM    7  C8  UNL     1      25.103   4.845  49.461  1.00  0.00     0.152 A 
HETATM    8  C9  UNL     1      24.758   3.752  50.220  1.00  0.00     0.042 A 
HETATM    9  C10 UNL     1      25.670   3.184  51.084  1.00  0.00     0.057 A 
HETATM   10  C11 UNL     1      25.450   2.091  51.895  1.00  0.00     0.103 A 
ENDROOT
BRANCH   1  11
HETATM   11  O2  UNL     1      23.882   0.439  52.581  1.00  0.00    -0.346 OA
BRANCH  11  12
HETATM   12  C3  UNL     1      22.828  -0.022  53.311  1.00  0.00     0.201 C 
BRANCH  12  13
HETATM   13  C2  UNL     1      23.299  -0.856  54.474  1.00  0.00     0.193 C 
BRANCH  13  14
HETATM   14  O1  UNL     1      22.266  -1.557  55.032  1.00  0.00    -0.394 OA
HETATM   15  C1  UNL     1      21.068  -1.474  54.396  1.00  0.00     0.201 C 
ENDBRANCH  13  14
ENDBRANCH  12  13
ENDBRANCH  11  12
ENDBRANCH   1  11
BRANCH  10  16
HETATM   16  O3  UNL     1      26.227   1.466  52.753  1.00  0.00    -0.346 OA
BRANCH  16  17
HETATM   17  C12 UNL     1      27.557   1.190  52.918  1.00  0.00     0.201 C 
BRANCH  17  18
HETATM   18  C13 UNL     1      28.380   2.146  53.711  1.00  0.00     0.193 C 
BRANCH  18  19
HETATM   19  O4  UNL     1      29.129   1.616  54.722  1.00  0.00    -0.394 OA
HETATM   20  C14 UNL     1      28.719   0.299  54.950  1.00  0.00     0.201 C 
ENDBRANCH  18  19
ENDBRANCH  17  18
ENDBRANCH  16  17
ENDBRANCH  10  16
BRANCH   7  21
HETATM   21  N3  UNL     1      26.377   5.458  49.500  1.00  0.00    -0.282 N 
HETATM   22 CL1  UNL     1      27.670   4.747  48.581  1.00  0.00     0.012 Cl
HETATM   23  H10 UNL     1      26.837   6.265  49.933  1.00  0.00     0.182 HD
ENDBRANCH   7  21
TORSDOF 9
ENDMDL
MODEL 8
REMARK VINA RESULT:      -5.9      3.888      6.476
REMARK  9 active torsions:
REMARK  status: ('A' for Active; 'I' for Inactive)
REMARK    1  A    between atoms: O1_2  and  C2_3 
REMARK    2  A    between atoms: C2_3  and  C3_4 
REMARK    3  A    between atoms: C3_4  and  O2_5 
REMARK    4  A    between atoms: O2_5  and  C4_6 
REMARK    5  A    between atoms: C8_12  and  N3_13 
REMARK    6  A    between atoms: C11_17  and  O3_18 
REMARK    7  A    between atoms: O3_18  and  C12_19 
REMARK    8  A    between atoms: C12_19  and  C13_20 
REMARK    9  A    between atoms: C13_20  and  O4_21 
ROOT
HETATM    1  C4  UNL     1      25.802   0.685  52.982  1.00  0.00     0.104 A 
HETATM    2  C5  UNL     1      25.121  -0.194  53.837  1.00  0.00     0.072 A 
HETATM    3  C6  UNL     1      23.753  -0.351  53.804  1.00  0.00     0.075 A 
HETATM    4  N1  UNL     1      23.090  -1.192  54.617  1.00  0.00    -0.241 NA
HETATM    5  C7  UNL     1      21.751  -1.314  54.548  1.00  0.00     0.236 A 
HETATM    6  N2  UNL     1      21.014  -0.592  53.653  1.00  0.00    -0.223 NA
HETATM    7  C8  UNL     1      21.635   0.258  52.822  1.00  0.00     0.152 A 
HETATM    8  C9  UNL     1      23.002   0.374  52.904  1.00  0.00     0.042 A 
HETATM    9  C10 UNL     1      23.683   1.234  52.068  1.00  0.00     0.057 A 
HETATM   10  C11 UNL     1      25.046   1.439  52.048  1.00  0.00     0.103 A 
ENDROOT
BRANCH   1  11
HETATM   11  O2  UNL     1      27.136   0.837  53.011  1.00  0.00    -0.346 OA
BRANCH  11  12
HETATM   12  C3  UNL     1      28.056   1.437  53.817  1.00  0.00     0.201 C 
BRANCH  12  13
HETATM   13  C2  UNL     1      29.030   0.429  54.372  1.00  0.00     0.193 C 
BRANCH  13  14
HETATM   14  O1  UNL     1      28.610  -0.850  54.134  1.00  0.00    -0.394 OA
HETATM   15  C1  UNL     1      29.440  -1.629  53.392  1.00  0.00     0.201 C 
ENDBRANCH  13  14
ENDBRANCH  12  13
ENDBRANCH  11  12
ENDBRANCH   1  11
BRANCH  10  16
HETATM   16  O3  UNL     1      25.803   2.224  51.312  1.00  0.00    -0.346 OA
BRANCH  16  17
HETATM   17  C12 UNL     1      25.676   3.047  50.226  1.00  0.00     0.201 C 
BRANCH  17  18
HETATM   18  C13 UNL     1      25.106   4.407  50.438  1.00  0.00     0.193 C 
BRANCH  18  19
HETATM   19  O4  UNL     1      23.749   4.489  50.560  1.00  0.00    -0.394 OA
HETATM   20  C14 UNL     1      23.436   5.031  51.810  1.00  0.00     0.201 C 
ENDBRANCH  18  19
ENDBRANCH  17  18
ENDBRANCH  16  17
ENDBRANCH  10  16
BRANCH   7  21
HETATM   21  N3  UNL     1      20.838   0.985  51.908  1.00  0.00    -0.282 N 
HETATM   22 CL1  UNL     1      19.384   0.248  51.303  1.00  0.00     0.012 Cl
HETATM   23  H10 UNL     1      20.832   1.895  51.436  1.00  0.00     0.182 HD
ENDBRANCH   7  21
TORSDOF 9
ENDMDL
MODEL 9
REMARK VINA RESULT:      -5.8      3.126      4.200
REMARK  9 active torsions:
REMARK  status: ('A' for Active; 'I' for Inactive)
REMARK    1  A    between atoms: O1_2  and  C2_3 
REMARK    2  A    between atoms: C2_3  and  C3_4 
REMARK    3  A    between atoms: C3_4  and  O2_5 
REMARK    4  A    between atoms: O2_5  and  C4_6 
REMARK    5  A    between atoms: C8_12  and  N3_13 
REMARK    6  A    between atoms: C11_17  and  O3_18 
REMARK    7  A    between atoms: O3_18  and  C12_19 
REMARK    8  A    between atoms: C12_19  and  C13_20 
REMARK    9  A    between atoms: C13_20  and  O4_21 
ROOT
HETATM    1  C4  UNL     1      25.447   3.125  51.209  1.00  0.00     0.104 A 
HETATM    2  C5  UNL     1      26.400   2.098  51.284  1.00  0.00     0.072 A 
HETATM    3  C6  UNL     1      26.212   0.964  52.042  1.00  0.00     0.075 A 
HETATM    4  N1  UNL     1      27.118  -0.026  52.118  1.00  0.00    -0.241 NA
HETATM    5  C7  UNL     1      26.891  -1.119  52.872  1.00  0.00     0.236 A 
HETATM    6  N2  UNL     1      25.735  -1.265  53.586  1.00  0.00    -0.223 NA
HETATM    7  C8  UNL     1      24.804  -0.301  53.538  1.00  0.00     0.152 A 
HETATM    8  C9  UNL     1      25.050   0.809  52.765  1.00  0.00     0.042 A 
HETATM    9  C10 UNL     1      24.120   1.824  52.684  1.00  0.00     0.057 A 
HETATM   10  C11 UNL     1      24.244   2.983  51.947  1.00  0.00     0.103 A 
ENDROOT
BRANCH   1  11
HETATM   11  O2  UNL     1      25.628   4.231  50.468  1.00  0.00    -0.346 OA
BRANCH  11  12
HETATM   12  C3  UNL     1      25.685   4.548  49.145  1.00  0.00     0.201 C 
BRANCH  12  13
HETATM   13  C2  UNL     1      26.845   5.467  48.858  1.00  0.00     0.193 C 
BRANCH  13  14
HETATM   14  O1  UNL     1      28.007   4.764  48.699  1.00  0.00    -0.394 OA
HETATM   15  C1  UNL     1      29.088   5.474  48.281  1.00  0.00     0.201 C 
ENDBRANCH  13  14
ENDBRANCH  12  13
ENDBRANCH  11  12
ENDBRANCH   1  11
BRANCH  10  16
HETATM   16  O3  UNL     1      23.441   4.013  51.793  1.00  0.00    -0.346 OA
BRANCH  16  17
HETATM   17  C12 UNL     1      22.217   4.435  52.239  1.00  0.00     0.201 C 
BRANCH  17  18
HETATM   18  C13 UNL     1      21.014   3.659  51.828  1.00  0.00     0.193 C 
BRANCH  18  19
HETATM   19  O4  UNL     1      20.284   3.087  52.830  1.00  0.00    -0.394 OA
HETATM   20  C14 UNL     1      20.110   1.729  52.547  1.00  0.00     0.201 C 
ENDBRANCH  18  19
ENDBRANCH  17  18
ENDBRANCH  16  17
ENDBRANCH  10  16
BRANCH   7  21
HETATM   21  N3  UNL     1      23.621  -0.491  54.288  1.00  0.00    -0.282 N 
HETATM   22 CL1  UNL     1      22.231  -1.168  53.493  1.00  0.00     0.012 Cl
HETATM   23  H10 UNL     1      23.276  -0.347  55.243  1.00  0.00     0.182 HD
ENDBRANCH   7  21
TORSDOF 9
ENDMDL
