MODEL 1
REMARK VINA RESULT:      -6.2      0.000      0.000
REMARK  7 active torsions:
REMARK  status: ('A' for Active; 'I' for Inactive)
REMARK    1  A    between atoms: O1_2  and  C2_3 
REMARK    2  A    between atoms: C2_3  and  N1_4 
REMARK    3  A    between atoms: N1_4  and  C3_5 
REMARK    4  A    between atoms: N1_4  and  C7_10 
REMARK    5  A    between atoms: C4_6  and  C5_7 
REMARK    6  A    between atoms: C5_7  and  C6_8 
REMARK    7  A    between atoms: C12_17  and  O4_18 
ROOT
HETATM    1  C7  UNL     1      23.103   0.378  53.152  1.00  0.00     0.138 C 
HETATM    2  C8  UNL     1      22.036  -0.065  53.817  1.00  0.00    -0.013 C 
HETATM    3  C9  UNL     1      20.795   0.705  53.551  1.00  0.00     0.050 C 
HETATM    4  C10 UNL     1      21.912  -1.200  54.771  1.00  0.00     0.215 C 
HETATM    5  O3  UNL     1      22.981  -1.283  55.689  1.00  0.00    -0.327 OA
HETATM    6  C11 UNL     1      24.363  -1.207  55.483  1.00  0.00     0.212 C 
HETATM    7  N2  UNL     1      25.163  -1.466  56.465  1.00  0.00    -0.274 NA
HETATM    8  C12 UNL     1      24.996  -0.843  54.201  1.00  0.00     0.220 C 
HETATM    9  N3  UNL     1      24.442  -0.170  53.224  1.00  0.00    -0.203 NA
HETATM   10  H16 UNL     1      26.186  -1.404  56.297  1.00  0.00     0.189 HD
ENDROOT
BRANCH   1  11
HETATM   11  N1  UNL     1      23.042   1.482  52.274  1.00  0.00    -0.320 N 
BRANCH  11  12
HETATM   12  C2  UNL     1      23.415   2.795  52.770  1.00  0.00     0.299 C 
BRANCH  12  13
HETATM   13  O1  UNL     1      22.520   3.798  52.392  1.00  0.00    -0.377 OA
HETATM   14  C1  UNL     1      23.296   4.881  51.930  1.00  0.00     0.203 C 
ENDBRANCH  12  13
ENDBRANCH  11  12
BRANCH  11  15
HETATM   15  C3  UNL     1      22.637   1.304  50.956  1.00  0.00     0.091 C 
HETATM   16  C4  UNL     1      21.570   1.212  50.187  1.00  0.00    -0.003 C 
BRANCH  16  17
HETATM   17  C5  UNL     1      21.515   1.008  48.712  1.00  0.00     0.097 C 
BRANCH  17  18
HETATM   18  C6  UNL     1      22.144   2.148  47.966  1.00  0.00     0.234 C 
HETATM   19  O2  UNL     1      22.242   3.015  47.124  1.00  0.00    -0.307 OA
ENDBRANCH  17  18
ENDBRANCH  16  17
ENDBRANCH  11  15
ENDBRANCH   1  11
BRANCH   8  20
HETATM   20  O4  UNL     1      26.281  -1.227  53.985  1.00  0.00    -0.336 OA
HETATM   21  C13 UNL     1      26.902  -0.923  52.734  1.00  0.00     0.212 C 
ENDBRANCH   8  20
TORSDOF 7
ENDMDL
MODEL 2
REMARK VINA RESULT:      -6.1      1.229      2.878
REMARK  7 active torsions:
REMARK  status: ('A' for Active; 'I' for Inactive)
REMARK    1  A    between atoms: O1_2  and  C2_3 
REMARK    2  A    between atoms: C2_3  and  N1_4 
REMARK    3  A    between atoms: N1_4  and  C3_5 
REMARK    4  A    between atoms: N1_4  and  C7_10 
REMARK    5  A    between atoms: C4_6  and  C5_7 
REMARK    6  A    between atoms: C5_7  and  C6_8 
REMARK    7  A    between atoms: C12_17  and  O4_18 
ROOT
HETATM    1  C7  UNL     1      22.712  -0.041  53.106  1.00  0.00     0.138 C 
HETATM    2  C8  UNL     1      21.756  -0.641  53.815  1.00  0.00    -0.013 C 
HETATM    3  C9  UNL     1      20.388  -0.139  53.533  1.00  0.00     0.050 C 
HETATM    4  C10 UNL     1      21.861  -1.722  54.832  1.00  0.00     0.215 C 
HETATM    5  O3  UNL     1      22.935  -1.547  55.731  1.00  0.00    -0.327 OA
HETATM    6  C11 UNL     1      24.275  -1.219  55.494  1.00  0.00     0.212 C 
HETATM    7  N2  UNL     1      25.119  -1.265  56.471  1.00  0.00    -0.274 NA
HETATM    8  C12 UNL     1      24.814  -0.815  54.181  1.00  0.00     0.220 C 
HETATM    9  N3  UNL     1      24.132  -0.318  53.181  1.00  0.00    -0.203 NA
HETATM   10  H16 UNL     1      26.109  -1.018  56.280  1.00  0.00     0.189 HD
ENDROOT
BRANCH   1  11
HETATM   11  N1  UNL     1      22.432   0.979  52.170  1.00  0.00    -0.320 N 
BRANCH  11  12
HETATM   12  C2  UNL     1      21.877   0.614  50.879  1.00  0.00     0.299 C 
BRANCH  12  13
HETATM   13  O1  UNL     1      22.340   1.417  49.835  1.00  0.00    -0.377 OA
HETATM   14  C1  UNL     1      21.495   1.176  48.733  1.00  0.00     0.203 C 
ENDBRANCH  12  13
ENDBRANCH  11  12
BRANCH  11  15
HETATM   15  C3  UNL     1      22.684   2.308  52.490  1.00  0.00     0.091 C 
HETATM   16  C4  UNL     1      23.593   3.258  52.397  1.00  0.00    -0.003 C 
BRANCH  16  17
HETATM   17  C5  UNL     1      23.509   4.663  52.889  1.00  0.00     0.097 C 
BRANCH  17  18
HETATM   18  C6  UNL     1      23.741   5.655  51.787  1.00  0.00     0.234 C 
HETATM   19  O2  UNL     1      24.371   6.403  51.071  1.00  0.00    -0.307 OA
ENDBRANCH  17  18
ENDBRANCH  16  17
ENDBRANCH  11  15
ENDBRANCH   1  11
BRANCH   8  20
HETATM   20  O4  UNL     1      26.147  -0.959  53.961  1.00  0.00    -0.336 OA
HETATM   21  C13 UNL     1      26.604  -1.350  52.664  1.00  0.00     0.212 C 
ENDBRANCH   8  20
TORSDOF 7
ENDMDL
MODEL 3
REMARK VINA RESULT:      -5.8      1.336      1.464
REMARK  7 active torsions:
REMARK  status: ('A' for Active; 'I' for Inactive)
REMARK    1  A    between atoms: O1_2  and  C2_3 
REMARK    2  A    between atoms: C2_3  and  N1_4 
REMARK    3  A    between atoms: N1_4  and  C3_5 
REMARK    4  A    between atoms: N1_4  and  C7_10 
REMARK    5  A    between atoms: C4_6  and  C5_7 
REMARK    6  A    between atoms: C5_7  and  C6_8 
REMARK    7  A    between atoms: C12_17  and  O4_18 
ROOT
HETATM    1  C7  UNL     1      22.914   0.426  53.248  1.00  0.00     0.138 C 
HETATM    2  C8  UNL     1      21.896  -0.142  53.894  1.00  0.00    -0.013 C 
HETATM    3  C9  UNL     1      20.592   0.534  53.681  1.00  0.00     0.050 C 
HETATM    4  C10 UNL     1      21.879  -1.334  54.783  1.00  0.00     0.215 C 
HETATM    5  O3  UNL     1      22.963  -1.378  55.687  1.00  0.00    -0.327 OA
HETATM    6  C11 UNL     1      24.331  -1.174  55.476  1.00  0.00     0.212 C 
HETATM    7  N2  UNL     1      25.161  -1.419  56.436  1.00  0.00    -0.274 NA
HETATM    8  C12 UNL     1      24.915  -0.687  54.211  1.00  0.00     0.220 C 
HETATM    9  N3  UNL     1      24.295  -0.010  53.279  1.00  0.00    -0.203 NA
HETATM   10  H16 UNL     1      26.174  -1.262  56.265  1.00  0.00     0.189 HD
ENDROOT
BRANCH   1  11
HETATM   11  N1  UNL     1      22.750   1.568  52.433  1.00  0.00    -0.320 N 
BRANCH  11  12
HETATM   12  C2  UNL     1      23.467   2.783  52.776  1.00  0.00     0.299 C 
BRANCH  12  13
HETATM   13  O1  UNL     1      22.813   3.943  52.357  1.00  0.00    -0.377 OA
HETATM   14  C1  UNL     1      23.694   5.017  52.602  1.00  0.00     0.203 C 
ENDBRANCH  12  13
ENDBRANCH  11  12
BRANCH  11  15
HETATM   15  C3  UNL     1      21.919   1.518  51.320  1.00  0.00     0.091 C 
HETATM   16  C4  UNL     1      21.915   1.297  50.020  1.00  0.00    -0.003 C 
BRANCH  16  17
HETATM   17  C5  UNL     1      20.754   1.332  49.086  1.00  0.00     0.097 C 
BRANCH  17  18
HETATM   18  C6  UNL     1      19.466   1.002  49.783  1.00  0.00     0.234 C 
HETATM   19  O2  UNL     1      18.305   1.132  50.105  1.00  0.00    -0.307 OA
ENDBRANCH  17  18
ENDBRANCH  16  17
ENDBRANCH  11  15
ENDBRANCH   1  11
BRANCH   8  20
HETATM   20  O4  UNL     1      26.225  -0.949  53.965  1.00  0.00    -0.336 OA
HETATM   21  C13 UNL     1      26.627  -1.334  52.649  1.00  0.00     0.212 C 
ENDBRANCH   8  20
TORSDOF 7
ENDMDL
MODEL 4
REMARK VINA RESULT:      -5.5      1.907      2.242
REMARK  7 active torsions:
REMARK  status: ('A' for Active; 'I' for Inactive)
REMARK    1  A    between atoms: O1_2  and  C2_3 
REMARK    2  A    between atoms: C2_3  and  N1_4 
REMARK    3  A    between atoms: N1_4  and  C3_5 
REMARK    4  A    between atoms: N1_4  and  C7_10 
REMARK    5  A    between atoms: C4_6  and  C5_7 
REMARK    6  A    between atoms: C5_7  and  C6_8 
REMARK    7  A    between atoms: C12_17  and  O4_18 
ROOT
HETATM    1  C7  UNL     1      24.345   1.540  52.401  1.00  0.00     0.138 C 
HETATM    2  C8  UNL     1      23.547   0.584  52.875  1.00  0.00    -0.013 C 
HETATM    3  C9  UNL     1      22.099   0.876  52.726  1.00  0.00     0.050 C 
HETATM    4  C10 UNL     1      23.892  -0.711  53.521  1.00  0.00     0.215 C 
HETATM    5  O3  UNL     1      24.946  -0.611  54.455  1.00  0.00    -0.327 OA
HETATM    6  C11 UNL     1      26.189   0.023  54.357  1.00  0.00     0.212 C 
HETATM    7  N2  UNL     1      27.062  -0.151  55.295  1.00  0.00    -0.274 NA
HETATM    8  C12 UNL     1      26.594   0.897  53.240  1.00  0.00     0.220 C 
HETATM    9  N3  UNL     1      25.794   1.531  52.421  1.00  0.00    -0.203 NA
HETATM   10  H16 UNL     1      27.980   0.326  55.210  1.00  0.00     0.189 HD
ENDROOT
BRANCH   1  11
HETATM   11  N1  UNL     1      23.843   2.721  51.810  1.00  0.00    -0.320 N 
BRANCH  11  12
HETATM   12  C2  UNL     1      23.841   3.948  52.586  1.00  0.00     0.299 C 
BRANCH  12  13
HETATM   13  O1  UNL     1      22.955   4.907  52.093  1.00  0.00    -0.377 OA
HETATM   14  C1  UNL     1      23.736   6.003  51.670  1.00  0.00     0.203 C 
ENDBRANCH  12  13
ENDBRANCH  11  12
BRANCH  11  15
HETATM   15  C3  UNL     1      23.367   2.699  50.504  1.00  0.00     0.091 C 
HETATM   16  C4  UNL     1      23.640   3.102  49.279  1.00  0.00    -0.003 C 
BRANCH  16  17
HETATM   17  C5  UNL     1      22.843   2.878  48.039  1.00  0.00     0.097 C 
BRANCH  17  18
HETATM   18  C6  UNL     1      21.830   1.785  48.217  1.00  0.00     0.234 C 
HETATM   19  O2  UNL     1      21.420   0.668  48.448  1.00  0.00    -0.307 OA
ENDBRANCH  17  18
ENDBRANCH  16  17
ENDBRANCH  11  15
ENDBRANCH   1  11
BRANCH   8  20
HETATM   20  O4  UNL     1      27.921   1.084  53.017  1.00  0.00    -0.336 OA
HETATM   21  C13 UNL     1      28.520   2.334  53.366  1.00  0.00     0.212 C 
ENDBRANCH   8  20
TORSDOF 7
ENDMDL
MODEL 5
REMARK VINA RESULT:      -5.5      2.617      4.523
REMARK  7 active torsions:
REMARK  status: ('A' for Active; 'I' for Inactive)
REMARK    1  A    between atoms: O1_2  and  C2_3 
REMARK    2  A    between atoms: C2_3  and  N1_4 
REMARK    3  A    between atoms: N1_4  and  C3_5 
REMARK    4  A    between atoms: N1_4  and  C7_10 
REMARK    5  A    between atoms: C4_6  and  C5_7 
REMARK    6  A    between atoms: C5_7  and  C6_8 
REMARK    7  A    between atoms: C12_17  and  O4_18 
ROOT
HETATM    1  C7  UNL     1      25.141   0.676  53.002  1.00  0.00     0.138 C 
HETATM    2  C8  UNL     1      25.806  -0.055  53.896  1.00  0.00    -0.013 C 
HETATM    3  C9  UNL     1      24.934  -0.801  54.837  1.00  0.00     0.050 C 
HETATM    4  C10 UNL     1      27.272  -0.228  54.084  1.00  0.00     0.215 C 
HETATM    5  O3  UNL     1      27.999   0.978  53.976  1.00  0.00    -0.327 OA
HETATM    6  C11 UNL     1      27.932   1.997  53.019  1.00  0.00     0.212 C 
HETATM    7  N2  UNL     1      28.812   2.943  53.041  1.00  0.00    -0.274 NA
HETATM    8  C12 UNL     1      26.907   2.080  51.961  1.00  0.00     0.220 C 
HETATM    9  N3  UNL     1      25.729   1.510  51.974  1.00  0.00    -0.203 NA
HETATM   10  H16 UNL     1      28.749   3.693  52.326  1.00  0.00     0.189 HD
ENDROOT
BRANCH   1  11
HETATM   11  N1  UNL     1      23.730   0.725  52.964  1.00  0.00    -0.320 N 
BRANCH  11  12
HETATM   12  C2  UNL     1      22.984  -0.521  52.971  1.00  0.00     0.299 C 
BRANCH  12  13
HETATM   13  O1  UNL     1      21.674  -0.373  53.429  1.00  0.00    -0.377 OA
HETATM   14  C1  UNL     1      21.391  -1.504  54.222  1.00  0.00     0.203 C 
ENDBRANCH  12  13
ENDBRANCH  11  12
BRANCH  11  15
HETATM   15  C3  UNL     1      23.075   1.951  52.925  1.00  0.00     0.091 C 
HETATM   16  C4  UNL     1      22.456   2.787  52.115  1.00  0.00    -0.003 C 
BRANCH  16  17
HETATM   17  C5  UNL     1      21.836   4.100  52.449  1.00  0.00     0.097 C 
BRANCH  17  18
HETATM   18  C6  UNL     1      21.699   4.977  51.238  1.00  0.00     0.234 C 
HETATM   19  O2  UNL     1      21.620   6.011  50.611  1.00  0.00    -0.307 OA
ENDBRANCH  17  18
ENDBRANCH  16  17
ENDBRANCH  11  15
ENDBRANCH   1  11
BRANCH   8  20
HETATM   20  O4  UNL     1      27.184   2.816  50.853  1.00  0.00    -0.336 OA
HETATM   21  C13 UNL     1      26.112   3.243  50.010  1.00  0.00     0.212 C 
ENDBRANCH   8  20
TORSDOF 7
ENDMDL
MODEL 6
REMARK VINA RESULT:      -5.4      1.710      3.201
REMARK  7 active torsions:
REMARK  status: ('A' for Active; 'I' for Inactive)
REMARK    1  A    between atoms: O1_2  and  C2_3 
REMARK    2  A    between atoms: C2_3  and  N1_4 
REMARK    3  A    between atoms: N1_4  and  C3_5 
REMARK    4  A    between atoms: N1_4  and  C7_10 
REMARK    5  A    between atoms: C4_6  and  C5_7 
REMARK    6  A    between atoms: C5_7  and  C6_8 
REMARK    7  A    between atoms: C12_17  and  O4_18 
ROOT
HETATM    1  C7  UNL     1      24.768   1.975  52.302  1.00  0.00     0.138 C 
HETATM    2  C8  UNL     1      25.977   2.201  51.788  1.00  0.00    -0.013 C 
HETATM    3  C9  UNL     1      26.001   3.254  50.742  1.00  0.00     0.050 C 
HETATM    4  C10 UNL     1      27.282   1.562  52.106  1.00  0.00     0.215 C 
HETATM    5  O3  UNL     1      27.200   0.160  52.258  1.00  0.00    -0.327 OA
HETATM    6  C11 UNL     1      26.292  -0.624  52.977  1.00  0.00     0.212 C 
HETATM    7  N2  UNL     1      26.509  -1.893  53.095  1.00  0.00    -0.274 NA
HETATM    8  C12 UNL     1      25.074  -0.104  53.628  1.00  0.00     0.220 C 
HETATM    9  N3  UNL     1      24.444   1.002  53.326  1.00  0.00    -0.203 NA
HETATM   10  H16 UNL     1      25.826  -2.463  53.631  1.00  0.00     0.189 HD
ENDROOT
BRANCH   1  11
HETATM   11  N1  UNL     1      23.621   2.683  51.881  1.00  0.00    -0.320 N 
BRANCH  11  12
HETATM   12  C2  UNL     1      23.326   3.967  52.491  1.00  0.00     0.299 C 
BRANCH  12  13
HETATM   13  O1  UNL     1      22.569   4.804  51.669  1.00  0.00    -0.377 OA
HETATM   14  C1  UNL     1      23.403   5.882  51.309  1.00  0.00     0.203 C 
ENDBRANCH  12  13
ENDBRANCH  11  12
BRANCH  11  15
HETATM   15  C3  UNL     1      22.798   2.154  50.893  1.00  0.00     0.091 C 
HETATM   16  C4  UNL     1      22.013   1.132  50.615  1.00  0.00    -0.003 C 
BRANCH  16  17
HETATM   17  C5  UNL     1      21.236   0.883  49.368  1.00  0.00     0.097 C 
BRANCH  17  18
HETATM   18  C6  UNL     1      21.922   1.453  48.160  1.00  0.00     0.234 C 
HETATM   19  O2  UNL     1      22.635   2.204  47.531  1.00  0.00    -0.307 OA
ENDBRANCH  17  18
ENDBRANCH  16  17
ENDBRANCH  11  15
ENDBRANCH   1  11
BRANCH   8  20
HETATM   20  O4  UNL     1      24.529  -0.825  54.642  1.00  0.00    -0.336 OA
HETATM   21  C13 UNL     1      23.112  -1.013  54.684  1.00  0.00     0.212 C 
ENDBRANCH   8  20
TORSDOF 7
ENDMDL
MODEL 7
REMARK VINA RESULT:      -5.2      2.571      3.924
REMARK  7 active torsions:
REMARK  status: ('A' for Active; 'I' for Inactive)
REMARK    1  A    between atoms: O1_2  and  C2_3 
REMARK    2  A    between atoms: C2_3  and  N1_4 
REMARK    3  A    between atoms: N1_4  and  C3_5 
REMARK    4  A    between atoms: N1_4  and  C7_10 
REMARK    5  A    between atoms: C4_6  and  C5_7 
REMARK    6  A    between atoms: C5_7  and  C6_8 
REMARK    7  A    between atoms: C12_17  and  O4_18 
ROOT
HETATM    1  C7  UNL     1      24.209   1.555  52.312  1.00  0.00     0.138 C 
HETATM    2  C8  UNL     1      24.407   0.404  52.955  1.00  0.00    -0.013 C 
HETATM    3  C9  UNL     1      23.207  -0.106  53.663  1.00  0.00     0.050 C 
HETATM    4  C10 UNL     1      25.636  -0.426  53.064  1.00  0.00     0.215 C 
HETATM    5  O3  UNL     1      26.809   0.329  53.286  1.00  0.00    -0.327 OA
HETATM    6  C11 UNL     1      27.277   1.487  52.654  1.00  0.00     0.212 C 
HETATM    7  N2  UNL     1      28.465   1.918  52.926  1.00  0.00    -0.274 NA
HETATM    8  C12 UNL     1      26.501   2.275  51.677  1.00  0.00     0.220 C 
HETATM    9  N3  UNL     1      25.199   2.288  51.548  1.00  0.00    -0.203 NA
HETATM   10  H16 UNL     1      28.798   2.778  52.450  1.00  0.00     0.189 HD
ENDROOT
BRANCH   1  11
HETATM   11  N1  UNL     1      22.961   2.216  52.310  1.00  0.00    -0.320 N 
BRANCH  11  12
HETATM   12  C2  UNL     1      22.910   3.618  52.687  1.00  0.00     0.299 C 
BRANCH  12  13
HETATM   13  O1  UNL     1      22.060   4.373  51.876  1.00  0.00    -0.377 OA
HETATM   14  C1  UNL     1      22.875   5.017  50.923  1.00  0.00     0.203 C 
ENDBRANCH  12  13
ENDBRANCH  11  12
BRANCH  11  15
HETATM   15  C3  UNL     1      21.808   1.530  51.947  1.00  0.00     0.091 C 
HETATM   16  C4  UNL     1      21.063   1.201  50.911  1.00  0.00    -0.003 C 
BRANCH  16  17
HETATM   17  C5  UNL     1      19.807   0.398  50.900  1.00  0.00     0.097 C 
BRANCH  17  18
HETATM   18  C6  UNL     1      19.363   0.038  52.288  1.00  0.00     0.234 C 
HETATM   19  O2  UNL     1      19.333  -0.591  53.324  1.00  0.00    -0.307 OA
ENDBRANCH  17  18
ENDBRANCH  16  17
ENDBRANCH  11  15
ENDBRANCH   1  11
BRANCH   8  20
HETATM   20  O4  UNL     1      27.178   3.077  50.816  1.00  0.00    -0.336 OA
HETATM   21  C13 UNL     1      26.474   3.700  49.739  1.00  0.00     0.212 C 
ENDBRANCH   8  20
TORSDOF 7
ENDMDL
MODEL 8
REMARK VINA RESULT:      -5.2      2.246      3.001
REMARK  7 active torsions:
REMARK  status: ('A' for Active; 'I' for Inactive)
REMARK    1  A    between atoms: O1_2  and  C2_3 
REMARK    2  A    between atoms: C2_3  and  N1_4 
REMARK    3  A    between atoms: N1_4  and  C3_5 
REMARK    4  A    between atoms: N1_4  and  C7_10 
REMARK    5  A    between atoms: C4_6  and  C5_7 
REMARK    6  A    between atoms: C5_7  and  C6_8 
REMARK    7  A    between atoms: C12_17  and  O4_18 
ROOT
HETATM    1  C7  UNL     1      23.983   1.480  52.182  1.00  0.00     0.138 C 
HETATM    2  C8  UNL     1      24.037   0.541  53.127  1.00  0.00    -0.013 C 
HETATM    3  C9  UNL     1      22.707   0.065  53.583  1.00  0.00     0.050 C 
HETATM    4  C10 UNL     1      25.217  -0.087  53.779  1.00  0.00     0.215 C 
HETATM    5  O3  UNL     1      26.232   0.836  54.115  1.00  0.00    -0.327 OA
HETATM    6  C11 UNL     1      26.810   1.865  53.362  1.00  0.00     0.212 C 
HETATM    7  N2  UNL     1      27.840   2.488  53.832  1.00  0.00    -0.274 NA
HETATM    8  C12 UNL     1      26.322   2.307  52.042  1.00  0.00     0.220 C 
HETATM    9  N3  UNL     1      25.118   2.132  51.560  1.00  0.00    -0.203 NA
HETATM   10  H16 UNL     1      28.258   3.250  53.262  1.00  0.00     0.189 HD
ENDROOT
BRANCH   1  11
HETATM   11  N1  UNL     1      22.761   1.967  51.668  1.00  0.00    -0.320 N 
BRANCH  11  12
HETATM   12  C2  UNL     1      21.813   2.583  52.578  1.00  0.00     0.299 C 
BRANCH  12  13
HETATM   13  O1  UNL     1      21.306   3.795  52.104  1.00  0.00    -0.377 OA
HETATM   14  C1  UNL     1      22.274   4.779  52.388  1.00  0.00     0.203 C 
ENDBRANCH  12  13
ENDBRANCH  11  12
BRANCH  11  15
HETATM   15  C3  UNL     1      22.483   1.858  50.310  1.00  0.00     0.091 C 
HETATM   16  C4  UNL     1      21.750   1.196  49.437  1.00  0.00    -0.003 C 
BRANCH  16  17
HETATM   17  C5  UNL     1      21.711   1.362  47.956  1.00  0.00     0.097 C 
BRANCH  17  18
HETATM   18  C6  UNL     1      21.763   2.807  47.555  1.00  0.00     0.234 C 
HETATM   19  O2  UNL     1      22.198   3.803  47.016  1.00  0.00    -0.307 OA
ENDBRANCH  17  18
ENDBRANCH  16  17
ENDBRANCH  11  15
ENDBRANCH   1  11
BRANCH   8  20
HETATM   20  O4  UNL     1      27.184   2.965  51.225  1.00  0.00    -0.336 OA
HETATM   21  C13 UNL     1      26.697   3.540  50.010  1.00  0.00     0.212 C 
ENDBRANCH   8  20
TORSDOF 7
ENDMDL
MODEL 9
REMARK VINA RESULT:      -5.1     22.797     25.587
REMARK  7 active torsions:
REMARK  status: ('A' for Active; 'I' for Inactive)
REMARK    1  A    between atoms: O1_2  and  C2_3 
REMARK    2  A    between atoms: C2_3  and  N1_4 
REMARK    3  A    between atoms: N1_4  and  C3_5 
REMARK    4  A    between atoms: N1_4  and  C7_10 
REMARK    5  A    between atoms: C4_6  and  C5_7 
REMARK    6  A    between atoms: C5_7  and  C6_8 
REMARK    7  A    between atoms: C12_17  and  O4_18 
ROOT
HETATM    1  C7  UNL     1      42.864   2.042  69.569  1.00  0.00     0.138 C 
HETATM    2  C8  UNL     1      43.655   1.203  70.237  1.00  0.00    -0.013 C 
HETATM    3  C9  UNL     1      44.735   1.872  71.004  1.00  0.00     0.050 C 
HETATM    4  C10 UNL     1      43.614  -0.282  70.321  1.00  0.00     0.215 C 
HETATM    5  O3  UNL     1      43.371  -0.909  69.079  1.00  0.00    -0.327 OA
HETATM    6  C11 UNL     1      42.418  -0.632  68.092  1.00  0.00     0.212 C 
HETATM    7  N2  UNL     1      42.284  -1.447  67.098  1.00  0.00    -0.274 NA
HETATM    8  C12 UNL     1      41.532   0.548  68.097  1.00  0.00     0.220 C 
HETATM    9  N3  UNL     1      41.741   1.673  68.732  1.00  0.00    -0.203 NA
HETATM   10  H16 UNL     1      41.574  -1.228  66.372  1.00  0.00     0.189 HD
ENDROOT
BRANCH   1  11
HETATM   11  N1  UNL     1      43.046   3.442  69.602  1.00  0.00    -0.320 N 
BRANCH  11  12
HETATM   12  C2  UNL     1      42.479   4.199  70.704  1.00  0.00     0.299 C 
BRANCH  12  13
HETATM   13  O1  UNL     1      41.137   4.530  70.509  1.00  0.00    -0.377 OA
HETATM   14  C1  UNL     1      41.033   5.924  70.691  1.00  0.00     0.203 C 
ENDBRANCH  12  13
ENDBRANCH  11  12
BRANCH  11  15
HETATM   15  C3  UNL     1      43.763   4.076  68.593  1.00  0.00     0.091 C 
HETATM   16  C4  UNL     1      44.624   3.858  67.619  1.00  0.00    -0.003 C 
BRANCH  16  17
HETATM   17  C5  UNL     1      45.214   4.849  66.674  1.00  0.00     0.097 C 
BRANCH  17  18
HETATM   18  C6  UNL     1      44.739   4.630  65.267  1.00  0.00     0.234 C 
HETATM   19  O2  UNL     1      44.150   4.085  64.358  1.00  0.00    -0.307 OA
ENDBRANCH  17  18
ENDBRANCH  16  17
ENDBRANCH  11  15
ENDBRANCH   1  11
BRANCH   8  20
HETATM   20  O4  UNL     1      40.382   0.491  67.377  1.00  0.00    -0.336 OA
HETATM   21  C13 UNL     1      39.161   0.145  68.035  1.00  0.00     0.212 C 
ENDBRANCH   8  20
TORSDOF 7
ENDMDL
