MODEL 1
REMARK VINA RESULT:      -8.8      0.000      0.000
REMARK  3 active torsions:
REMARK  status: ('A' for Active; 'I' for Inactive)
REMARK    1  A    between atoms: O1_2  and  C2_3 
REMARK    2  A    between atoms: C6_9  and  N3_10 
REMARK    3  A    between atoms: C10_15  and  O2_16 
ROOT
HETATM    1  C2  UNL     1      20.777   0.233  52.102  1.00  0.00     0.076 A 
HETATM    2  C3  UNL     1      20.849  -0.465  53.289  1.00  0.00     0.070 A 
HETATM    3  C4  UNL     1      22.043  -0.685  53.924  1.00  0.00     0.074 A 
HETATM    4  N1  UNL     1      22.162  -1.359  55.081  1.00  0.00    -0.241 NA
HETATM    5  C5  UNL     1      23.387  -1.533  55.645  1.00  0.00     0.236 A 
HETATM    6  N2  UNL     1      24.517  -1.048  55.082  1.00  0.00    -0.223 NA
HETATM    7  C6  UNL     1      24.413  -0.363  53.911  1.00  0.00     0.143 A 
HETATM    8  C13 UNL     1      23.192  -0.189  53.346  1.00  0.00     0.040 A 
HETATM    9  C14 UNL     1      23.166   0.511  52.169  1.00  0.00     0.027 A 
HETATM   10  C15 UNL     1      21.950   0.727  51.537  1.00  0.00    -0.028 A 
HETATM   11  C16 UNL     1      21.942   1.493  50.249  1.00  0.00     0.051 C 
ENDROOT
BRANCH   7  12
HETATM   12  N3  UNL     1      25.675   0.090  53.431  1.00  0.00    -0.335 N 
HETATM   13  C7  UNL     1      26.651  -0.005  54.490  1.00  0.00     0.131 C 
HETATM   14  C8  UNL     1      27.972   0.205  54.573  1.00  0.00     0.115 C 
HETATM   15  F1  UNL     1      28.634   0.025  55.744  1.00  0.00    -0.209 F 
HETATM   16  C9  UNL     1      28.823   0.645  53.411  1.00  0.00     0.135 C 
HETATM   17  C10 UNL     1      28.138   1.853  52.872  1.00  0.00     0.047 C 
HETATM   18  C11 UNL     1      26.949   1.811  52.318  1.00  0.00     0.026 C 
HETATM   19  C12 UNL     1      26.108   0.599  52.137  1.00  0.00     0.160 C 
BRANCH  17  20
HETATM   20  O2  UNL     1      28.834   3.049  52.987  1.00  0.00    -0.365 OA
HETATM   21  H9  UNL     1      29.705   3.170  53.471  1.00  0.00     0.217 HD
ENDBRANCH  17  20
ENDBRANCH   7  12
BRANCH   1  22
HETATM   22  O1  UNL     1      19.587   0.477  51.428  1.00  0.00    -0.355 OA
HETATM   23  C1  UNL     1      18.421  -0.157  51.918  1.00  0.00     0.210 C 
ENDBRANCH   1  22
TORSDOF 3
ENDMDL
MODEL 2
REMARK VINA RESULT:      -8.6      1.955      3.175
REMARK  3 active torsions:
REMARK  status: ('A' for Active; 'I' for Inactive)
REMARK    1  A    between atoms: O1_2  and  C2_3 
REMARK    2  A    between atoms: C6_9  and  N3_10 
REMARK    3  A    between atoms: C10_15  and  O2_16 
ROOT
HETATM    1  C2  UNL     1      20.944   0.074  52.804  1.00  0.00     0.076 A 
HETATM    2  C3  UNL     1      21.265   1.028  51.863  1.00  0.00     0.070 A 
HETATM    3  C4  UNL     1      22.562   1.413  51.643  1.00  0.00     0.074 A 
HETATM    4  N1  UNL     1      22.925   2.339  50.737  1.00  0.00    -0.241 NA
HETATM    5  C5  UNL     1      24.236   2.664  50.582  1.00  0.00     0.236 A 
HETATM    6  N2  UNL     1      25.214   2.087  51.316  1.00  0.00    -0.223 NA
HETATM    7  C6  UNL     1      24.864   1.149  52.238  1.00  0.00     0.143 A 
HETATM    8  C13 UNL     1      23.556   0.823  52.393  1.00  0.00     0.040 A 
HETATM    9  C14 UNL     1      23.281  -0.129  53.339  1.00  0.00     0.027 A 
HETATM   10  C15 UNL     1      21.963  -0.510  53.550  1.00  0.00    -0.028 A 
HETATM   11  C16 UNL     1      21.682  -1.552  54.590  1.00  0.00     0.051 C 
ENDROOT
BRANCH   7  12
HETATM   12  N3  UNL     1      25.988   0.625  52.937  1.00  0.00    -0.335 N 
HETATM   13  C7  UNL     1      26.961   1.674  53.130  1.00  0.00     0.131 C 
HETATM   14  C8  UNL     1      28.134   1.762  53.773  1.00  0.00     0.115 C 
HETATM   15  F1  UNL     1      28.841   2.921  53.776  1.00  0.00    -0.209 F 
HETATM   16  C9  UNL     1      28.760   0.621  54.530  1.00  0.00     0.135 C 
HETATM   17  C10 UNL     1      28.781  -0.513  53.564  1.00  0.00     0.047 C 
HETATM   18  C11 UNL     1      27.689  -1.078  53.103  1.00  0.00     0.026 C 
HETATM   19  C12 UNL     1      26.294  -0.702  53.451  1.00  0.00     0.160 C 
BRANCH  17  20
HETATM   20  O2  UNL     1      30.038  -0.951  53.167  1.00  0.00    -0.365 OA
HETATM   21  H9  UNL     1      30.800  -0.357  52.894  1.00  0.00     0.217 HD
ENDBRANCH  17  20
ENDBRANCH   7  12
BRANCH   1  22
HETATM   22  O1  UNL     1      19.643  -0.344  53.057  1.00  0.00    -0.355 OA
HETATM   23  C1  UNL     1      18.692  -0.167  52.025  1.00  0.00     0.210 C 
ENDBRANCH   1  22
TORSDOF 3
ENDMDL
MODEL 3
REMARK VINA RESULT:      -8.2      1.612      1.839
REMARK  3 active torsions:
REMARK  status: ('A' for Active; 'I' for Inactive)
REMARK    1  A    between atoms: O1_2  and  C2_3 
REMARK    2  A    between atoms: C6_9  and  N3_10 
REMARK    3  A    between atoms: C10_15  and  O2_16 
ROOT
HETATM    1  C2  UNL     1      20.189   0.708  50.896  1.00  0.00     0.076 A 
HETATM    2  C3  UNL     1      19.939  -0.019  52.040  1.00  0.00     0.070 A 
HETATM    3  C4  UNL     1      20.932  -0.312  52.937  1.00  0.00     0.074 A 
HETATM    4  N1  UNL     1      20.737  -1.017  54.066  1.00  0.00    -0.241 NA
HETATM    5  C5  UNL     1      21.779  -1.265  54.904  1.00  0.00     0.236 A 
HETATM    6  N2  UNL     1      23.031  -0.825  54.647  1.00  0.00    -0.223 NA
HETATM    7  C6  UNL     1      23.247  -0.110  53.509  1.00  0.00     0.143 A 
HETATM    8  C13 UNL     1      22.208   0.137  52.672  1.00  0.00     0.040 A 
HETATM    9  C14 UNL     1      22.500   0.862  51.547  1.00  0.00     0.027 A 
HETATM   10  C15 UNL     1      21.484   1.153  50.647  1.00  0.00    -0.028 A 
HETATM   11  C16 UNL     1      21.824   1.946  49.422  1.00  0.00     0.051 C 
ENDROOT
BRANCH   7  12
HETATM   12  N3  UNL     1      24.605   0.288  53.364  1.00  0.00    -0.335 N 
HETATM   13  C7  UNL     1      25.433  -0.884  53.206  1.00  0.00     0.131 C 
HETATM   14  C8  UNL     1      26.734  -1.091  52.961  1.00  0.00     0.115 C 
HETATM   15  F1  UNL     1      27.233  -2.350  52.864  1.00  0.00    -0.209 F 
HETATM   16  C9  UNL     1      27.736   0.017  52.775  1.00  0.00     0.135 C 
HETATM   17  C10 UNL     1      27.564   0.892  53.969  1.00  0.00     0.047 C 
HETATM   18  C11 UNL     1      26.467   1.573  54.202  1.00  0.00     0.026 C 
HETATM   19  C12 UNL     1      25.250   1.594  53.350  1.00  0.00     0.160 C 
BRANCH  17  20
HETATM   20  O2  UNL     1      28.645   0.950  54.840  1.00  0.00    -0.365 OA
HETATM   21  H9  UNL     1      29.013   1.788  55.253  1.00  0.00     0.217 HD
ENDBRANCH  17  20
ENDBRANCH   7  12
BRANCH   1  22
HETATM   22  O1  UNL     1      19.211   1.026  49.962  1.00  0.00    -0.355 OA
HETATM   23  C1  UNL     1      17.914   0.502  50.175  1.00  0.00     0.210 C 
ENDBRANCH   1  22
TORSDOF 3
ENDMDL
MODEL 4
REMARK VINA RESULT:      -8.0      3.456      5.997
REMARK  3 active torsions:
REMARK  status: ('A' for Active; 'I' for Inactive)
REMARK    1  A    between atoms: O1_2  and  C2_3 
REMARK    2  A    between atoms: C6_9  and  N3_10 
REMARK    3  A    between atoms: C10_15  and  O2_16 
ROOT
HETATM    1  C2  UNL     1      27.508   0.298  54.159  1.00  0.00     0.076 A 
HETATM    2  C3  UNL     1      26.379  -0.493  54.146  1.00  0.00     0.070 A 
HETATM    3  C4  UNL     1      25.195  -0.049  53.621  1.00  0.00     0.074 A 
HETATM    4  N1  UNL     1      24.068  -0.783  53.586  1.00  0.00    -0.241 NA
HETATM    5  C5  UNL     1      22.933  -0.265  53.046  1.00  0.00     0.236 A 
HETATM    6  N2  UNL     1      22.883   0.985  52.533  1.00  0.00    -0.223 NA
HETATM    7  C6  UNL     1      24.014   1.742  52.560  1.00  0.00     0.143 A 
HETATM    8  C13 UNL     1      25.148   1.226  53.099  1.00  0.00     0.040 A 
HETATM    9  C14 UNL     1      26.245   2.046  53.091  1.00  0.00     0.027 A 
HETATM   10  C15 UNL     1      27.439   1.582  53.625  1.00  0.00    -0.028 A 
HETATM   11  C16 UNL     1      28.628   2.494  53.610  1.00  0.00     0.051 C 
ENDROOT
BRANCH   7  12
HETATM   12  N3  UNL     1      23.821   3.031  51.989  1.00  0.00    -0.335 N 
HETATM   13  C7  UNL     1      24.714   3.195  50.866  1.00  0.00     0.131 C 
HETATM   14  C8  UNL     1      24.900   4.148  49.943  1.00  0.00     0.115 C 
HETATM   15  F1  UNL     1      25.848   4.012  48.981  1.00  0.00    -0.209 F 
HETATM   16  C9  UNL     1      24.099   5.422  49.885  1.00  0.00     0.135 C 
HETATM   17  C10 UNL     1      24.198   5.999  51.255  1.00  0.00     0.047 C 
HETATM   18  C11 UNL     1      23.681   5.418  52.312  1.00  0.00     0.026 C 
HETATM   19  C12 UNL     1      22.934   4.134  52.330  1.00  0.00     0.160 C 
BRANCH  17  20
HETATM   20  O2  UNL     1      24.879   7.205  51.359  1.00  0.00    -0.365 OA
HETATM   21  H9  UNL     1      25.830   7.361  51.078  1.00  0.00     0.217 HD
ENDBRANCH  17  20
ENDBRANCH   7  12
BRANCH   1  22
HETATM   22  O1  UNL     1      28.726  -0.115  54.682  1.00  0.00    -0.355 OA
HETATM   23  C1  UNL     1      29.555  -0.906  53.852  1.00  0.00     0.210 C 
ENDBRANCH   1  22
TORSDOF 3
ENDMDL
MODEL 5
REMARK VINA RESULT:      -8.0      1.981      2.630
REMARK  3 active torsions:
REMARK  status: ('A' for Active; 'I' for Inactive)
REMARK    1  A    between atoms: O1_2  and  C2_3 
REMARK    2  A    between atoms: C6_9  and  N3_10 
REMARK    3  A    between atoms: C10_15  and  O2_16 
ROOT
HETATM    1  C2  UNL     1      19.562  -0.864  53.466  1.00  0.00     0.076 A 
HETATM    2  C3  UNL     1      20.450  -1.354  54.400  1.00  0.00     0.070 A 
HETATM    3  C4  UNL     1      21.784  -1.047  54.354  1.00  0.00     0.074 A 
HETATM    4  N1  UNL     1      22.688  -1.500  55.241  1.00  0.00    -0.241 NA
HETATM    5  C5  UNL     1      23.995  -1.147  55.123  1.00  0.00     0.236 A 
HETATM    6  N2  UNL     1      24.439  -0.343  54.131  1.00  0.00    -0.223 NA
HETATM    7  C6  UNL     1      23.538   0.124  53.224  1.00  0.00     0.143 A 
HETATM    8  C13 UNL     1      22.232  -0.227  53.341  1.00  0.00     0.040 A 
HETATM    9  C14 UNL     1      21.384   0.281  52.393  1.00  0.00     0.027 A 
HETATM   10  C15 UNL     1      20.035  -0.037  52.452  1.00  0.00    -0.028 A 
HETATM   11  C16 UNL     1      19.124   0.527  51.405  1.00  0.00     0.051 C 
ENDROOT
BRANCH   7  12
HETATM   12  N3  UNL     1      24.138   0.956  52.237  1.00  0.00    -0.335 N 
HETATM   13  C7  UNL     1      25.552   1.068  52.503  1.00  0.00     0.131 C 
HETATM   14  C8  UNL     1      26.586   1.644  51.872  1.00  0.00     0.115 C 
HETATM   15  F1  UNL     1      27.840   1.576  52.385  1.00  0.00    -0.209 F 
HETATM   16  C9  UNL     1      26.458   2.396  50.574  1.00  0.00     0.135 C 
HETATM   17  C10 UNL     1      25.376   3.390  50.813  1.00  0.00     0.047 C 
HETATM   18  C11 UNL     1      24.128   3.049  51.036  1.00  0.00     0.026 C 
HETATM   19  C12 UNL     1      23.595   1.662  51.086  1.00  0.00     0.160 C 
BRANCH  17  20
HETATM   20  O2  UNL     1      25.761   4.725  50.789  1.00  0.00    -0.365 OA
HETATM   21  H9  UNL     1      25.159   5.506  50.979  1.00  0.00     0.217 HD
ENDBRANCH  17  20
ENDBRANCH   7  12
BRANCH   1  22
HETATM   22  O1  UNL     1      18.203  -1.152  53.479  1.00  0.00    -0.355 OA
HETATM   23  C1  UNL     1      17.827  -2.513  53.563  1.00  0.00     0.210 C 
ENDBRANCH   1  22
TORSDOF 3
ENDMDL
MODEL 6
REMARK VINA RESULT:      -7.8      3.686      5.015
REMARK  3 active torsions:
REMARK  status: ('A' for Active; 'I' for Inactive)
REMARK    1  A    between atoms: O1_2  and  C2_3 
REMARK    2  A    between atoms: C6_9  and  N3_10 
REMARK    3  A    between atoms: C10_15  and  O2_16 
ROOT
HETATM    1  C2  UNL     1      23.235  -0.407  53.024  1.00  0.00     0.076 A 
HETATM    2  C3  UNL     1      24.571  -0.516  53.348  1.00  0.00     0.070 A 
HETATM    3  C4  UNL     1      25.491   0.407  52.926  1.00  0.00     0.074 A 
HETATM    4  N1  UNL     1      26.803   0.344  53.216  1.00  0.00    -0.241 NA
HETATM    5  C5  UNL     1      27.650   1.302  52.756  1.00  0.00     0.236 A 
HETATM    6  N2  UNL     1      27.224   2.340  52.001  1.00  0.00    -0.223 NA
HETATM    7  C6  UNL     1      25.899   2.420  51.699  1.00  0.00     0.143 A 
HETATM    8  C13 UNL     1      25.053   1.464  52.157  1.00  0.00     0.040 A 
HETATM    9  C14 UNL     1      23.735   1.611  51.812  1.00  0.00     0.027 A 
HETATM   10  C15 UNL     1      22.814   0.669  52.247  1.00  0.00    -0.028 A 
HETATM   11  C16 UNL     1      21.377   0.845  51.859  1.00  0.00     0.051 C 
ENDROOT
BRANCH   7  12
HETATM   12  N3  UNL     1      25.590   3.558  50.901  1.00  0.00    -0.335 N 
HETATM   13  C7  UNL     1      26.680   3.815  49.991  1.00  0.00     0.131 C 
HETATM   14  C8  UNL     1      26.886   4.683  48.991  1.00  0.00     0.115 C 
HETATM   15  F1  UNL     1      28.051   4.680  48.295  1.00  0.00    -0.209 F 
HETATM   16  C9  UNL     1      25.877   5.713  48.557  1.00  0.00     0.135 C 
HETATM   17  C10 UNL     1      25.507   6.435  49.806  1.00  0.00     0.047 C 
HETATM   18  C11 UNL     1      24.876   5.861  50.802  1.00  0.00     0.026 C 
HETATM   19  C12 UNL     1      24.434   4.443  50.860  1.00  0.00     0.160 C 
BRANCH  17  20
HETATM   20  O2  UNL     1      25.871   7.775  49.864  1.00  0.00    -0.365 OA
HETATM   21  H9  UNL     1      26.027   8.298  50.706  1.00  0.00     0.217 HD
ENDBRANCH  17  20
ENDBRANCH   7  12
BRANCH   1  22
HETATM   22  O1  UNL     1      22.272  -1.320  53.433  1.00  0.00    -0.355 OA
HETATM   23  C1  UNL     1      21.980  -1.384  54.815  1.00  0.00     0.210 C 
ENDBRANCH   1  22
TORSDOF 3
ENDMDL
MODEL 7
REMARK VINA RESULT:      -7.8      3.003      6.083
REMARK  3 active torsions:
REMARK  status: ('A' for Active; 'I' for Inactive)
REMARK    1  A    between atoms: O1_2  and  C2_3 
REMARK    2  A    between atoms: C6_9  and  N3_10 
REMARK    3  A    between atoms: C10_15  and  O2_16 
ROOT
HETATM    1  C2  UNL     1      26.202  -0.149  53.518  1.00  0.00     0.076 A 
HETATM    2  C3  UNL     1      25.286  -0.792  54.322  1.00  0.00     0.070 A 
HETATM    3  C4  UNL     1      23.940  -0.568  54.200  1.00  0.00     0.074 A 
HETATM    4  N1  UNL     1      23.008  -1.171  54.960  1.00  0.00    -0.241 NA
HETATM    5  C5  UNL     1      21.691  -0.891  54.774  1.00  0.00     0.236 A 
HETATM    6  N2  UNL     1      21.265  -0.013  53.838  1.00  0.00    -0.223 NA
HETATM    7  C6  UNL     1      22.194   0.606  53.060  1.00  0.00     0.143 A 
HETATM    8  C13 UNL     1      23.509   0.328  53.245  1.00  0.00     0.040 A 
HETATM    9  C14 UNL     1      24.386   0.989  52.425  1.00  0.00     0.027 A 
HETATM   10  C15 UNL     1      25.746   0.752  52.559  1.00  0.00    -0.028 A 
HETATM   11  C16 UNL     1      26.689   1.485  51.655  1.00  0.00     0.051 C 
ENDROOT
BRANCH   7  12
HETATM   12  N3  UNL     1      21.610   1.502  52.121  1.00  0.00    -0.335 N 
HETATM   13  C7  UNL     1      21.683   0.924  50.800  1.00  0.00     0.131 C 
HETATM   14  C8  UNL     1      21.233   1.282  49.590  1.00  0.00     0.115 C 
HETATM   15  F1  UNL     1      21.467   0.507  48.501  1.00  0.00    -0.209 F 
HETATM   16  C9  UNL     1      20.447   2.541  49.329  1.00  0.00     0.135 C 
HETATM   17  C10 UNL     1      21.267   3.633  49.923  1.00  0.00     0.047 C 
HETATM   18  C11 UNL     1      21.496   3.734  51.212  1.00  0.00     0.026 C 
HETATM   19  C12 UNL     1      20.995   2.814  52.266  1.00  0.00     0.160 C 
BRANCH  17  20
HETATM   20  O2  UNL     1      21.790   4.557  49.027  1.00  0.00    -0.365 OA
HETATM   21  H9  UNL     1      21.515   4.653  48.066  1.00  0.00     0.217 HD
ENDBRANCH  17  20
ENDBRANCH   7  12
BRANCH   1  22
HETATM   22  O1  UNL     1      27.574  -0.349  53.610  1.00  0.00    -0.355 OA
HETATM   23  C1  UNL     1      28.223   0.124  54.774  1.00  0.00     0.210 C 
ENDBRANCH   1  22
TORSDOF 3
ENDMDL
MODEL 8
REMARK VINA RESULT:      -7.7      3.474      7.138
REMARK  3 active torsions:
REMARK  status: ('A' for Active; 'I' for Inactive)
REMARK    1  A    between atoms: O1_2  and  C2_3 
REMARK    2  A    between atoms: C6_9  and  N3_10 
REMARK    3  A    between atoms: C10_15  and  O2_16 
ROOT
HETATM    1  C2  UNL     1      27.014   0.296  53.648  1.00  0.00     0.076 A 
HETATM    2  C3  UNL     1      27.507   1.217  52.749  1.00  0.00     0.070 A 
HETATM    3  C4  UNL     1      26.677   1.956  51.948  1.00  0.00     0.074 A 
HETATM    4  N1  UNL     1      27.111   2.866  51.057  1.00  0.00    -0.241 NA
HETATM    5  C5  UNL     1      26.218   3.558  50.300  1.00  0.00     0.236 A 
HETATM    6  N2  UNL     1      24.884   3.368  50.404  1.00  0.00    -0.223 NA
HETATM    7  C6  UNL     1      24.427   2.452  51.301  1.00  0.00     0.143 A 
HETATM    8  C13 UNL     1      25.317   1.760  52.057  1.00  0.00     0.040 A 
HETATM    9  C14 UNL     1      24.784   0.855  52.938  1.00  0.00     0.027 A 
HETATM   10  C15 UNL     1      25.637   0.114  53.743  1.00  0.00    -0.028 A 
HETATM   11  C16 UNL     1      25.036  -0.872  54.698  1.00  0.00     0.051 C 
ENDROOT
BRANCH   7  12
HETATM   12  N3  UNL     1      23.007   2.354  51.307  1.00  0.00    -0.335 N 
HETATM   13  C7  UNL     1      22.571   1.666  50.115  1.00  0.00     0.131 C 
HETATM   14  C8  UNL     1      21.387   1.241  49.654  1.00  0.00     0.115 C 
HETATM   15  F1  UNL     1      21.292   0.604  48.460  1.00  0.00    -0.209 F 
HETATM   16  C9  UNL     1      20.088   1.422  50.395  1.00  0.00     0.135 C 
HETATM   17  C10 UNL     1      20.030   2.876  50.714  1.00  0.00     0.047 C 
HETATM   18  C11 UNL     1      20.875   3.462  51.530  1.00  0.00     0.026 C 
HETATM   19  C12 UNL     1      21.996   2.804  52.252  1.00  0.00     0.160 C 
BRANCH  17  20
HETATM   20  O2  UNL     1      19.017   3.595  50.093  1.00  0.00    -0.365 OA
HETATM   21  H9  UNL     1      18.082   3.699  50.441  1.00  0.00     0.217 HD
ENDBRANCH  17  20
ENDBRANCH   7  12
BRANCH   1  22
HETATM   22  O1  UNL     1      27.821  -0.473  54.477  1.00  0.00    -0.355 OA
HETATM   23  C1  UNL     1      29.211  -0.474  54.211  1.00  0.00     0.210 C 
ENDBRANCH   1  22
TORSDOF 3
ENDMDL
MODEL 9
REMARK VINA RESULT:      -7.7      8.895     11.187
REMARK  3 active torsions:
REMARK  status: ('A' for Active; 'I' for Inactive)
REMARK    1  A    between atoms: O1_2  and  C2_3 
REMARK    2  A    between atoms: C6_9  and  N3_10 
REMARK    3  A    between atoms: C10_15  and  O2_16 
ROOT
HETATM    1  C2  UNL     1      27.790   7.156  48.526  1.00  0.00     0.076 A 
HETATM    2  C3  UNL     1      28.540   8.284  48.274  1.00  0.00     0.070 A 
HETATM    3  C4  UNL     1      29.861   8.205  47.918  1.00  0.00     0.074 A 
HETATM    4  N1  UNL     1      30.633   9.277  47.662  1.00  0.00    -0.241 NA
HETATM    5  C5  UNL     1      31.937   9.110  47.315  1.00  0.00     0.236 A 
HETATM    6  N2  UNL     1      32.507   7.888  47.215  1.00  0.00    -0.223 NA
HETATM    7  C6  UNL     1      31.740   6.793  47.471  1.00  0.00     0.143 A 
HETATM    8  C13 UNL     1      30.438   6.958  47.817  1.00  0.00     0.040 A 
HETATM    9  C14 UNL     1      29.729   5.811  48.059  1.00  0.00     0.027 A 
HETATM   10  C15 UNL     1      28.392   5.905  48.418  1.00  0.00    -0.028 A 
HETATM   11  C16 UNL     1      27.634   4.640  48.680  1.00  0.00     0.051 C 
ENDROOT
BRANCH   7  12
HETATM   12  N3  UNL     1      32.463   5.575  47.329  1.00  0.00    -0.335 N 
HETATM   13  C7  UNL     1      33.685   5.653  48.094  1.00  0.00     0.131 C 
HETATM   14  C8  UNL     1      34.675   4.795  48.376  1.00  0.00     0.115 C 
HETATM   15  F1  UNL     1      35.725   5.172  49.149  1.00  0.00    -0.209 F 
HETATM   16  C9  UNL     1      34.716   3.374  47.879  1.00  0.00     0.135 C 
HETATM   17  C10 UNL     1      34.522   3.478  46.406  1.00  0.00     0.047 C 
HETATM   18  C11 UNL     1      33.408   3.909  45.862  1.00  0.00     0.026 C 
HETATM   19  C12 UNL     1      32.190   4.351  46.589  1.00  0.00     0.160 C 
BRANCH  17  20
HETATM   20  O2  UNL     1      35.601   3.090  45.622  1.00  0.00    -0.365 OA
HETATM   21  H9  UNL     1      36.527   2.904  45.961  1.00  0.00     0.217 HD
ENDBRANCH  17  20
ENDBRANCH   7  12
BRANCH   1  22
HETATM   22  O1  UNL     1      26.450   7.194  48.889  1.00  0.00    -0.355 OA
HETATM   23  C1  UNL     1      26.121   7.856  50.095  1.00  0.00     0.210 C 
ENDBRANCH   1  22
TORSDOF 3
ENDMDL
