MODEL 1
REMARK VINA RESULT:      -8.9      0.000      0.000
REMARK  4 active torsions:
REMARK  status: ('A' for Active; 'I' for Inactive)
REMARK       I    between atoms: C1_2  and  N1_3 
REMARK    1  A    between atoms: C1_2  and  C8_11 
REMARK    2  A    between atoms: N1_3  and  C2_4 
REMARK    3  A    between atoms: C9_12  and  O2_13 
REMARK    4  A    between atoms: C14_18  and  C16_20 
ROOT
HETATM    1  C8  UNL     1      26.534   1.337  52.233  1.00  0.00     0.024 A 
HETATM    2  C9  UNL     1      27.481   0.510  52.646  1.00  0.00     0.074 A 
HETATM    3  C10 UNL     1      27.675  -1.238  52.896  1.00  0.00     0.011 A 
HETATM    4  C11 UNL     1      28.884  -1.133  53.401  1.00  0.00     0.038 A 
HETATM    5  C12 UNL     1      30.040  -0.959  53.894  1.00  0.00    -0.014 A 
HETATM    6  C13 UNL     1      28.867  -0.021  53.515  1.00  0.00     0.031 A 
HETATM    7  C14 UNL     1      27.529  -0.631  52.901  1.00  0.00    -0.015 A 
HETATM    8  C15 UNL     1      26.496  -1.339  52.403  1.00  0.00     0.014 A 
HETATM    9  C16 UNL     1      26.304   0.349  53.325  1.00  0.00     0.086 A 
ENDROOT
BRANCH   1  10
HETATM   10  C1  UNL     1      26.268   2.301  51.328  1.00  0.00     0.251 C 
HETATM   11  O1  UNL     1      25.594   2.848  52.209  1.00  0.00    -0.268 OA
HETATM   12  N1  UNL     1      26.562   2.611  50.024  1.00  0.00    -0.323 N 
HETATM   13  H1  UNL     1      27.160   1.920  49.539  1.00  0.00     0.169 HD
BRANCH  12  14
HETATM   14  C2  UNL     1      25.997   3.810  49.542  1.00  0.00     0.036 A 
HETATM   15  C3  UNL     1      24.680   4.207  49.441  1.00  0.00     0.029 A 
HETATM   16  C4  UNL     1      24.386   5.435  48.931  1.00  0.00     0.004 A 
HETATM   17  C5  UNL     1      25.339   6.342  48.494  1.00  0.00     0.019 A 
HETATM   18  C6  UNL     1      26.656   5.946  48.595  1.00  0.00     0.013 A 
HETATM   19 BR1  UNL     1      28.003   7.177  47.998  1.00  0.00    -0.051 Br
HETATM   20  C7  UNL     1      26.990   4.701  49.110  1.00  0.00     0.048 A 
ENDBRANCH  12  14
ENDBRANCH   1  10
BRANCH   2  21
HETATM   21  O2  UNL     1      28.356   1.935  52.648  1.00  0.00    -0.387 OA
HETATM   22  H6  UNL     1      28.673   2.028  51.635  1.00  0.00     0.211 HD
ENDBRANCH   2  21
TORSDOF 4
ENDMDL
MODEL 2
REMARK VINA RESULT:      -8.8      1.644      2.823
REMARK  4 active torsions:
REMARK  status: ('A' for Active; 'I' for Inactive)
REMARK       I    between atoms: C1_2  and  N1_3 
REMARK    1  A    between atoms: C1_2  and  C8_11 
REMARK    2  A    between atoms: N1_3  and  C2_4 
REMARK    3  A    between atoms: C9_12  and  O2_13 
REMARK    4  A    between atoms: C14_18  and  C16_20 
ROOT
HETATM    1  C8  UNL     1      26.441   1.219  51.487  1.00  0.00     0.024 A 
HETATM    2  C9  UNL     1      25.821   0.634  52.499  1.00  0.00     0.074 A 
HETATM    3  C10 UNL     1      26.267  -0.175  54.016  1.00  0.00     0.011 A 
HETATM    4  C11 UNL     1      25.031  -0.510  54.317  1.00  0.00     0.038 A 
HETATM    5  C12 UNL     1      23.820  -0.814  54.539  1.00  0.00    -0.014 A 
HETATM    6  C13 UNL     1      24.593  -0.242  53.325  1.00  0.00     0.031 A 
HETATM    7  C14 UNL     1      26.162   0.013  53.429  1.00  0.00    -0.015 A 
HETATM    8  C15 UNL     1      27.471   0.152  53.722  1.00  0.00     0.014 A 
HETATM    9  C16 UNL     1      26.787  -0.158  51.940  1.00  0.00     0.086 A 
ENDROOT
BRANCH   1  10
HETATM   10  C1  UNL     1      26.508   2.371  50.788  1.00  0.00     0.251 C 
HETATM   11  O1  UNL     1      27.307   2.766  51.646  1.00  0.00    -0.268 OA
HETATM   12  N1  UNL     1      25.978   2.930  49.653  1.00  0.00    -0.323 N 
HETATM   13  H1  UNL     1      25.307   2.327  49.146  1.00  0.00     0.169 HD
BRANCH  12  14
HETATM   14  C2  UNL     1      26.414   4.238  49.358  1.00  0.00     0.036 A 
HETATM   15  C3  UNL     1      27.533   4.682  48.684  1.00  0.00     0.029 A 
HETATM   16  C4  UNL     1      27.736   6.020  48.528  1.00  0.00     0.004 A 
HETATM   17  C5  UNL     1      26.877   6.996  49.009  1.00  0.00     0.019 A 
HETATM   18  C6  UNL     1      25.759   6.553  49.683  1.00  0.00     0.013 A 
HETATM   19 BR1  UNL     1      24.548   7.878  50.365  1.00  0.00    -0.051 Br
HETATM   20  C7  UNL     1      25.522   5.197  49.859  1.00  0.00     0.048 A 
ENDBRANCH  12  14
ENDBRANCH   1  10
BRANCH   2  21
HETATM   21  O2  UNL     1      24.486   1.189  51.657  1.00  0.00    -0.387 OA
HETATM   22  H6  UNL     1      24.917   1.709  50.833  1.00  0.00     0.211 HD
ENDBRANCH   2  21
TORSDOF 4
ENDMDL
MODEL 3
REMARK VINA RESULT:      -8.6      4.287      5.588
REMARK  4 active torsions:
REMARK  status: ('A' for Active; 'I' for Inactive)
REMARK       I    between atoms: C1_2  and  N1_3 
REMARK    1  A    between atoms: C1_2  and  C8_11 
REMARK    2  A    between atoms: N1_3  and  C2_4 
REMARK    3  A    between atoms: C9_12  and  O2_13 
REMARK    4  A    between atoms: C14_18  and  C16_20 
ROOT
HETATM    1  C8  UNL     1      26.179   0.377  52.747  1.00  0.00     0.024 A 
HETATM    2  C9  UNL     1      27.402   0.086  53.160  1.00  0.00     0.074 A 
HETATM    3  C10 UNL     1      28.868   0.970  53.637  1.00  0.00     0.011 A 
HETATM    4  C11 UNL     1      29.592  -0.116  53.795  1.00  0.00     0.038 A 
HETATM    5  C12 UNL     1      30.237  -1.202  53.914  1.00  0.00    -0.014 A 
HETATM    6  C13 UNL     1      28.858  -0.816  53.325  1.00  0.00     0.031 A 
HETATM    7  C14 UNL     1      28.377   0.703  53.358  1.00  0.00    -0.015 A 
HETATM    8  C15 UNL     1      28.161   2.028  53.483  1.00  0.00     0.014 A 
HETATM    9  C16 UNL     1      27.394   0.934  52.085  1.00  0.00     0.086 A 
ENDROOT
BRANCH   1  10
HETATM   10  C1  UNL     1      24.875   0.172  53.021  1.00  0.00     0.251 C 
HETATM   11  O1  UNL     1      24.800   1.387  53.239  1.00  0.00    -0.268 OA
HETATM   12  N1  UNL     1      23.972  -0.861  53.064  1.00  0.00    -0.323 N 
HETATM   13  H1  UNL     1      24.365  -1.789  52.833  1.00  0.00     0.169 HD
BRANCH  12  14
HETATM   14  C2  UNL     1      22.657  -0.504  53.427  1.00  0.00     0.036 A 
HETATM   15  C3  UNL     1      22.047  -0.455  54.664  1.00  0.00     0.029 A 
HETATM   16  C4  UNL     1      20.743  -0.073  54.754  1.00  0.00     0.004 A 
HETATM   17  C5  UNL     1      19.961   0.281  53.666  1.00  0.00     0.019 A 
HETATM   18  C6  UNL     1      20.570   0.233  52.430  1.00  0.00     0.013 A 
HETATM   19 BR1  UNL     1      19.516   0.716  50.899  1.00  0.00    -0.051 Br
HETATM   20  C7  UNL     1      21.897  -0.152  52.302  1.00  0.00     0.048 A 
ENDBRANCH  12  14
ENDBRANCH   1  10
BRANCH   2  21
HETATM   21  O2  UNL     1      26.764  -1.459  53.117  1.00  0.00    -0.387 OA
HETATM   22  H6  UNL     1      27.551  -2.059  53.513  1.00  0.00     0.211 HD
ENDBRANCH   2  21
TORSDOF 4
ENDMDL
MODEL 4
REMARK VINA RESULT:      -8.4      3.129      3.532
REMARK  4 active torsions:
REMARK  status: ('A' for Active; 'I' for Inactive)
REMARK       I    between atoms: C1_2  and  N1_3 
REMARK    1  A    between atoms: C1_2  and  C8_11 
REMARK    2  A    between atoms: N1_3  and  C2_4 
REMARK    3  A    between atoms: C9_12  and  O2_13 
REMARK    4  A    between atoms: C14_18  and  C16_20 
ROOT
HETATM    1  C8  UNL     1      25.500   1.435  53.446  1.00  0.00     0.024 A 
HETATM    2  C9  UNL     1      26.711   0.901  53.423  1.00  0.00     0.074 A 
HETATM    3  C10 UNL     1      27.441  -0.670  53.035  1.00  0.00     0.011 A 
HETATM    4  C11 UNL     1      28.655  -0.304  53.382  1.00  0.00     0.038 A 
HETATM    5  C12 UNL     1      29.798   0.109  53.747  1.00  0.00    -0.014 A 
HETATM    6  C13 UNL     1      28.354   0.655  53.869  1.00  0.00     0.031 A 
HETATM    7  C14 UNL     1      27.136  -0.177  53.266  1.00  0.00    -0.015 A 
HETATM    8  C15 UNL     1      26.257  -1.026  52.696  1.00  0.00     0.014 A 
HETATM    9  C16 UNL     1      25.820   0.164  54.156  1.00  0.00     0.086 A 
ENDROOT
BRANCH   1  10
HETATM   10  C1  UNL     1      24.769   2.462  52.967  1.00  0.00     0.251 C 
HETATM   11  O1  UNL     1      24.771   1.868  51.882  1.00  0.00    -0.268 OA
HETATM   12  N1  UNL     1      24.230   3.646  53.403  1.00  0.00    -0.323 N 
HETATM   13  H1  UNL     1      24.425   3.872  54.393  1.00  0.00     0.169 HD
BRANCH  12  14
HETATM   14  C2  UNL     1      23.509   4.378  52.436  1.00  0.00     0.036 A 
HETATM   15  C3  UNL     1      23.897   5.424  51.625  1.00  0.00     0.029 A 
HETATM   16  C4  UNL     1      23.000   5.972  50.760  1.00  0.00     0.004 A 
HETATM   17  C5  UNL     1      21.688   5.544  50.630  1.00  0.00     0.019 A 
HETATM   18  C6  UNL     1      21.298   4.499  51.440  1.00  0.00     0.013 A 
HETATM   19 BR1  UNL     1      19.486   3.882  51.288  1.00  0.00    -0.051 Br
HETATM   20  C7  UNL     1      22.188   3.918  52.333  1.00  0.00     0.048 A 
ENDBRANCH  12  14
ENDBRANCH   1  10
BRANCH   2  21
HETATM   21  O2  UNL     1      27.125   2.479  53.796  1.00  0.00    -0.387 OA
HETATM   22  H6  UNL     1      27.180   2.471  54.860  1.00  0.00     0.211 HD
ENDBRANCH   2  21
TORSDOF 4
ENDMDL
MODEL 5
REMARK VINA RESULT:      -8.3      4.292      6.774
REMARK  4 active torsions:
REMARK  status: ('A' for Active; 'I' for Inactive)
REMARK       I    between atoms: C1_2  and  N1_3 
REMARK    1  A    between atoms: C1_2  and  C8_11 
REMARK    2  A    between atoms: N1_3  and  C2_4 
REMARK    3  A    between atoms: C9_12  and  O2_13 
REMARK    4  A    between atoms: C14_18  and  C16_20 
ROOT
HETATM    1  C8  UNL     1      23.660  -0.793  53.166  1.00  0.00     0.024 A 
HETATM    2  C9  UNL     1      22.646   0.055  53.231  1.00  0.00     0.074 A 
HETATM    3  C10 UNL     1      21.221   0.317  54.259  1.00  0.00     0.011 A 
HETATM    4  C11 UNL     1      20.751   1.304  53.529  1.00  0.00     0.038 A 
HETATM    5  C12 UNL     1      20.346   2.238  52.773  1.00  0.00    -0.014 A 
HETATM    6  C13 UNL     1      21.449   1.156  52.669  1.00  0.00     0.031 A 
HETATM    7  C14 UNL     1      21.664   0.123  53.863  1.00  0.00    -0.015 A 
HETATM    8  C15 UNL     1      21.681  -0.646  54.971  1.00  0.00     0.014 A 
HETATM    9  C16 UNL     1      22.243  -1.253  53.224  1.00  0.00     0.086 A 
ENDROOT
BRANCH   1  10
HETATM   10  C1  UNL     1      25.007  -0.857  53.141  1.00  0.00     0.251 C 
HETATM   11  O1  UNL     1      24.988  -0.252  54.219  1.00  0.00    -0.268 OA
HETATM   12  N1  UNL     1      26.008  -1.344  52.339  1.00  0.00    -0.323 N 
HETATM   13  H1  UNL     1      25.683  -1.803  51.471  1.00  0.00     0.169 HD
BRANCH  12  14
HETATM   14  C2  UNL     1      27.321  -1.135  52.812  1.00  0.00     0.036 A 
HETATM   15  C3  UNL     1      28.332  -2.033  53.085  1.00  0.00     0.029 A 
HETATM   16  C4  UNL     1      29.531  -1.576  53.541  1.00  0.00     0.004 A 
HETATM   17  C5  UNL     1      29.819  -0.237  53.756  1.00  0.00     0.019 A 
HETATM   18  C6  UNL     1      28.809   0.661  53.483  1.00  0.00     0.013 A 
HETATM   19 BR1  UNL     1      29.173   2.524  53.772  1.00  0.00    -0.051 Br
HETATM   20  C7  UNL     1      27.575   0.228  53.018  1.00  0.00     0.048 A 
ENDBRANCH  12  14
ENDBRANCH   1  10
BRANCH   2  21
HETATM   21  O2  UNL     1      23.501   0.761  51.978  1.00  0.00    -0.387 OA
HETATM   22  H6  UNL     1      23.056   0.334  51.110  1.00  0.00     0.211 HD
ENDBRANCH   2  21
TORSDOF 4
ENDMDL
MODEL 6
REMARK VINA RESULT:      -8.2      3.116      6.901
REMARK  4 active torsions:
REMARK  status: ('A' for Active; 'I' for Inactive)
REMARK       I    between atoms: C1_2  and  N1_3 
REMARK    1  A    between atoms: C1_2  and  C8_11 
REMARK    2  A    between atoms: N1_3  and  C2_4 
REMARK    3  A    between atoms: C9_12  and  O2_13 
REMARK    4  A    between atoms: C14_18  and  C16_20 
ROOT
HETATM    1  C8  UNL     1      25.558   4.571  49.726  1.00  0.00     0.024 A 
HETATM    2  C9  UNL     1      26.505   5.353  49.232  1.00  0.00     0.074 A 
HETATM    3  C10 UNL     1      26.781   7.094  49.012  1.00  0.00     0.011 A 
HETATM    4  C11 UNL     1      27.916   6.934  48.369  1.00  0.00     0.038 A 
HETATM    5  C12 UNL     1      28.996   6.709  47.743  1.00  0.00    -0.014 A 
HETATM    6  C13 UNL     1      27.815   5.831  48.226  1.00  0.00     0.031 A 
HETATM    7  C14 UNL     1      26.596   6.498  49.006  1.00  0.00    -0.015 A 
HETATM    8  C15 UNL     1      25.673   7.249  49.639  1.00  0.00     0.014 A 
HETATM    9  C16 UNL     1      25.271   5.610  48.696  1.00  0.00     0.086 A 
ENDROOT
BRANCH   1  10
HETATM   10  C1  UNL     1      25.334   3.593  50.628  1.00  0.00     0.251 C 
HETATM   11  O1  UNL     1      24.572   3.091  49.793  1.00  0.00    -0.268 OA
HETATM   12  N1  UNL     1      25.723   3.240  51.896  1.00  0.00    -0.323 N 
HETATM   13  H1  UNL     1      26.381   3.898  52.345  1.00  0.00     0.169 HD
BRANCH  12  14
HETATM   14  C2  UNL     1      25.158   2.048  52.395  1.00  0.00     0.036 A 
HETATM   15  C3  UNL     1      23.912   1.798  52.931  1.00  0.00     0.029 A 
HETATM   16  C4  UNL     1      23.601   0.541  53.350  1.00  0.00     0.004 A 
HETATM   17  C5  UNL     1      24.468  -0.538  53.274  1.00  0.00     0.019 A 
HETATM   18  C6  UNL     1      25.714  -0.290  52.738  1.00  0.00     0.013 A 
HETATM   19 BR1  UNL     1      26.941  -1.762  52.619  1.00  0.00    -0.051 Br
HETATM   20  C7  UNL     1      26.063   0.980  52.302  1.00  0.00     0.048 A 
ENDBRANCH  12  14
ENDBRANCH   1  10
BRANCH   2  21
HETATM   21  O2  UNL     1      27.281   3.879  49.090  1.00  0.00    -0.387 OA
HETATM   22  H6  UNL     1      28.312   4.146  49.083  1.00  0.00     0.211 HD
ENDBRANCH   2  21
TORSDOF 4
ENDMDL
MODEL 7
REMARK VINA RESULT:      -7.9      5.181      6.145
REMARK  4 active torsions:
REMARK  status: ('A' for Active; 'I' for Inactive)
REMARK       I    between atoms: C1_2  and  N1_3 
REMARK    1  A    between atoms: C1_2  and  C8_11 
REMARK    2  A    between atoms: N1_3  and  C2_4 
REMARK    3  A    between atoms: C9_12  and  O2_13 
REMARK    4  A    between atoms: C14_18  and  C16_20 
ROOT
HETATM    1  C8  UNL     1      24.687   0.137  53.625  1.00  0.00     0.024 A 
HETATM    2  C9  UNL     1      25.885   0.672  53.452  1.00  0.00     0.074 A 
HETATM    3  C10 UNL     1      27.499   0.131  52.943  1.00  0.00     0.011 A 
HETATM    4  C11 UNL     1      28.067   1.297  53.161  1.00  0.00     0.038 A 
HETATM    5  C12 UNL     1      28.555   2.442  53.405  1.00  0.00    -0.014 A 
HETATM    6  C13 UNL     1      27.202   1.750  53.703  1.00  0.00     0.031 A 
HETATM    7  C14 UNL     1      26.952   0.252  53.220  1.00  0.00    -0.015 A 
HETATM    8  C15 UNL     1      26.944  -1.005  52.732  1.00  0.00     0.014 A 
HETATM    9  C16 UNL     1      25.909  -0.432  54.262  1.00  0.00     0.086 A 
ENDROOT
BRANCH   1  10
HETATM   10  C1  UNL     1      23.394   0.254  53.258  1.00  0.00     0.251 C 
HETATM   11  O1  UNL     1      23.794   0.211  52.088  1.00  0.00    -0.268 OA
HETATM   12  N1  UNL     1      22.156   0.370  53.837  1.00  0.00    -0.323 N 
HETATM   13  H1  UNL     1      22.162   0.389  54.871  1.00  0.00     0.169 HD
BRANCH  12  14
HETATM   14  C2  UNL     1      21.071   0.458  52.940  1.00  0.00     0.036 A 
HETATM   15  C3  UNL     1      20.907   1.216  51.799  1.00  0.00     0.029 A 
HETATM   16  C4  UNL     1      19.746   1.124  51.093  1.00  0.00     0.004 A 
HETATM   17  C5  UNL     1      18.687   0.302  51.446  1.00  0.00     0.019 A 
HETATM   18  C6  UNL     1      18.850  -0.456  52.587  1.00  0.00     0.013 A 
HETATM   19 BR1  UNL     1      17.402  -1.604  53.106  1.00  0.00    -0.051 Br
HETATM   20  C7  UNL     1      20.021  -0.385  53.329  1.00  0.00     0.048 A 
ENDBRANCH  12  14
ENDBRANCH   1  10
BRANCH   2  21
HETATM   21  O2  UNL     1      25.026   2.060  53.815  1.00  0.00    -0.387 OA
HETATM   22  H6  UNL     1      24.054   1.691  54.049  1.00  0.00     0.211 HD
ENDBRANCH   2  21
TORSDOF 4
ENDMDL
MODEL 8
REMARK VINA RESULT:      -7.6      6.209      7.308
REMARK  4 active torsions:
REMARK  status: ('A' for Active; 'I' for Inactive)
REMARK       I    between atoms: C1_2  and  N1_3 
REMARK    1  A    between atoms: C1_2  and  C8_11 
REMARK    2  A    between atoms: N1_3  and  C2_4 
REMARK    3  A    between atoms: C9_12  and  O2_13 
REMARK    4  A    between atoms: C14_18  and  C16_20 
ROOT
HETATM    1  C8  UNL     1      23.191   0.982  52.336  1.00  0.00     0.024 A 
HETATM    2  C9  UNL     1      24.291   0.957  53.072  1.00  0.00     0.074 A 
HETATM    3  C10 UNL     1      25.552   2.100  53.579  1.00  0.00     0.011 A 
HETATM    4  C11 UNL     1      26.269   1.188  54.199  1.00  0.00     0.038 A 
HETATM    5  C12 UNL     1      26.919   0.258  54.766  1.00  0.00    -0.014 A 
HETATM    6  C13 UNL     1      25.706   0.308  53.805  1.00  0.00     0.031 A 
HETATM    7  C14 UNL     1      25.157   1.713  53.290  1.00  0.00    -0.015 A 
HETATM    8  C15 UNL     1      24.853   2.988  52.975  1.00  0.00     0.014 A 
HETATM    9  C16 UNL     1      24.501   1.476  51.823  1.00  0.00     0.086 A 
ENDROOT
BRANCH   1  10
HETATM   10  C1  UNL     1      21.871   0.709  52.367  1.00  0.00     0.251 C 
HETATM   11  O1  UNL     1      21.972   0.422  51.168  1.00  0.00    -0.268 OA
HETATM   12  N1  UNL     1      20.829   0.716  53.260  1.00  0.00    -0.323 N 
HETATM   13  H1  UNL     1      21.079   1.030  54.213  1.00  0.00     0.169 HD
BRANCH  12  14
HETATM   14  C2  UNL     1      19.582   0.311  52.742  1.00  0.00     0.036 A 
HETATM   15  C3  UNL     1      18.749   0.916  51.823  1.00  0.00     0.029 A 
HETATM   16  C4  UNL     1      17.576   0.315  51.482  1.00  0.00     0.004 A 
HETATM   17  C5  UNL     1      17.145  -0.895  52.003  1.00  0.00     0.019 A 
HETATM   18  C6  UNL     1      17.976  -1.501  52.920  1.00  0.00     0.013 A 
HETATM   19 BR1  UNL     1      17.409  -3.178  53.663  1.00  0.00    -0.051 Br
HETATM   20  C7  UNL     1      19.178  -0.915  53.290  1.00  0.00     0.048 A 
ENDBRANCH  12  14
ENDBRANCH   1  10
BRANCH   2  21
HETATM   21  O2  UNL     1      23.758  -0.605  53.341  1.00  0.00    -0.387 OA
HETATM   22  H6  UNL     1      24.602  -1.076  53.790  1.00  0.00     0.211 HD
ENDBRANCH   2  21
TORSDOF 4
ENDMDL
MODEL 9
REMARK VINA RESULT:      -7.4      5.608      7.005
REMARK  4 active torsions:
REMARK  status: ('A' for Active; 'I' for Inactive)
REMARK       I    between atoms: C1_2  and  N1_3 
REMARK    1  A    between atoms: C1_2  and  C8_11 
REMARK    2  A    between atoms: N1_3  and  C2_4 
REMARK    3  A    between atoms: C9_12  and  O2_13 
REMARK    4  A    between atoms: C14_18  and  C16_20 
ROOT
HETATM    1  C8  UNL     1      23.352   2.284  51.877  1.00  0.00     0.024 A 
HETATM    2  C9  UNL     1      24.452   2.615  51.218  1.00  0.00     0.074 A 
HETATM    3  C10 UNL     1      26.149   2.094  51.159  1.00  0.00     0.011 A 
HETATM    4  C11 UNL     1      26.510   3.029  50.309  1.00  0.00     0.038 A 
HETATM    5  C12 UNL     1      26.795   3.964  49.499  1.00  0.00    -0.014 A 
HETATM    6  C13 UNL     1      25.565   3.619  50.375  1.00  0.00     0.031 A 
HETATM    7  C14 UNL     1      25.581   2.316  51.292  1.00  0.00    -0.015 A 
HETATM    8  C15 UNL     1      25.795   1.182  51.988  1.00  0.00     0.014 A 
HETATM    9  C16 UNL     1      24.629   2.608  52.576  1.00  0.00     0.086 A 
ENDROOT
BRANCH   1  10
HETATM   10  C1  UNL     1      22.072   1.898  51.706  1.00  0.00     0.251 C 
HETATM   11  O1  UNL     1      22.512   1.001  50.977  1.00  0.00    -0.268 OA
HETATM   12  N1  UNL     1      20.813   2.266  52.108  1.00  0.00    -0.323 N 
HETATM   13  H1  UNL     1      20.781   3.094  52.727  1.00  0.00     0.169 HD
BRANCH  12  14
HETATM   14  C2  UNL     1      19.759   1.472  51.611  1.00  0.00     0.036 A 
HETATM   15  C3  UNL     1      19.058   1.547  50.425  1.00  0.00     0.029 A 
HETATM   16  C4  UNL     1      18.066   0.649  50.173  1.00  0.00     0.004 A 
HETATM   17  C5  UNL     1      17.699  -0.365  51.044  1.00  0.00     0.019 A 
HETATM   18  C6  UNL     1      18.399  -0.442  52.229  1.00  0.00     0.013 A 
HETATM   19 BR1  UNL     1      17.915  -1.834  53.460  1.00  0.00    -0.051 Br
HETATM   20  C7  UNL     1      19.415   0.458  52.517  1.00  0.00     0.048 A 
ENDBRANCH  12  14
ENDBRANCH   1  10
BRANCH   2  21
HETATM   21  O2  UNL     1      23.365   3.619  50.438  1.00  0.00    -0.387 OA
HETATM   22  H6  UNL     1      23.993   4.344  49.975  1.00  0.00     0.211 HD
ENDBRANCH   2  21
TORSDOF 4
ENDMDL
