MODEL 1
REMARK VINA RESULT:      -8.3      0.000      0.000
REMARK  9 active torsions:
REMARK  status: ('A' for Active; 'I' for Inactive)
REMARK    1  A    between atoms: C2_2  and  N1_3 
REMARK    2  A    between atoms: C2_2  and  C12_16 
REMARK    3  A    between atoms: N1_3  and  C3_4 
REMARK    4  A    between atoms: C6_8  and  C7_9 
REMARK    5  A    between atoms: C12_16  and  N5_18 
REMARK    6  A    between atoms: N5_18  and  C14_19 
REMARK    7  A    between atoms: C14_19  and  C15_20 
REMARK    8  A    between atoms: C15_20  and  N6_21 
REMARK       I    between atoms: N6_21  and  C17_23 
REMARK    9  A    between atoms: C17_23  and  C18_25 
ROOT
HETATM    1  C1  UNL     1      21.400   0.350  53.874  1.00  0.00     0.041 C 
HETATM    2  C2  UNL     1      21.456   0.746  52.638  1.00  0.00     0.042 C 
ENDROOT
BRANCH   2   3
HETATM    3  N1  UNL     1      22.644   0.494  51.898  1.00  0.00    -0.191 N 
HETATM    4  H3  UNL     1      22.725   0.046  50.951  1.00  0.00     0.184 HD
BRANCH   3   5
HETATM    5  C3  UNL     1      23.876   0.898  52.519  1.00  0.00     0.727 A 
HETATM    6  N2  UNL     1      23.964   2.130  53.043  1.00  0.00    -0.075 NA
HETATM    7  C4  UNL     1      25.074   2.603  53.649  1.00  0.00     0.139 A 
HETATM    8  C5  UNL     1      26.158   1.755  53.718  1.00  0.00     0.053 A 
HETATM    9  C6  UNL     1      26.101   0.484  53.189  1.00  0.00     0.089 A 
HETATM   10  N4  UNL     1      24.956   0.095  52.605  1.00  0.00    -0.062 NA
BRANCH   9  11
HETATM   11  C7  UNL     1      27.262  -0.386  53.276  1.00  0.00     0.011 A 
HETATM   12  C8  UNL     1      28.495   0.047  53.671  1.00  0.00     0.017 A 
HETATM   13  C9  UNL     1      29.605  -0.772  53.755  1.00  0.00     0.020 A 
HETATM   14  C10 UNL     1      29.470  -2.121  53.419  1.00  0.00     0.116 A 
HETATM   15  N3  UNL     1      28.251  -2.571  53.023  1.00  0.00    -0.272 NA
HETATM   16  C11 UNL     1      27.207  -1.727  52.962  1.00  0.00     0.130 A 
ENDBRANCH   9  11
ENDBRANCH   3   5
ENDBRANCH   2   3
BRANCH   2  17
HETATM   17  C12 UNL     1      20.301   1.443  52.012  1.00  0.00     0.163 C 
HETATM   18  C13 UNL     1      19.062   0.580  52.292  1.00  0.00     0.042 C 
BRANCH  17  19
HETATM   19  N5  UNL     1      20.057   2.728  52.619  1.00  0.00    -0.235 NA
BRANCH  19  20
HETATM   20  C14 UNL     1      20.622   3.759  52.095  1.00  0.00    -0.004 C 
BRANCH  20  21
HETATM   21  C15 UNL     1      21.423   4.758  51.759  1.00  0.00     0.170 C 
BRANCH  21  22
HETATM   22  N6  UNL     1      22.361   4.508  50.737  1.00  0.00    -0.320 N 
HETATM   23  C16 UNL     1      22.032   3.856  49.493  1.00  0.00     0.159 C 
HETATM   24  C17 UNL     1      23.674   4.929  50.967  1.00  0.00     0.257 C 
HETATM   25  O1  UNL     1      23.629   5.459  52.131  1.00  0.00    -0.267 OA
BRANCH  24  26
HETATM   26  C18 UNL     1      24.906   4.867  50.196  1.00  0.00     0.032 A 
HETATM   27  C19 UNL     1      25.513   3.618  50.261  1.00  0.00     0.017 A 
HETATM   28  C20 UNL     1      26.700   3.410  49.572  1.00  0.00     0.001 A 
HETATM   29  C21 UNL     1      27.237   4.454  48.844  1.00  0.00     0.000 A 
HETATM   30  C22 UNL     1      26.636   5.713  48.770  1.00  0.00     0.001 A 
HETATM   31  C23 UNL     1      25.457   5.887  49.467  1.00  0.00     0.017 A 
ENDBRANCH  24  26
ENDBRANCH  21  22
ENDBRANCH  20  21
ENDBRANCH  19  20
ENDBRANCH  17  19
ENDBRANCH   2  17
TORSDOF 9
ENDMDL
MODEL 2
REMARK VINA RESULT:      -8.0      1.930      4.955
REMARK  9 active torsions:
REMARK  status: ('A' for Active; 'I' for Inactive)
REMARK    1  A    between atoms: C2_2  and  N1_3 
REMARK    2  A    between atoms: C2_2  and  C12_16 
REMARK    3  A    between atoms: N1_3  and  C3_4 
REMARK    4  A    between atoms: C6_8  and  C7_9 
REMARK    5  A    between atoms: C12_16  and  N5_18 
REMARK    6  A    between atoms: N5_18  and  C14_19 
REMARK    7  A    between atoms: C14_19  and  C15_20 
REMARK    8  A    between atoms: C15_20  and  N6_21 
REMARK       I    between atoms: N6_21  and  C17_23 
REMARK    9  A    between atoms: C17_23  and  C18_25 
ROOT
HETATM    1  C1  UNL     1      21.966   1.922  49.017  1.00  0.00     0.041 C 
HETATM    2  C2  UNL     1      21.764   3.146  49.398  1.00  0.00     0.042 C 
ENDROOT
BRANCH   2   3
HETATM    3  N1  UNL     1      22.501   3.641  50.510  1.00  0.00    -0.191 N 
HETATM    4  H3  UNL     1      22.120   4.085  51.383  1.00  0.00     0.184 HD
BRANCH   3   5
HETATM    5  C3  UNL     1      23.930   3.520  50.427  1.00  0.00     0.727 A 
HETATM    6  N2  UNL     1      24.598   4.291  49.555  1.00  0.00    -0.075 NA
HETATM    7  C4  UNL     1      25.938   4.255  49.404  1.00  0.00     0.139 A 
HETATM    8  C5  UNL     1      26.633   3.370  50.199  1.00  0.00     0.053 A 
HETATM    9  C6  UNL     1      25.979   2.563  51.105  1.00  0.00     0.089 A 
HETATM   10  N4  UNL     1      24.643   2.666  51.190  1.00  0.00    -0.062 NA
BRANCH   9  11
HETATM   11  C7  UNL     1      26.741   1.639  51.928  1.00  0.00     0.011 A 
HETATM   12  C8  UNL     1      26.549   0.288  51.913  1.00  0.00     0.017 A 
HETATM   13  C9  UNL     1      27.267  -0.599  52.692  1.00  0.00     0.020 A 
HETATM   14  C10 UNL     1      28.247  -0.094  53.550  1.00  0.00     0.116 A 
HETATM   15  N3  UNL     1      28.453   1.248  53.581  1.00  0.00    -0.272 NA
HETATM   16  C11 UNL     1      27.724   2.061  52.798  1.00  0.00     0.130 A 
ENDBRANCH   9  11
ENDBRANCH   3   5
ENDBRANCH   2   3
BRANCH   2  17
HETATM   17  C12 UNL     1      20.786   4.012  48.685  1.00  0.00     0.163 C 
HETATM   18  C13 UNL     1      21.104   3.893  47.188  1.00  0.00     0.042 C 
BRANCH  17  19
HETATM   19  N5  UNL     1      19.432   3.547  48.860  1.00  0.00    -0.235 NA
BRANCH  19  20
HETATM   20  C14 UNL     1      19.004   3.375  50.061  1.00  0.00    -0.004 C 
BRANCH  20  21
HETATM   21  C15 UNL     1      18.613   2.903  51.235  1.00  0.00     0.170 C 
BRANCH  21  22
HETATM   22  N6  UNL     1      19.206   1.699  51.668  1.00  0.00    -0.320 N 
HETATM   23  C16 UNL     1      18.806   0.397  51.194  1.00  0.00     0.159 C 
HETATM   24  C17 UNL     1      20.236   1.804  52.606  1.00  0.00     0.257 C 
HETATM   25  O1  UNL     1      20.344   3.063  52.808  1.00  0.00    -0.267 OA
BRANCH  24  26
HETATM   26  C18 UNL     1      21.084   0.839  53.289  1.00  0.00     0.032 A 
HETATM   27  C19 UNL     1      22.292   0.633  52.633  1.00  0.00     0.017 A 
HETATM   28  C20 UNL     1      23.205  -0.265  53.170  1.00  0.00     0.001 A 
HETATM   29  C21 UNL     1      22.880  -0.922  54.340  1.00  0.00     0.000 A 
HETATM   30  C22 UNL     1      21.669  -0.723  55.009  1.00  0.00     0.001 A 
HETATM   31  C23 UNL     1      20.784   0.175  54.449  1.00  0.00     0.017 A 
ENDBRANCH  24  26
ENDBRANCH  21  22
ENDBRANCH  20  21
ENDBRANCH  19  20
ENDBRANCH  17  19
ENDBRANCH   2  17
TORSDOF 9
ENDMDL
MODEL 3
REMARK VINA RESULT:      -7.9      2.263      5.670
REMARK  9 active torsions:
REMARK  status: ('A' for Active; 'I' for Inactive)
REMARK    1  A    between atoms: C2_2  and  N1_3 
REMARK    2  A    between atoms: C2_2  and  C12_16 
REMARK    3  A    between atoms: N1_3  and  C3_4 
REMARK    4  A    between atoms: C6_8  and  C7_9 
REMARK    5  A    between atoms: C12_16  and  N5_18 
REMARK    6  A    between atoms: N5_18  and  C14_19 
REMARK    7  A    between atoms: C14_19  and  C15_20 
REMARK    8  A    between atoms: C15_20  and  N6_21 
REMARK       I    between atoms: N6_21  and  C17_23 
REMARK    9  A    between atoms: C17_23  and  C18_25 
ROOT
HETATM    1  C1  UNL     1      21.166   3.489  47.297  1.00  0.00     0.041 C 
HETATM    2  C2  UNL     1      21.994   2.880  48.091  1.00  0.00     0.042 C 
ENDROOT
BRANCH   2   3
HETATM    3  N1  UNL     1      21.836   1.481  48.292  1.00  0.00    -0.191 N 
HETATM    4  H3  UNL     1      22.188   0.703  47.679  1.00  0.00     0.184 HD
BRANCH   3   5
HETATM    5  C3  UNL     1      21.111   1.087  49.468  1.00  0.00     0.727 A 
HETATM    6  N2  UNL     1      19.774   1.213  49.480  1.00  0.00    -0.075 NA
HETATM    7  C4  UNL     1      19.005   0.868  50.534  1.00  0.00     0.139 A 
HETATM    8  C5  UNL     1      19.650   0.365  51.643  1.00  0.00     0.053 A 
HETATM    9  C6  UNL     1      21.020   0.223  51.664  1.00  0.00     0.089 A 
HETATM   10  N4  UNL     1      21.709   0.590  50.571  1.00  0.00    -0.062 NA
BRANCH   9  11
HETATM   11  C7  UNL     1      21.672  -0.309  52.849  1.00  0.00     0.011 A 
HETATM   12  C8  UNL     1      23.002  -0.153  53.107  1.00  0.00     0.017 A 
HETATM   13  C9  UNL     1      23.630  -0.657  54.231  1.00  0.00     0.020 A 
HETATM   14  C10 UNL     1      22.870  -1.367  55.162  1.00  0.00     0.116 A 
HETATM   15  N3  UNL     1      21.543  -1.534  54.923  1.00  0.00    -0.272 NA
HETATM   16  C11 UNL     1      20.988  -1.020  53.812  1.00  0.00     0.130 A 
ENDBRANCH   9  11
ENDBRANCH   3   5
ENDBRANCH   2   3
BRANCH   2  17
HETATM   17  C12 UNL     1      23.084   3.630  48.770  1.00  0.00     0.163 C 
HETATM   18  C13 UNL     1      23.148   5.012  48.104  1.00  0.00     0.042 C 
BRANCH  17  19
HETATM   19  N5  UNL     1      22.792   3.855  50.165  1.00  0.00    -0.235 NA
BRANCH  19  20
HETATM   20  C14 UNL     1      23.703   3.564  51.026  1.00  0.00    -0.004 C 
BRANCH  20  21
HETATM   21  C15 UNL     1      24.656   3.568  51.945  1.00  0.00     0.170 C 
BRANCH  21  22
HETATM   22  N6  UNL     1      25.738   2.686  51.746  1.00  0.00    -0.320 N 
HETATM   23  C16 UNL     1      26.409   2.517  50.481  1.00  0.00     0.159 C 
HETATM   24  C17 UNL     1      26.164   1.949  52.855  1.00  0.00     0.257 C 
HETATM   25  O1  UNL     1      25.383   2.326  53.796  1.00  0.00    -0.267 OA
BRANCH  24  26
HETATM   26  C18 UNL     1      27.211   0.963  53.072  1.00  0.00     0.032 A 
HETATM   27  C19 UNL     1      28.383   1.529  53.562  1.00  0.00     0.017 A 
HETATM   28  C20 UNL     1      29.472   0.705  53.817  1.00  0.00     0.001 A 
HETATM   29  C21 UNL     1      29.351  -0.649  53.575  1.00  0.00     0.000 A 
HETATM   30  C22 UNL     1      28.179  -1.229  53.084  1.00  0.00     0.001 A 
HETATM   31  C23 UNL     1      27.115  -0.384  52.840  1.00  0.00     0.017 A 
ENDBRANCH  24  26
ENDBRANCH  21  22
ENDBRANCH  20  21
ENDBRANCH  19  20
ENDBRANCH  17  19
ENDBRANCH   2  17
TORSDOF 9
ENDMDL
MODEL 4
REMARK VINA RESULT:      -7.8      1.675      4.902
REMARK  9 active torsions:
REMARK  status: ('A' for Active; 'I' for Inactive)
REMARK    1  A    between atoms: C2_2  and  N1_3 
REMARK    2  A    between atoms: C2_2  and  C12_16 
REMARK    3  A    between atoms: N1_3  and  C3_4 
REMARK    4  A    between atoms: C6_8  and  C7_9 
REMARK    5  A    between atoms: C12_16  and  N5_18 
REMARK    6  A    between atoms: N5_18  and  C14_19 
REMARK    7  A    between atoms: C14_19  and  C15_20 
REMARK    8  A    between atoms: C15_20  and  N6_21 
REMARK       I    between atoms: N6_21  and  C17_23 
REMARK    9  A    between atoms: C17_23  and  C18_25 
ROOT
HETATM    1  C1  UNL     1      25.254   5.216  49.406  1.00  0.00     0.041 C 
HETATM    2  C2  UNL     1      24.227   4.445  49.218  1.00  0.00     0.042 C 
ENDROOT
BRANCH   2   3
HETATM    3  N1  UNL     1      24.334   3.073  49.579  1.00  0.00    -0.191 N 
HETATM    4  H3  UNL     1      24.168   2.236  48.965  1.00  0.00     0.184 HD
BRANCH   3   5
HETATM    5  C3  UNL     1      24.711   2.802  50.938  1.00  0.00     0.727 A 
HETATM    6  N2  UNL     1      24.049   3.418  51.931  1.00  0.00    -0.075 NA
HETATM    7  C4  UNL     1      24.326   3.229  53.238  1.00  0.00     0.139 A 
HETATM    8  C5  UNL     1      25.346   2.353  53.541  1.00  0.00     0.053 A 
HETATM    9  C6  UNL     1      26.045   1.705  52.547  1.00  0.00     0.089 A 
HETATM   10  N4  UNL     1      25.703   1.951  51.272  1.00  0.00    -0.062 NA
BRANCH   9  11
HETATM   11  C7  UNL     1      27.117   0.789  52.900  1.00  0.00     0.011 A 
HETATM   12  C8  UNL     1      28.361   1.201  53.280  1.00  0.00     0.017 A 
HETATM   13  C9  UNL     1      29.387   0.337  53.616  1.00  0.00     0.020 A 
HETATM   14  C10 UNL     1      29.148  -1.038  53.566  1.00  0.00     0.116 A 
HETATM   15  N3  UNL     1      27.916  -1.468  53.189  1.00  0.00    -0.272 NA
HETATM   16  C11 UNL     1      26.958  -0.580  52.875  1.00  0.00     0.130 A 
ENDBRANCH   9  11
ENDBRANCH   3   5
ENDBRANCH   2   3
BRANCH   2  17
HETATM   17  C12 UNL     1      22.967   4.987  48.642  1.00  0.00     0.163 C 
HETATM   18  C13 UNL     1      22.409   3.904  47.707  1.00  0.00     0.042 C 
BRANCH  17  19
HETATM   19  N5  UNL     1      21.968   5.214  49.657  1.00  0.00    -0.235 NA
BRANCH  19  20
HETATM   20  C14 UNL     1      21.314   4.197  50.097  1.00  0.00    -0.004 C 
BRANCH  20  21
HETATM   21  C15 UNL     1      20.413   3.353  50.575  1.00  0.00     0.170 C 
BRANCH  21  22
HETATM   22  N6  UNL     1      20.871   2.072  50.946  1.00  0.00    -0.320 N 
HETATM   23  C16 UNL     1      21.393   1.109  50.008  1.00  0.00     0.159 C 
HETATM   24  C17 UNL     1      20.808   1.747  52.304  1.00  0.00     0.257 C 
HETATM   25  O1  UNL     1      20.314   2.793  52.849  1.00  0.00    -0.267 OA
BRANCH  24  26
HETATM   26  C18 UNL     1      21.168   0.570  53.079  1.00  0.00     0.032 A 
HETATM   27  C19 UNL     1      20.080  -0.259  53.325  1.00  0.00     0.017 A 
HETATM   28  C20 UNL     1      20.273  -1.424  54.057  1.00  0.00     0.001 A 
HETATM   29  C21 UNL     1      21.543  -1.717  54.514  1.00  0.00     0.000 A 
HETATM   30  C22 UNL     1      22.644  -0.892  54.273  1.00  0.00     0.001 A 
HETATM   31  C23 UNL     1      22.418   0.258  53.543  1.00  0.00     0.017 A 
ENDBRANCH  24  26
ENDBRANCH  21  22
ENDBRANCH  20  21
ENDBRANCH  19  20
ENDBRANCH  17  19
ENDBRANCH   2  17
TORSDOF 9
ENDMDL
MODEL 5
REMARK VINA RESULT:      -7.7      1.781      2.609
REMARK  9 active torsions:
REMARK  status: ('A' for Active; 'I' for Inactive)
REMARK    1  A    between atoms: C2_2  and  N1_3 
REMARK    2  A    between atoms: C2_2  and  C12_16 
REMARK    3  A    between atoms: N1_3  and  C3_4 
REMARK    4  A    between atoms: C6_8  and  C7_9 
REMARK    5  A    between atoms: C12_16  and  N5_18 
REMARK    6  A    between atoms: N5_18  and  C14_19 
REMARK    7  A    between atoms: C14_19  and  C15_20 
REMARK    8  A    between atoms: C15_20  and  N6_21 
REMARK       I    between atoms: N6_21  and  C17_23 
REMARK    9  A    between atoms: C17_23  and  C18_25 
ROOT
HETATM    1  C1  UNL     1      21.466   0.662  49.905  1.00  0.00     0.041 C 
HETATM    2  C2  UNL     1      20.566   1.172  50.689  1.00  0.00     0.042 C 
ENDROOT
BRANCH   2   3
HETATM    3  N1  UNL     1      20.980   1.691  51.947  1.00  0.00    -0.191 N 
HETATM    4  H3  UNL     1      20.820   2.660  52.323  1.00  0.00     0.184 HD
BRANCH   3   5
HETATM    5  C3  UNL     1      21.699   0.787  52.802  1.00  0.00     0.727 A 
HETATM    6  N2  UNL     1      21.007  -0.038  53.603  1.00  0.00    -0.075 NA
HETATM    7  C4  UNL     1      21.588  -0.924  54.438  1.00  0.00     0.139 A 
HETATM    8  C5  UNL     1      22.966  -0.962  54.450  1.00  0.00     0.053 A 
HETATM    9  C6  UNL     1      23.706  -0.128  53.641  1.00  0.00     0.089 A 
HETATM   10  N4  UNL     1      23.046   0.723  52.839  1.00  0.00    -0.062 NA
BRANCH   9  11
HETATM   11  C7  UNL     1      25.158  -0.190  53.678  1.00  0.00     0.011 A 
HETATM   12  C8  UNL     1      25.935  -0.255  52.558  1.00  0.00     0.017 A 
HETATM   13  C9  UNL     1      27.315  -0.316  52.583  1.00  0.00     0.020 A 
HETATM   14  C10 UNL     1      27.963  -0.313  53.820  1.00  0.00     0.116 A 
HETATM   15  N3  UNL     1      27.208  -0.250  54.947  1.00  0.00    -0.272 NA
HETATM   16  C11 UNL     1      25.868  -0.191  54.859  1.00  0.00     0.130 A 
ENDBRANCH   9  11
ENDBRANCH   3   5
ENDBRANCH   2   3
BRANCH   2  17
HETATM   17  C12 UNL     1      19.137   1.215  50.278  1.00  0.00     0.163 C 
HETATM   18  C13 UNL     1      18.353   1.779  51.471  1.00  0.00     0.042 C 
BRANCH  17  19
HETATM   19  N5  UNL     1      18.924   2.119  49.175  1.00  0.00    -0.235 NA
BRANCH  19  20
HETATM   20  C14 UNL     1      19.454   3.289  49.244  1.00  0.00    -0.004 C 
BRANCH  20  21
HETATM   21  C15 UNL     1      20.256   4.342  49.248  1.00  0.00     0.170 C 
BRANCH  21  22
HETATM   22  N6  UNL     1      21.580   4.138  48.809  1.00  0.00    -0.320 N 
HETATM   23  C16 UNL     1      21.929   3.808  47.448  1.00  0.00     0.159 C 
HETATM   24  C17 UNL     1      22.591   4.271  49.765  1.00  0.00     0.257 C 
HETATM   25  O1  UNL     1      21.962   4.564  50.841  1.00  0.00    -0.267 OA
BRANCH  24  26
HETATM   26  C18 UNL     1      24.040   4.148  49.729  1.00  0.00     0.032 A 
HETATM   27  C19 UNL     1      24.497   3.031  50.420  1.00  0.00     0.017 A 
HETATM   28  C20 UNL     1      25.862   2.783  50.471  1.00  0.00     0.001 A 
HETATM   29  C21 UNL     1      26.719   3.658  49.833  1.00  0.00     0.000 A 
HETATM   30  C22 UNL     1      26.273   4.783  49.135  1.00  0.00     0.001 A 
HETATM   31  C23 UNL     1      24.910   5.001  49.104  1.00  0.00     0.017 A 
ENDBRANCH  24  26
ENDBRANCH  21  22
ENDBRANCH  20  21
ENDBRANCH  19  20
ENDBRANCH  17  19
ENDBRANCH   2  17
TORSDOF 9
ENDMDL
MODEL 6
REMARK VINA RESULT:      -7.4      2.538      7.050
REMARK  9 active torsions:
REMARK  status: ('A' for Active; 'I' for Inactive)
REMARK    1  A    between atoms: C2_2  and  N1_3 
REMARK    2  A    between atoms: C2_2  and  C12_16 
REMARK    3  A    between atoms: N1_3  and  C3_4 
REMARK    4  A    between atoms: C6_8  and  C7_9 
REMARK    5  A    between atoms: C12_16  and  N5_18 
REMARK    6  A    between atoms: N5_18  and  C14_19 
REMARK    7  A    between atoms: C14_19  and  C15_20 
REMARK    8  A    between atoms: C15_20  and  N6_21 
REMARK       I    between atoms: N6_21  and  C17_23 
REMARK    9  A    between atoms: C17_23  and  C18_25 
ROOT
HETATM    1  C1  UNL     1      20.825   5.051  50.806  1.00  0.00     0.041 C 
HETATM    2  C2  UNL     1      21.968   5.384  51.325  1.00  0.00     0.042 C 
ENDROOT
BRANCH   2   3
HETATM    3  N1  UNL     1      22.288   6.766  51.430  1.00  0.00    -0.191 N 
HETATM    4  H3  UNL     1      21.990   7.436  52.182  1.00  0.00     0.184 HD
BRANCH   3   5
HETATM    5  C3  UNL     1      23.114   7.306  50.385  1.00  0.00     0.727 A 
HETATM    6  N2  UNL     1      22.657   8.344  49.667  1.00  0.00    -0.075 NA
HETATM    7  C4  UNL     1      23.356   8.923  48.669  1.00  0.00     0.139 A 
HETATM    8  C5  UNL     1      24.602   8.402  48.394  1.00  0.00     0.053 A 
HETATM    9  C6  UNL     1      25.101   7.337  49.111  1.00  0.00     0.089 A 
HETATM   10  N4  UNL     1      24.338   6.822  50.089  1.00  0.00    -0.062 NA
BRANCH   9  11
HETATM   11  C7  UNL     1      26.418   6.809  48.795  1.00  0.00     0.011 A 
HETATM   12  C8  UNL     1      26.716   5.478  48.816  1.00  0.00     0.017 A 
HETATM   13  C9  UNL     1      27.965   4.966  48.518  1.00  0.00     0.020 A 
HETATM   14  C10 UNL     1      28.988   5.853  48.175  1.00  0.00     0.116 A 
HETATM   15  N3  UNL     1      28.711   7.183  48.148  1.00  0.00    -0.272 NA
HETATM   16  C11 UNL     1      27.476   7.621  48.447  1.00  0.00     0.130 A 
ENDBRANCH   9  11
ENDBRANCH   3   5
ENDBRANCH   2   3
BRANCH   2  17
HETATM   17  C12 UNL     1      22.916   4.342  51.802  1.00  0.00     0.163 C 
HETATM   18  C13 UNL     1      23.534   4.872  53.103  1.00  0.00     0.042 C 
BRANCH  17  19
HETATM   19  N5  UNL     1      22.239   3.113  52.134  1.00  0.00    -0.235 NA
BRANCH  19  20
HETATM   20  C14 UNL     1      22.959   2.095  52.453  1.00  0.00    -0.004 C 
BRANCH  20  21
HETATM   21  C15 UNL     1      23.543   0.911  52.558  1.00  0.00     0.170 C 
BRANCH  21  22
HETATM   22  N6  UNL     1      24.947   0.879  52.436  1.00  0.00    -0.320 N 
HETATM   23  C16 UNL     1      25.696   1.772  51.586  1.00  0.00     0.159 C 
HETATM   24  C17 UNL     1      25.625  -0.079  53.195  1.00  0.00     0.257 C 
HETATM   25  O1  UNL     1      24.695  -0.690  53.826  1.00  0.00    -0.267 OA
BRANCH  24  26
HETATM   26  C18 UNL     1      27.027  -0.435  53.356  1.00  0.00     0.032 A 
HETATM   27  C19 UNL     1      27.754   0.549  54.017  1.00  0.00     0.017 A 
HETATM   28  C20 UNL     1      29.109   0.347  54.242  1.00  0.00     0.001 A 
HETATM   29  C21 UNL     1      29.687  -0.827  53.800  1.00  0.00     0.000 A 
HETATM   30  C22 UNL     1      28.967  -1.823  53.135  1.00  0.00     0.001 A 
HETATM   31  C23 UNL     1      27.623  -1.591  52.927  1.00  0.00     0.017 A 
ENDBRANCH  24  26
ENDBRANCH  21  22
ENDBRANCH  20  21
ENDBRANCH  19  20
ENDBRANCH  17  19
ENDBRANCH   2  17
TORSDOF 9
ENDMDL
MODEL 7
REMARK VINA RESULT:      -7.4      1.817      5.500
REMARK  9 active torsions:
REMARK  status: ('A' for Active; 'I' for Inactive)
REMARK    1  A    between atoms: C2_2  and  N1_3 
REMARK    2  A    between atoms: C2_2  and  C12_16 
REMARK    3  A    between atoms: N1_3  and  C3_4 
REMARK    4  A    between atoms: C6_8  and  C7_9 
REMARK    5  A    between atoms: C12_16  and  N5_18 
REMARK    6  A    between atoms: N5_18  and  C14_19 
REMARK    7  A    between atoms: C14_19  and  C15_20 
REMARK    8  A    between atoms: C15_20  and  N6_21 
REMARK       I    between atoms: N6_21  and  C17_23 
REMARK    9  A    between atoms: C17_23  and  C18_25 
ROOT
HETATM    1  C1  UNL     1      25.539   4.146  49.847  1.00  0.00     0.041 C 
HETATM    2  C2  UNL     1      24.605   4.672  50.580  1.00  0.00     0.042 C 
ENDROOT
BRANCH   2   3
HETATM    3  N1  UNL     1      24.548   4.324  51.958  1.00  0.00    -0.191 N 
HETATM    4  H3  UNL     1      24.424   4.972  52.776  1.00  0.00     0.184 HD
BRANCH   3   5
HETATM    5  C3  UNL     1      24.675   2.926  52.265  1.00  0.00     0.727 A 
HETATM    6  N2  UNL     1      23.571   2.162  52.278  1.00  0.00    -0.075 NA
HETATM    7  C4  UNL     1      23.586   0.840  52.551  1.00  0.00     0.139 A 
HETATM    8  C5  UNL     1      24.810   0.272  52.829  1.00  0.00     0.053 A 
HETATM    9  C6  UNL     1      25.962   1.029  52.824  1.00  0.00     0.089 A 
HETATM   10  N4  UNL     1      25.856   2.337  52.540  1.00  0.00    -0.062 NA
BRANCH   9  11
HETATM   11  C7  UNL     1      27.238   0.400  53.123  1.00  0.00     0.011 A 
HETATM   12  C8  UNL     1      27.490  -0.923  52.909  1.00  0.00     0.017 A 
HETATM   13  C9  UNL     1      28.700  -1.530  53.191  1.00  0.00     0.020 A 
HETATM   14  C10 UNL     1      29.729  -0.754  53.727  1.00  0.00     0.116 A 
HETATM   15  N3  UNL     1      29.498   0.566  53.948  1.00  0.00    -0.272 NA
HETATM   16  C11 UNL     1      28.301   1.100  53.652  1.00  0.00     0.130 A 
ENDBRANCH   9  11
ENDBRANCH   3   5
ENDBRANCH   2   3
BRANCH   2  17
HETATM   17  C12 UNL     1      23.622   5.620  49.990  1.00  0.00     0.163 C 
HETATM   18  C13 UNL     1      23.691   5.435  48.468  1.00  0.00     0.042 C 
BRANCH  17  19
HETATM   19  N5  UNL     1      22.271   5.305  50.385  1.00  0.00    -0.235 NA
BRANCH  19  20
HETATM   20  C14 UNL     1      21.697   4.300  49.824  1.00  0.00    -0.004 C 
BRANCH  20  21
HETATM   21  C15 UNL     1      20.998   3.215  49.527  1.00  0.00     0.170 C 
BRANCH  21  22
HETATM   22  N6  UNL     1      20.175   2.688  50.543  1.00  0.00    -0.320 N 
HETATM   23  C16 UNL     1      19.311   3.496  51.370  1.00  0.00     0.159 C 
HETATM   24  C17 UNL     1      20.216   1.305  50.736  1.00  0.00     0.257 C 
HETATM   25  O1  UNL     1      21.055   0.895  49.862  1.00  0.00    -0.267 OA
BRANCH  24  26
HETATM   26  C18 UNL     1      19.544   0.390  51.647  1.00  0.00     0.032 A 
HETATM   27  C19 UNL     1      18.247   0.094  51.244  1.00  0.00     0.017 A 
HETATM   28  C20 UNL     1      17.482  -0.769  52.019  1.00  0.00     0.001 A 
HETATM   29  C21 UNL     1      18.039  -1.302  53.164  1.00  0.00     0.000 A 
HETATM   30  C22 UNL     1      19.342  -1.012  53.579  1.00  0.00     0.001 A 
HETATM   31  C23 UNL     1      20.075  -0.151  52.787  1.00  0.00     0.017 A 
ENDBRANCH  24  26
ENDBRANCH  21  22
ENDBRANCH  20  21
ENDBRANCH  19  20
ENDBRANCH  17  19
ENDBRANCH   2  17
TORSDOF 9
ENDMDL
MODEL 8
REMARK VINA RESULT:      -7.4      2.314      3.938
REMARK  9 active torsions:
REMARK  status: ('A' for Active; 'I' for Inactive)
REMARK    1  A    between atoms: C2_2  and  N1_3 
REMARK    2  A    between atoms: C2_2  and  C12_16 
REMARK    3  A    between atoms: N1_3  and  C3_4 
REMARK    4  A    between atoms: C6_8  and  C7_9 
REMARK    5  A    between atoms: C12_16  and  N5_18 
REMARK    6  A    between atoms: N5_18  and  C14_19 
REMARK    7  A    between atoms: C14_19  and  C15_20 
REMARK    8  A    between atoms: C15_20  and  N6_21 
REMARK       I    between atoms: N6_21  and  C17_23 
REMARK    9  A    between atoms: C17_23  and  C18_25 
ROOT
HETATM    1  C1  UNL     1      24.966   4.121  50.159  1.00  0.00     0.041 C 
HETATM    2  C2  UNL     1      24.131   4.545  51.059  1.00  0.00     0.042 C 
ENDROOT
BRANCH   2   3
HETATM    3  N1  UNL     1      24.348   4.173  52.415  1.00  0.00    -0.191 N 
HETATM    4  H3  UNL     1      24.371   4.803  53.255  1.00  0.00     0.184 HD
BRANCH   3   5
HETATM    5  C3  UNL     1      24.562   2.773  52.662  1.00  0.00     0.727 A 
HETATM    6  N2  UNL     1      23.500   1.955  52.721  1.00  0.00    -0.075 NA
HETATM    7  C4  UNL     1      23.596   0.627  52.945  1.00  0.00     0.139 A 
HETATM    8  C5  UNL     1      24.862   0.112  53.119  1.00  0.00     0.053 A 
HETATM    9  C6  UNL     1      25.974   0.925  53.064  1.00  0.00     0.089 A 
HETATM   10  N4  UNL     1      25.787   2.235  52.836  1.00  0.00    -0.062 NA
BRANCH   9  11
HETATM   11  C7  UNL     1      27.296   0.351  53.254  1.00  0.00     0.011 A 
HETATM   12  C8  UNL     1      27.580  -0.965  53.034  1.00  0.00     0.017 A 
HETATM   13  C9  UNL     1      28.834  -1.520  53.212  1.00  0.00     0.020 A 
HETATM   14  C10 UNL     1      29.876  -0.696  53.643  1.00  0.00     0.116 A 
HETATM   15  N3  UNL     1      29.612   0.618  53.869  1.00  0.00    -0.272 NA
HETATM   16  C11 UNL     1      28.373   1.100  53.676  1.00  0.00     0.130 A 
ENDBRANCH   9  11
ENDBRANCH   3   5
ENDBRANCH   2   3
BRANCH   2  17
HETATM   17  C12 UNL     1      22.977   5.403  50.679  1.00  0.00     0.163 C 
HETATM   18  C13 UNL     1      21.733   4.780  51.328  1.00  0.00     0.042 C 
BRANCH  17  19
HETATM   19  N5  UNL     1      23.101   6.736  51.215  1.00  0.00    -0.235 NA
BRANCH  19  20
HETATM   20  C14 UNL     1      23.770   7.600  50.535  1.00  0.00    -0.004 C 
BRANCH  20  21
HETATM   21  C15 UNL     1      24.366   8.319  49.598  1.00  0.00     0.170 C 
BRANCH  21  22
HETATM   22  N6  UNL     1      25.769   8.216  49.509  1.00  0.00    -0.320 N 
HETATM   23  C16 UNL     1      26.678   8.916  50.385  1.00  0.00     0.159 C 
HETATM   24  C17 UNL     1      26.280   7.381  48.513  1.00  0.00     0.257 C 
HETATM   25  O1  UNL     1      25.238   6.920  47.931  1.00  0.00    -0.267 OA
BRANCH  24  26
HETATM   26  C18 UNL     1      27.624   7.007  48.097  1.00  0.00     0.032 A 
HETATM   27  C19 UNL     1      27.967   5.721  48.498  1.00  0.00     0.017 A 
HETATM   28  C20 UNL     1      29.223   5.226  48.171  1.00  0.00     0.001 A 
HETATM   29  C21 UNL     1      30.088   6.032  47.457  1.00  0.00     0.000 A 
HETATM   30  C22 UNL     1      29.754   7.326  47.048  1.00  0.00     0.001 A 
HETATM   31  C23 UNL     1      28.499   7.787  47.389  1.00  0.00     0.017 A 
ENDBRANCH  24  26
ENDBRANCH  21  22
ENDBRANCH  20  21
ENDBRANCH  19  20
ENDBRANCH  17  19
ENDBRANCH   2  17
TORSDOF 9
ENDMDL
MODEL 9
REMARK VINA RESULT:      -7.3      3.837      5.609
REMARK  9 active torsions:
REMARK  status: ('A' for Active; 'I' for Inactive)
REMARK    1  A    between atoms: C2_2  and  N1_3 
REMARK    2  A    between atoms: C2_2  and  C12_16 
REMARK    3  A    between atoms: N1_3  and  C3_4 
REMARK    4  A    between atoms: C6_8  and  C7_9 
REMARK    5  A    between atoms: C12_16  and  N5_18 
REMARK    6  A    between atoms: N5_18  and  C14_19 
REMARK    7  A    between atoms: C14_19  and  C15_20 
REMARK    8  A    between atoms: C15_20  and  N6_21 
REMARK       I    between atoms: N6_21  and  C17_23 
REMARK    9  A    between atoms: C17_23  and  C18_25 
ROOT
HETATM    1  C1  UNL     1      23.624   3.083  49.331  1.00  0.00     0.041 C 
HETATM    2  C2  UNL     1      24.307   3.579  50.319  1.00  0.00     0.042 C 
ENDROOT
BRANCH   2   3
HETATM    3  N1  UNL     1      23.857   3.331  51.645  1.00  0.00    -0.191 N 
HETATM    4  H3  UNL     1      23.291   3.971  52.258  1.00  0.00     0.184 HD
BRANCH   3   5
HETATM    5  C3  UNL     1      24.219   2.061  52.212  1.00  0.00     0.727 A 
HETATM    6  N2  UNL     1      23.246   1.207  52.566  1.00  0.00    -0.075 NA
HETATM    7  C4  UNL     1      23.483  -0.008  53.102  1.00  0.00     0.139 A 
HETATM    8  C5  UNL     1      24.801  -0.365  53.286  1.00  0.00     0.053 A 
HETATM    9  C6  UNL     1      25.824   0.488  52.934  1.00  0.00     0.089 A 
HETATM   10  N4  UNL     1      25.498   1.679  52.405  1.00  0.00    -0.062 NA
BRANCH   9  11
HETATM   11  C7  UNL     1      27.204   0.083  53.142  1.00  0.00     0.011 A 
HETATM   12  C8  UNL     1      27.628  -1.210  53.052  1.00  0.00     0.017 A 
HETATM   13  C9  UNL     1      28.938  -1.605  53.250  1.00  0.00     0.020 A 
HETATM   14  C10 UNL     1      29.891  -0.633  53.560  1.00  0.00     0.116 A 
HETATM   15  N3  UNL     1      29.489   0.661  53.655  1.00  0.00    -0.272 NA
HETATM   16  C11 UNL     1      28.201   0.984  53.451  1.00  0.00     0.130 A 
ENDBRANCH   9  11
ENDBRANCH   3   5
ENDBRANCH   2   3
BRANCH   2  17
HETATM   17  C12 UNL     1      25.533   4.382  50.066  1.00  0.00     0.163 C 
HETATM   18  C13 UNL     1      26.579   3.418  49.489  1.00  0.00     0.042 C 
BRANCH  17  19
HETATM   19  N5  UNL     1      25.311   5.400  49.069  1.00  0.00    -0.235 NA
BRANCH  19  20
HETATM   20  C14 UNL     1      26.278   6.206  48.805  1.00  0.00    -0.004 C 
BRANCH  20  21
HETATM   21  C15 UNL     1      27.187   6.989  48.244  1.00  0.00     0.170 C 
BRANCH  21  22
HETATM   22  N6  UNL     1      27.443   8.223  48.875  1.00  0.00    -0.320 N 
HETATM   23  C16 UNL     1      26.853   8.616  50.131  1.00  0.00     0.159 C 
HETATM   24  C17 UNL     1      28.325   9.093  48.226  1.00  0.00     0.257 C 
HETATM   25  O1  UNL     1      28.664   8.458  47.169  1.00  0.00    -0.267 OA
BRANCH  24  26
HETATM   26  C18 UNL     1      28.843  10.418  48.529  1.00  0.00     0.032 A 
HETATM   27  C19 UNL     1      30.203  10.406  48.816  1.00  0.00     0.017 A 
HETATM   28  C20 UNL     1      30.836  11.603  49.124  1.00  0.00     0.001 A 
HETATM   29  C21 UNL     1      30.090  12.765  49.135  1.00  0.00     0.000 A 
HETATM   30  C22 UNL     1      28.723  12.790  48.848  1.00  0.00     0.001 A 
HETATM   31  C23 UNL     1      28.124  11.584  48.545  1.00  0.00     0.017 A 
ENDBRANCH  24  26
ENDBRANCH  21  22
ENDBRANCH  20  21
ENDBRANCH  19  20
ENDBRANCH  17  19
ENDBRANCH   2  17
TORSDOF 9
ENDMDL
