MODEL 1
REMARK VINA RESULT:      -7.7      0.000      0.000
REMARK  7 active torsions:
REMARK  status: ('A' for Active; 'I' for Inactive)
REMARK    1  A    between atoms: S1_2  and  C2_3 
REMARK    2  A    between atoms: C5_6  and  C6_7 
REMARK    3  A    between atoms: C6_7  and  O1_8 
REMARK    4  A    between atoms: O1_8  and  C7_9 
REMARK    5  A    between atoms: C8_10  and  C9_11 
REMARK    6  A    between atoms: C9_11  and  N1_12 
REMARK    7  A    between atoms: N1_12  and  C10_13 
ROOT
HETATM    1  C7  UNL     1      27.030  -0.645  53.197  1.00  0.00     0.146 A 
HETATM    2  C8  UNL     1      27.716   0.460  53.443  1.00  0.00     0.010 A 
HETATM    3  C16 UNL     1      29.173   0.342  53.610  1.00  0.00     0.010 A 
HETATM    4  C17 UNL     1      29.817  -0.830  53.524  1.00  0.00    -0.007 A 
HETATM    5  C18 UNL     1      29.100  -2.102  53.249  1.00  0.00     0.149 A 
HETATM    6  N2  UNL     1      27.685  -1.900  53.099  1.00  0.00    -0.367 N 
HETATM    7  H19 UNL     1      27.083  -2.717  52.905  1.00  0.00     0.161 HD
ENDROOT
BRANCH   1   8
HETATM    8  O1  UNL     1      25.654  -0.557  53.034  1.00  0.00    -0.331 OA
BRANCH   8   9
HETATM    9  C6  UNL     1      24.906  -0.795  54.231  1.00  0.00     0.216 C 
BRANCH   9  10
HETATM   10  C5  UNL     1      23.455  -0.638  54.039  1.00  0.00    -0.032 A 
HETATM   11  C4  UNL     1      22.395  -0.991  54.989  1.00  0.00     0.023 A 
HETATM   12  C3  UNL     1      21.260  -0.605  54.437  1.00  0.00    -0.007 A 
HETATM   13  C2  UNL     1      21.398  -0.169  53.197  1.00  0.00     0.011 A 
HETATM   14  C19 UNL     1      22.835  -0.141  52.957  1.00  0.00     0.028 A 
BRANCH  13  15
HETATM   15  S1  UNL     1      20.171   0.308  51.990  1.00  0.00    -0.134 SA
HETATM   16  C1  UNL     1      18.543  -0.401  52.361  1.00  0.00     0.095 C 
ENDBRANCH  13  15
ENDBRANCH   9  10
ENDBRANCH   8   9
ENDBRANCH   1   8
BRANCH   2  17
HETATM   17  C9  UNL     1      27.326   1.883  53.599  1.00  0.00     0.162 C 
BRANCH  17  18
HETATM   18  N1  UNL     1      26.746   2.323  52.347  1.00  0.00    -0.386 N 
HETATM   19  H9  UNL     1      27.452   2.431  51.556  1.00  0.00     0.160 HD
BRANCH  18  20
HETATM   20  C10 UNL     1      25.406   2.629  52.010  1.00  0.00     0.028 A 
HETATM   21  C11 UNL     1      24.927   2.461  50.716  1.00  0.00     0.029 A 
HETATM   22  C12 UNL     1      23.644   2.744  50.383  1.00  0.00     0.002 A 
HETATM   23  C13 UNL     1      22.753   3.214  51.318  1.00  0.00     0.000 A 
HETATM   24  C14 UNL     1      23.163   3.405  52.621  1.00  0.00     0.002 A 
HETATM   25  C15 UNL     1      24.475   3.102  52.906  1.00  0.00     0.029 A 
ENDBRANCH  18  20
ENDBRANCH  17  18
ENDBRANCH   2  17
TORSDOF 7
ENDMDL
MODEL 2
REMARK VINA RESULT:      -7.3      3.718      7.449
REMARK  7 active torsions:
REMARK  status: ('A' for Active; 'I' for Inactive)
REMARK    1  A    between atoms: S1_2  and  C2_3 
REMARK    2  A    between atoms: C5_6  and  C6_7 
REMARK    3  A    between atoms: C6_7  and  O1_8 
REMARK    4  A    between atoms: O1_8  and  C7_9 
REMARK    5  A    between atoms: C8_10  and  C9_11 
REMARK    6  A    between atoms: C9_11  and  N1_12 
REMARK    7  A    between atoms: N1_12  and  C10_13 
ROOT
HETATM    1  C7  UNL     1      24.920   2.433  51.489  1.00  0.00     0.146 A 
HETATM    2  C8  UNL     1      24.922   1.826  52.665  1.00  0.00     0.010 A 
HETATM    3  C16 UNL     1      23.744   1.023  53.027  1.00  0.00     0.010 A 
HETATM    4  C17 UNL     1      22.685   0.889  52.216  1.00  0.00    -0.007 A 
HETATM    5  C18 UNL     1      22.626   1.547  50.886  1.00  0.00     0.149 A 
HETATM    6  N2  UNL     1      23.813   2.309  50.610  1.00  0.00    -0.367 N 
HETATM    7  H19 UNL     1      23.884   2.812  49.710  1.00  0.00     0.161 HD
ENDROOT
BRANCH   1   8
HETATM    8  O1  UNL     1      26.022   3.196  51.127  1.00  0.00    -0.331 OA
BRANCH   8   9
HETATM    9  C6  UNL     1      26.281   3.219  49.720  1.00  0.00     0.216 C 
BRANCH   9  10
HETATM   10  C5  UNL     1      26.747   4.533  49.247  1.00  0.00    -0.032 A 
HETATM   11  C4  UNL     1      27.992   4.822  48.525  1.00  0.00     0.023 A 
HETATM   12  C3  UNL     1      27.959   6.108  48.232  1.00  0.00    -0.007 A 
HETATM   13  C2  UNL     1      26.936   6.747  48.772  1.00  0.00     0.011 A 
HETATM   14  C19 UNL     1      26.118   5.710  49.389  1.00  0.00     0.028 A 
BRANCH  13  15
HETATM   15  S1  UNL     1      26.539   8.488  48.805  1.00  0.00    -0.134 SA
HETATM   16  C1  UNL     1      27.304   9.332  50.216  1.00  0.00     0.095 C 
ENDBRANCH  13  15
ENDBRANCH   9  10
ENDBRANCH   8   9
ENDBRANCH   1   8
BRANCH   2  17
HETATM   17  C9  UNL     1      25.905   1.766  53.774  1.00  0.00     0.162 C 
BRANCH  17  18
HETATM   18  N1  UNL     1      27.161   1.295  53.228  1.00  0.00    -0.386 N 
HETATM   19  H9  UNL     1      27.771   2.065  52.816  1.00  0.00     0.160 HD
BRANCH  18  20
HETATM   20  C10 UNL     1      27.701  -0.012  53.155  1.00  0.00     0.028 A 
HETATM   21  C11 UNL     1      29.009  -0.278  53.545  1.00  0.00     0.029 A 
HETATM   22  C12 UNL     1      29.535  -1.526  53.486  1.00  0.00     0.002 A 
HETATM   23  C13 UNL     1      28.793  -2.591  53.034  1.00  0.00     0.000 A 
HETATM   24  C14 UNL     1      27.488  -2.396  52.632  1.00  0.00     0.002 A 
HETATM   25  C15 UNL     1      27.002  -1.111  52.711  1.00  0.00     0.029 A 
ENDBRANCH  18  20
ENDBRANCH  17  18
ENDBRANCH   2  17
TORSDOF 7
ENDMDL
MODEL 3
REMARK VINA RESULT:      -7.2      2.676      6.498
REMARK  7 active torsions:
REMARK  status: ('A' for Active; 'I' for Inactive)
REMARK    1  A    between atoms: S1_2  and  C2_3 
REMARK    2  A    between atoms: C5_6  and  C6_7 
REMARK    3  A    between atoms: C6_7  and  O1_8 
REMARK    4  A    between atoms: O1_8  and  C7_9 
REMARK    5  A    between atoms: C8_10  and  C9_11 
REMARK    6  A    between atoms: C9_11  and  N1_12 
REMARK    7  A    between atoms: N1_12  and  C10_13 
ROOT
HETATM    1  C7  UNL     1      23.179   0.303  52.855  1.00  0.00     0.146 A 
HETATM    2  C8  UNL     1      23.524  -0.451  53.887  1.00  0.00     0.010 A 
HETATM    3  C16 UNL     1      22.453  -1.142  54.621  1.00  0.00     0.010 A 
HETATM    4  C17 UNL     1      21.161  -1.033  54.285  1.00  0.00    -0.007 A 
HETATM    5  C18 UNL     1      20.715  -0.202  53.137  1.00  0.00     0.149 A 
HETATM    6  N2  UNL     1      21.819   0.437  52.475  1.00  0.00    -0.367 N 
HETATM    7  H19 UNL     1      21.628   1.042  51.660  1.00  0.00     0.161 HD
ENDROOT
BRANCH   1   8
HETATM    8  O1  UNL     1      24.175   0.964  52.147  1.00  0.00    -0.331 OA
BRANCH   8   9
HETATM    9  C6  UNL     1      24.141   2.388  52.280  1.00  0.00     0.216 C 
BRANCH   9  10
HETATM   10  C5  UNL     1      25.001   3.074  51.302  1.00  0.00    -0.032 A 
HETATM   11  C4  UNL     1      26.281   2.599  50.765  1.00  0.00     0.023 A 
HETATM   12  C3  UNL     1      26.658   3.488  49.865  1.00  0.00    -0.007 A 
HETATM   13  C2  UNL     1      25.881   4.557  49.821  1.00  0.00     0.011 A 
HETATM   14  C19 UNL     1      24.772   4.262  50.721  1.00  0.00     0.028 A 
BRANCH  13  15
HETATM   15  S1  UNL     1      26.051   6.080  48.906  1.00  0.00    -0.134 SA
HETATM   16  C1  UNL     1      26.020   7.532  49.992  1.00  0.00     0.095 C 
ENDBRANCH  13  15
ENDBRANCH   9  10
ENDBRANCH   8   9
ENDBRANCH   1   8
BRANCH   2  17
HETATM   17  C9  UNL     1      24.828  -0.781  54.512  1.00  0.00     0.162 C 
BRANCH  17  18
HETATM   18  N1  UNL     1      25.817  -0.862  53.458  1.00  0.00    -0.386 N 
HETATM   19  H9  UNL     1      25.431  -1.206  52.526  1.00  0.00     0.160 HD
BRANCH  18  20
HETATM   20  C10 UNL     1      27.201  -0.563  53.468  1.00  0.00     0.028 A 
HETATM   21  C11 UNL     1      28.158  -1.551  53.267  1.00  0.00     0.029 A 
HETATM   22  C12 UNL     1      29.485  -1.276  53.267  1.00  0.00     0.002 A 
HETATM   23  C13 UNL     1      29.947   0.004  53.468  1.00  0.00     0.000 A 
HETATM   24  C14 UNL     1      29.051   1.031  53.674  1.00  0.00     0.002 A 
HETATM   25  C15 UNL     1      27.715   0.698  53.664  1.00  0.00     0.029 A 
ENDBRANCH  18  20
ENDBRANCH  17  18
ENDBRANCH   2  17
TORSDOF 7
ENDMDL
MODEL 4
REMARK VINA RESULT:      -7.2      1.608      4.044
REMARK  7 active torsions:
REMARK  status: ('A' for Active; 'I' for Inactive)
REMARK    1  A    between atoms: S1_2  and  C2_3 
REMARK    2  A    between atoms: C5_6  and  C6_7 
REMARK    3  A    between atoms: C6_7  and  O1_8 
REMARK    4  A    between atoms: O1_8  and  C7_9 
REMARK    5  A    between atoms: C8_10  and  C9_11 
REMARK    6  A    between atoms: C9_11  and  N1_12 
REMARK    7  A    between atoms: N1_12  and  C10_13 
ROOT
HETATM    1  C7  UNL     1      26.728   1.750  53.476  1.00  0.00     0.146 A 
HETATM    2  C8  UNL     1      26.892   0.436  53.440  1.00  0.00     0.010 A 
HETATM    3  C16 UNL     1      28.229  -0.098  53.738  1.00  0.00     0.010 A 
HETATM    4  C17 UNL     1      29.271   0.689  54.040  1.00  0.00    -0.007 A 
HETATM    5  C18 UNL     1      29.147   2.168  54.097  1.00  0.00     0.149 A 
HETATM    6  N2  UNL     1      27.813   2.608  53.794  1.00  0.00    -0.367 N 
HETATM    7  H19 UNL     1      27.608   3.621  53.803  1.00  0.00     0.161 HD
ENDROOT
BRANCH   1   8
HETATM    8  O1  UNL     1      25.474   2.277  53.199  1.00  0.00    -0.331 OA
BRANCH   8   9
HETATM    9  C6  UNL     1      25.315   2.731  51.852  1.00  0.00     0.216 C 
BRANCH   9  10
HETATM   10  C5  UNL     1      23.903   2.888  51.464  1.00  0.00    -0.032 A 
HETATM   11  C4  UNL     1      22.839   3.529  52.245  1.00  0.00     0.023 A 
HETATM   12  C3  UNL     1      21.761   3.515  51.482  1.00  0.00    -0.007 A 
HETATM   13  C2  UNL     1      21.918   2.834  50.359  1.00  0.00     0.011 A 
HETATM   14  C19 UNL     1      23.330   2.471  50.325  1.00  0.00     0.028 A 
BRANCH  13  15
HETATM   15  S1  UNL     1      20.739   2.394  49.093  1.00  0.00    -0.134 SA
HETATM   16  C1  UNL     1      19.354   1.431  49.760  1.00  0.00     0.095 C 
ENDBRANCH  13  15
ENDBRANCH   9  10
ENDBRANCH   8   9
ENDBRANCH   1   8
BRANCH   2  17
HETATM   17  C9  UNL     1      25.975  -0.692  53.147  1.00  0.00     0.162 C 
BRANCH  17  18
HETATM   18  N1  UNL     1      24.898  -0.651  54.115  1.00  0.00    -0.386 N 
HETATM   19  H9  UNL     1      25.227  -0.610  55.128  1.00  0.00     0.160 HD
BRANCH  18  20
HETATM   20  C10 UNL     1      23.494  -0.656  53.932  1.00  0.00     0.028 A 
HETATM   21  C11 UNL     1      22.640  -1.180  54.895  1.00  0.00     0.029 A 
HETATM   22  C12 UNL     1      21.294  -1.185  54.734  1.00  0.00     0.002 A 
HETATM   23  C13 UNL     1      20.710  -0.667  53.602  1.00  0.00     0.000 A 
HETATM   24  C14 UNL     1      21.501  -0.132  52.607  1.00  0.00     0.002 A 
HETATM   25  C15 UNL     1      22.861  -0.152  52.819  1.00  0.00     0.029 A 
ENDBRANCH  18  20
ENDBRANCH  17  18
ENDBRANCH   2  17
TORSDOF 7
ENDMDL
MODEL 5
REMARK VINA RESULT:      -7.1      2.991      5.879
REMARK  7 active torsions:
REMARK  status: ('A' for Active; 'I' for Inactive)
REMARK    1  A    between atoms: S1_2  and  C2_3 
REMARK    2  A    between atoms: C5_6  and  C6_7 
REMARK    3  A    between atoms: C6_7  and  O1_8 
REMARK    4  A    between atoms: O1_8  and  C7_9 
REMARK    5  A    between atoms: C8_10  and  C9_11 
REMARK    6  A    between atoms: C9_11  and  N1_12 
REMARK    7  A    between atoms: N1_12  and  C10_13 
ROOT
HETATM    1  C7  UNL     1      26.903   1.996  52.666  1.00  0.00     0.146 A 
HETATM    2  C8  UNL     1      26.665   0.780  53.134  1.00  0.00     0.010 A 
HETATM    3  C16 UNL     1      27.647   0.196  54.061  1.00  0.00     0.010 A 
HETATM    4  C17 UNL     1      28.756   0.846  54.440  1.00  0.00    -0.007 A 
HETATM    5  C18 UNL     1      29.074   2.211  53.950  1.00  0.00     0.149 A 
HETATM    6  N2  UNL     1      28.068   2.708  53.052  1.00  0.00    -0.367 N 
HETATM    7  H19 UNL     1      28.184   3.651  52.645  1.00  0.00     0.161 HD
ENDROOT
BRANCH   1   8
HETATM    8  O1  UNL     1      25.988   2.567  51.790  1.00  0.00    -0.331 OA
BRANCH   8   9
HETATM    9  C6  UNL     1      26.425   2.601  50.428  1.00  0.00     0.216 C 
BRANCH   9  10
HETATM   10  C5  UNL     1      26.398   3.956  49.854  1.00  0.00    -0.032 A 
HETATM   11  C4  UNL     1      27.363   4.536  48.912  1.00  0.00     0.023 A 
HETATM   12  C3  UNL     1      26.904   5.735  48.606  1.00  0.00    -0.007 A 
HETATM   13  C2  UNL     1      25.845   6.092  49.311  1.00  0.00     0.011 A 
HETATM   14  C19 UNL     1      25.484   4.911  50.086  1.00  0.00     0.028 A 
BRANCH  13  15
HETATM   15  S1  UNL     1      24.965   7.645  49.382  1.00  0.00    -0.134 SA
HETATM   16  C1  UNL     1      23.847   7.726  50.807  1.00  0.00     0.095 C 
ENDBRANCH  13  15
ENDBRANCH   9  10
ENDBRANCH   8   9
ENDBRANCH   1   8
BRANCH   2  17
HETATM   17  C9  UNL     1      25.564  -0.191  52.922  1.00  0.00     0.162 C 
BRANCH  17  18
HETATM   18  N1  UNL     1      24.312   0.529  53.024  1.00  0.00    -0.386 N 
HETATM   19  H9  UNL     1      24.408   1.584  52.905  1.00  0.00     0.160 HD
BRANCH  18  20
HETATM   20  C10 UNL     1      22.996   0.061  53.255  1.00  0.00     0.028 A 
HETATM   21  C11 UNL     1      22.710  -0.810  54.300  1.00  0.00     0.029 A 
HETATM   22  C12 UNL     1      21.454  -1.261  54.535  1.00  0.00     0.002 A 
HETATM   23  C13 UNL     1      20.398  -0.872  53.745  1.00  0.00     0.000 A 
HETATM   24  C14 UNL     1      20.613  -0.009  52.690  1.00  0.00     0.002 A 
HETATM   25  C15 UNL     1      21.907   0.418  52.494  1.00  0.00     0.029 A 
ENDBRANCH  18  20
ENDBRANCH  17  18
ENDBRANCH   2  17
TORSDOF 7
ENDMDL
MODEL 6
REMARK VINA RESULT:      -7.1      4.142      7.761
REMARK  7 active torsions:
REMARK  status: ('A' for Active; 'I' for Inactive)
REMARK    1  A    between atoms: S1_2  and  C2_3 
REMARK    2  A    between atoms: C5_6  and  C6_7 
REMARK    3  A    between atoms: C6_7  and  O1_8 
REMARK    4  A    between atoms: O1_8  and  C7_9 
REMARK    5  A    between atoms: C8_10  and  C9_11 
REMARK    6  A    between atoms: C9_11  and  N1_12 
REMARK    7  A    between atoms: N1_12  and  C10_13 
ROOT
HETATM    1  C7  UNL     1      24.416   2.849  51.134  1.00  0.00     0.146 A 
HETATM    2  C8  UNL     1      24.464   2.300  52.338  1.00  0.00     0.010 A 
HETATM    3  C16 UNL     1      23.455   1.281  52.669  1.00  0.00     0.010 A 
HETATM    4  C17 UNL     1      22.505   0.898  51.805  1.00  0.00    -0.007 A 
HETATM    5  C18 UNL     1      22.403   1.478  50.441  1.00  0.00     0.149 A 
HETATM    6  N2  UNL     1      23.422   2.462  50.198  1.00  0.00    -0.367 N 
HETATM    7  H19 UNL     1      23.449   2.934  49.279  1.00  0.00     0.161 HD
ENDROOT
BRANCH   1   8
HETATM    8  O1  UNL     1      25.359   3.812  50.799  1.00  0.00    -0.331 OA
BRANCH   8   9
HETATM    9  C6  UNL     1      26.009   3.584  49.545  1.00  0.00     0.216 C 
BRANCH   9  10
HETATM   10  C5  UNL     1      26.657   4.792  49.010  1.00  0.00    -0.032 A 
HETATM   11  C4  UNL     1      26.030   6.095  48.763  1.00  0.00     0.023 A 
HETATM   12  C3  UNL     1      26.996   6.900  48.362  1.00  0.00    -0.007 A 
HETATM   13  C2  UNL     1      28.153   6.286  48.176  1.00  0.00     0.011 A 
HETATM   14  C19 UNL     1      27.944   4.924  48.649  1.00  0.00     0.028 A 
BRANCH  13  15
HETATM   15  S1  UNL     1      29.693   6.889  47.503  1.00  0.00    -0.134 SA
HETATM   16  C1  UNL     1      29.983   8.629  47.924  1.00  0.00     0.095 C 
ENDBRANCH  13  15
ENDBRANCH   9  10
ENDBRANCH   8   9
ENDBRANCH   1   8
BRANCH   2  17
HETATM   17  C9  UNL     1      25.359   2.489  53.505  1.00  0.00     0.162 C 
BRANCH  17  18
HETATM   18  N1  UNL     1      26.720   2.275  53.059  1.00  0.00    -0.386 N 
HETATM   19  H9  UNL     1      27.151   3.113  52.561  1.00  0.00     0.160 HD
BRANCH  18  20
HETATM   20  C10 UNL     1      27.560   1.141  53.176  1.00  0.00     0.028 A 
HETATM   21  C11 UNL     1      27.090  -0.139  52.908  1.00  0.00     0.029 A 
HETATM   22  C12 UNL     1      27.886  -1.232  53.011  1.00  0.00     0.002 A 
HETATM   23  C13 UNL     1      29.204  -1.120  53.387  1.00  0.00     0.000 A 
HETATM   24  C14 UNL     1      29.733   0.122  53.668  1.00  0.00     0.002 A 
HETATM   25  C15 UNL     1      28.883   1.198  53.549  1.00  0.00     0.029 A 
ENDBRANCH  18  20
ENDBRANCH  17  18
ENDBRANCH   2  17
TORSDOF 7
ENDMDL
MODEL 7
REMARK VINA RESULT:      -7.0      1.926      4.572
REMARK  7 active torsions:
REMARK  status: ('A' for Active; 'I' for Inactive)
REMARK    1  A    between atoms: S1_2  and  C2_3 
REMARK    2  A    between atoms: C5_6  and  C6_7 
REMARK    3  A    between atoms: C6_7  and  O1_8 
REMARK    4  A    between atoms: O1_8  and  C7_9 
REMARK    5  A    between atoms: C8_10  and  C9_11 
REMARK    6  A    between atoms: C9_11  and  N1_12 
REMARK    7  A    between atoms: N1_12  and  C10_13 
ROOT
HETATM    1  C7  UNL     1      27.075   1.766  53.218  1.00  0.00     0.146 A 
HETATM    2  C8  UNL     1      27.129   0.443  53.177  1.00  0.00     0.010 A 
HETATM    3  C16 UNL     1      28.328  -0.213  53.722  1.00  0.00     0.010 A 
HETATM    4  C17 UNL     1      29.350   0.475  54.249  1.00  0.00    -0.007 A 
HETATM    5  C18 UNL     1      29.345   1.958  54.322  1.00  0.00     0.149 A 
HETATM    6  N2  UNL     1      28.143   2.519  53.771  1.00  0.00    -0.367 N 
HETATM    7  H19 UNL     1      28.028   3.546  53.768  1.00  0.00     0.161 HD
ENDROOT
BRANCH   1   8
HETATM    8  O1  UNL     1      25.953   2.406  52.710  1.00  0.00    -0.331 OA
BRANCH   8   9
HETATM    9  C6  UNL     1      26.013   2.666  51.304  1.00  0.00     0.216 C 
BRANCH   9  10
HETATM   10  C5  UNL     1      24.794   3.311  50.790  1.00  0.00    -0.032 A 
HETATM   11  C4  UNL     1      24.379   3.425  49.387  1.00  0.00     0.023 A 
HETATM   12  C3  UNL     1      23.192   4.002  49.398  1.00  0.00    -0.007 A 
HETATM   13  C2  UNL     1      22.815   4.412  50.598  1.00  0.00     0.011 A 
HETATM   14  C19 UNL     1      23.836   3.914  51.511  1.00  0.00     0.028 A 
BRANCH  13  15
HETATM   15  S1  UNL     1      21.396   5.369  51.106  1.00  0.00    -0.134 SA
HETATM   16  C1  UNL     1      21.534   7.106  50.604  1.00  0.00     0.095 C 
ENDBRANCH  13  15
ENDBRANCH   9  10
ENDBRANCH   8   9
ENDBRANCH   1   8
BRANCH   2  17
HETATM   17  C9  UNL     1      26.197  -0.595  52.675  1.00  0.00     0.162 C 
BRANCH  17  18
HETATM   18  N1  UNL     1      25.196  -0.824  53.697  1.00  0.00    -0.386 N 
HETATM   19  H9  UNL     1      25.557  -1.359  54.545  1.00  0.00     0.160 HD
BRANCH  18  20
HETATM   20  C10 UNL     1      23.831  -0.454  53.747  1.00  0.00     0.028 A 
HETATM   21  C11 UNL     1      23.289   0.443  52.834  1.00  0.00     0.029 A 
HETATM   22  C12 UNL     1      21.981   0.799  52.868  1.00  0.00     0.002 A 
HETATM   23  C13 UNL     1      21.127   0.285  53.815  1.00  0.00     0.000 A 
HETATM   24  C14 UNL     1      21.601  -0.610  54.751  1.00  0.00     0.002 A 
HETATM   25  C15 UNL     1      22.935  -0.939  54.673  1.00  0.00     0.029 A 
ENDBRANCH  18  20
ENDBRANCH  17  18
ENDBRANCH   2  17
TORSDOF 7
ENDMDL
MODEL 8
REMARK VINA RESULT:      -7.0      2.759      5.477
REMARK  7 active torsions:
REMARK  status: ('A' for Active; 'I' for Inactive)
REMARK    1  A    between atoms: S1_2  and  C2_3 
REMARK    2  A    between atoms: C5_6  and  C6_7 
REMARK    3  A    between atoms: C6_7  and  O1_8 
REMARK    4  A    between atoms: O1_8  and  C7_9 
REMARK    5  A    between atoms: C8_10  and  C9_11 
REMARK    6  A    between atoms: C9_11  and  N1_12 
REMARK    7  A    between atoms: N1_12  and  C10_13 
ROOT
HETATM    1  C7  UNL     1      24.709   4.888  50.048  1.00  0.00     0.146 A 
HETATM    2  C8  UNL     1      25.899   4.429  49.693  1.00  0.00     0.010 A 
HETATM    3  C16 UNL     1      26.747   5.292  48.856  1.00  0.00     0.010 A 
HETATM    4  C17 UNL     1      26.359   6.508  48.448  1.00  0.00    -0.007 A 
HETATM    5  C18 UNL     1      25.037   7.075  48.816  1.00  0.00     0.149 A 
HETATM    6  N2  UNL     1      24.272   6.173  49.631  1.00  0.00    -0.367 N 
HETATM    7  H19 UNL     1      23.332   6.462  49.948  1.00  0.00     0.161 HD
ENDROOT
BRANCH   1   8
HETATM    8  O1  UNL     1      23.892   4.091  50.839  1.00  0.00    -0.331 OA
BRANCH   8   9
HETATM    9  C6  UNL     1      22.984   3.269  50.099  1.00  0.00     0.216 C 
BRANCH   9  10
HETATM   10  C5  UNL     1      22.567   2.067  50.841  1.00  0.00    -0.032 A 
HETATM   11  C4  UNL     1      21.546   1.092  50.442  1.00  0.00     0.023 A 
HETATM   12  C3  UNL     1      21.562   0.144  51.360  1.00  0.00    -0.007 A 
HETATM   13  C2  UNL     1      22.352   0.414  52.385  1.00  0.00     0.011 A 
HETATM   14  C19 UNL     1      23.046   1.643  52.021  1.00  0.00     0.028 A 
BRANCH  13  15
HETATM   15  S1  UNL     1      22.596  -0.456  53.925  1.00  0.00    -0.134 SA
HETATM   16  C1  UNL     1      21.206  -1.556  54.310  1.00  0.00     0.095 C 
ENDBRANCH  13  15
ENDBRANCH   9  10
ENDBRANCH   8   9
ENDBRANCH   1   8
BRANCH   2  17
HETATM   17  C9  UNL     1      26.619   3.161  49.964  1.00  0.00     0.162 C 
BRANCH  17  18
HETATM   18  N1  UNL     1      26.761   3.029  51.399  1.00  0.00    -0.386 N 
HETATM   19  H9  UNL     1      27.007   3.940  51.896  1.00  0.00     0.160 HD
BRANCH  18  20
HETATM   20  C10 UNL     1      26.627   1.897  52.238  1.00  0.00     0.028 A 
HETATM   21  C11 UNL     1      26.577   0.610  51.715  1.00  0.00     0.029 A 
HETATM   22  C12 UNL     1      26.455  -0.483  52.508  1.00  0.00     0.002 A 
HETATM   23  C13 UNL     1      26.377  -0.365  53.876  1.00  0.00     0.000 A 
HETATM   24  C14 UNL     1      26.421   0.884  54.460  1.00  0.00     0.002 A 
HETATM   25  C15 UNL     1      26.544   1.960  53.610  1.00  0.00     0.029 A 
ENDBRANCH  18  20
ENDBRANCH  17  18
ENDBRANCH   2  17
TORSDOF 7
ENDMDL
MODEL 9
REMARK VINA RESULT:      -6.7      1.434      2.040
REMARK  7 active torsions:
REMARK  status: ('A' for Active; 'I' for Inactive)
REMARK    1  A    between atoms: S1_2  and  C2_3 
REMARK    2  A    between atoms: C5_6  and  C6_7 
REMARK    3  A    between atoms: C6_7  and  O1_8 
REMARK    4  A    between atoms: O1_8  and  C7_9 
REMARK    5  A    between atoms: C8_10  and  C9_11 
REMARK    6  A    between atoms: C9_11  and  N1_12 
REMARK    7  A    between atoms: N1_12  and  C10_13 
ROOT
HETATM    1  C7  UNL     1      26.311   0.764  53.821  1.00  0.00     0.146 A 
HETATM    2  C8  UNL     1      27.033   1.284  52.840  1.00  0.00     0.010 A 
HETATM    3  C16 UNL     1      28.498   1.184  52.937  1.00  0.00     0.010 A 
HETATM    4  C17 UNL     1      29.114   0.593  53.970  1.00  0.00    -0.007 A 
HETATM    5  C18 UNL     1      28.357  -0.009  55.097  1.00  0.00     0.149 A 
HETATM    6  N2  UNL     1      26.937   0.131  54.926  1.00  0.00    -0.367 N 
HETATM    7  H19 UNL     1      26.308  -0.251  55.651  1.00  0.00     0.161 HD
ENDROOT
BRANCH   1   8
HETATM    8  O1  UNL     1      24.927   0.846  53.749  1.00  0.00    -0.331 OA
BRANCH   8   9
HETATM    9  C6  UNL     1      24.274  -0.414  53.569  1.00  0.00     0.216 C 
BRANCH   9  10
HETATM   10  C5  UNL     1      22.885  -0.276  53.100  1.00  0.00    -0.032 A 
HETATM   11  C4  UNL     1      22.419   0.478  51.931  1.00  0.00     0.023 A 
HETATM   12  C3  UNL     1      21.120   0.259  51.844  1.00  0.00    -0.007 A 
HETATM   13  C2  UNL     1      20.630  -0.422  52.866  1.00  0.00     0.011 A 
HETATM   14  C19 UNL     1      21.790  -0.815  53.657  1.00  0.00     0.028 A 
BRANCH  13  15
HETATM   15  S1  UNL     1      18.944  -0.830  53.289  1.00  0.00    -0.134 SA
HETATM   16  C1  UNL     1      17.765  -0.202  52.061  1.00  0.00     0.095 C 
ENDBRANCH  13  15
ENDBRANCH   9  10
ENDBRANCH   8   9
ENDBRANCH   1   8
BRANCH   2  17
HETATM   17  C9  UNL     1      26.680   1.991  51.585  1.00  0.00     0.162 C 
BRANCH  17  18
HETATM   18  N1  UNL     1      25.864   3.135  51.936  1.00  0.00    -0.386 N 
HETATM   19  H9  UNL     1      26.359   3.847  52.555  1.00  0.00     0.160 HD
BRANCH  18  20
HETATM   20  C10 UNL     1      24.529   3.455  51.591  1.00  0.00     0.028 A 
HETATM   21  C11 UNL     1      23.624   3.909  52.544  1.00  0.00     0.029 A 
HETATM   22  C12 UNL     1      22.344   4.224  52.225  1.00  0.00     0.002 A 
HETATM   23  C13 UNL     1      21.882   4.108  50.935  1.00  0.00     0.000 A 
HETATM   24  C14 UNL     1      22.728   3.662  49.942  1.00  0.00     0.002 A 
HETATM   25  C15 UNL     1      24.017   3.355  50.318  1.00  0.00     0.029 A 
ENDBRANCH  18  20
ENDBRANCH  17  18
ENDBRANCH   2  17
TORSDOF 7
ENDMDL
