MODEL 1
REMARK VINA RESULT:      -8.9      0.000      0.000
REMARK  3 active torsions:
REMARK  status: ('A' for Active; 'I' for Inactive)
REMARK    1  A    between atoms: C2_2  and  N1_3 
REMARK    2  A    between atoms: N1_3  and  C3_4 
REMARK    3  A    between atoms: C7_9  and  C8_10 
ROOT
HETATM    1  C3  UNL     1      21.169  -0.628  54.192  1.00  0.00     0.728 A 
HETATM    2  N2  UNL     1      21.763  -1.303  55.173  1.00  0.00    -0.074 NA
HETATM    3  C4  UNL     1      23.115  -1.325  55.227  1.00  0.00     0.151 A 
HETATM    4  C5  UNL     1      23.863  -0.653  54.275  1.00  0.00     0.030 A 
HETATM    5  C6  UNL     1      25.242  -0.666  54.317  1.00  0.00     0.034 A 
HETATM    6  C7  UNL     1      25.906   0.032  53.325  1.00  0.00     0.047 A 
HETATM    7  C14 UNL     1      25.235   0.712  52.338  1.00  0.00     0.260 A 
HETATM    8  O1  UNL     1      25.895   1.327  51.463  1.00  0.00    -0.267 OA
HETATM    9  N3  UNL     1      23.883   0.689  52.346  1.00  0.00    -0.301 N 
HETATM   10  C15 UNL     1      23.222   1.422  51.282  1.00  0.00     0.161 C 
HETATM   11  C16 UNL     1      23.176   0.027  53.286  1.00  0.00     0.163 A 
HETATM   12  N4  UNL     1      21.822   0.047  53.233  1.00  0.00    -0.044 NA
ENDROOT
BRANCH   6  13
HETATM   13  C8  UNL     1      27.370  -0.021  53.426  1.00  0.00     0.023 A 
HETATM   14  C9  UNL     1      27.903  -1.253  53.032  1.00  0.00     0.046 A 
HETATM   15 CL1  UNL     1      26.960  -2.612  52.473  1.00  0.00    -0.083 Cl
HETATM   16  C10 UNL     1      29.283  -1.467  53.070  1.00  0.00     0.025 A 
HETATM   17  C11 UNL     1      30.085  -0.415  53.508  1.00  0.00     0.003 A 
HETATM   18  C12 UNL     1      29.557   0.797  53.895  1.00  0.00     0.025 A 
HETATM   19  C13 UNL     1      28.193   1.002  53.856  1.00  0.00     0.046 A 
HETATM   20 CL2  UNL     1      27.394   2.486  54.317  1.00  0.00    -0.083 Cl
ENDBRANCH   6  13
BRANCH   1  21
HETATM   21  N1  UNL     1      19.757  -0.593  54.119  1.00  0.00    -0.199 N 
HETATM   22  H4  UNL     1      19.110  -0.779  54.897  1.00  0.00     0.183 HD
BRANCH  21  23
HETATM   23  C2  UNL     1      19.187  -0.270  52.857  1.00  0.00     0.096 C 
HETATM   24  C1  UNL     1      18.246  -0.265  51.925  1.00  0.00     0.030 C 
ENDBRANCH  21  23
ENDBRANCH   1  21
TORSDOF 3
ENDMDL
MODEL 2
REMARK VINA RESULT:      -8.7      0.217      1.899
REMARK  3 active torsions:
REMARK  status: ('A' for Active; 'I' for Inactive)
REMARK    1  A    between atoms: C2_2  and  N1_3 
REMARK    2  A    between atoms: N1_3  and  C3_4 
REMARK    3  A    between atoms: C7_9  and  C8_10 
ROOT
HETATM    1  C3  UNL     1      21.070  -0.556  54.098  1.00  0.00     0.728 A 
HETATM    2  N2  UNL     1      21.636  -1.264  55.073  1.00  0.00    -0.074 NA
HETATM    3  C4  UNL     1      22.986  -1.332  55.132  1.00  0.00     0.151 A 
HETATM    4  C5  UNL     1      23.761  -0.674  54.192  1.00  0.00     0.030 A 
HETATM    5  C6  UNL     1      25.139  -0.734  54.240  1.00  0.00     0.034 A 
HETATM    6  C7  UNL     1      25.830  -0.046  53.260  1.00  0.00     0.047 A 
HETATM    7  C14 UNL     1      25.188   0.669  52.279  1.00  0.00     0.260 A 
HETATM    8  O1  UNL     1      25.872   1.273  51.415  1.00  0.00    -0.267 OA
HETATM    9  N3  UNL     1      23.836   0.692  52.281  1.00  0.00    -0.301 N 
HETATM   10  C15 UNL     1      23.205   1.460  51.225  1.00  0.00     0.161 C 
HETATM   11  C16 UNL     1      23.102   0.042  53.210  1.00  0.00     0.163 A 
HETATM   12  N4  UNL     1      21.750   0.109  53.152  1.00  0.00    -0.044 NA
ENDROOT
BRANCH   6  13
HETATM   13  C8  UNL     1      27.292  -0.150  53.366  1.00  0.00     0.023 A 
HETATM   14  C9  UNL     1      27.892   1.018  53.845  1.00  0.00     0.046 A 
HETATM   15 CL1  UNL     1      27.030   2.473  54.283  1.00  0.00    -0.083 Cl
HETATM   16  C10 UNL     1      29.278   1.083  54.004  1.00  0.00     0.025 A 
HETATM   17  C11 UNL     1      30.017  -0.050  53.670  1.00  0.00     0.003 A 
HETATM   18  C12 UNL     1      29.423  -1.200  53.199  1.00  0.00     0.025 A 
HETATM   19  C13 UNL     1      28.052  -1.257  53.043  1.00  0.00     0.046 A 
HETATM   20 CL2  UNL     1      27.173  -2.649  52.457  1.00  0.00    -0.083 Cl
ENDBRANCH   6  13
BRANCH   1  21
HETATM   21  N1  UNL     1      19.660  -0.472  54.020  1.00  0.00    -0.199 N 
HETATM   22  H4  UNL     1      19.015  -0.423  54.820  1.00  0.00     0.183 HD
BRANCH  21  23
HETATM   23  C2  UNL     1      19.090  -0.454  52.718  1.00  0.00     0.096 C 
HETATM   24  C1  UNL     1      18.199  -0.119  51.797  1.00  0.00     0.030 C 
ENDBRANCH  21  23
ENDBRANCH   1  21
TORSDOF 3
ENDMDL
MODEL 3
REMARK VINA RESULT:      -8.1      3.083      6.999
REMARK  3 active torsions:
REMARK  status: ('A' for Active; 'I' for Inactive)
REMARK    1  A    between atoms: C2_2  and  N1_3 
REMARK    2  A    between atoms: N1_3  and  C3_4 
REMARK    3  A    between atoms: C7_9  and  C8_10 
ROOT
HETATM    1  C3  UNL     1      26.915   0.671  54.242  1.00  0.00     0.728 A 
HETATM    2  N2  UNL     1      26.532  -0.597  54.109  1.00  0.00    -0.074 NA
HETATM    3  C4  UNL     1      25.294  -0.860  53.629  1.00  0.00     0.151 A 
HETATM    4  C5  UNL     1      24.445   0.177  53.282  1.00  0.00     0.030 A 
HETATM    5  C6  UNL     1      23.180  -0.076  52.791  1.00  0.00     0.034 A 
HETATM    6  C7  UNL     1      22.401   1.021  52.472  1.00  0.00     0.047 A 
HETATM    7  C14 UNL     1      22.854   2.308  52.631  1.00  0.00     0.260 A 
HETATM    8  O1  UNL     1      22.098   3.265  52.323  1.00  0.00    -0.267 OA
HETATM    9  N3  UNL     1      24.102   2.496  53.117  1.00  0.00    -0.301 N 
HETATM   10  C15 UNL     1      24.533   3.873  53.267  1.00  0.00     0.161 C 
HETATM   11  C16 UNL     1      24.912   1.467  53.447  1.00  0.00     0.163 A 
HETATM   12  N4  UNL     1      26.151   1.729  53.929  1.00  0.00    -0.044 NA
ENDROOT
BRANCH   6  13
HETATM   13  C8  UNL     1      21.068   0.685  51.955  1.00  0.00     0.023 A 
HETATM   14  C9  UNL     1      20.173   0.297  52.957  1.00  0.00     0.046 A 
HETATM   15 CL1  UNL     1      20.561   0.207  54.658  1.00  0.00    -0.083 Cl
HETATM   16  C10 UNL     1      18.862  -0.056  52.631  1.00  0.00     0.025 A 
HETATM   17  C11 UNL     1      18.497  -0.002  51.288  1.00  0.00     0.003 A 
HETATM   18  C12 UNL     1      19.380   0.381  50.303  1.00  0.00     0.025 A 
HETATM   19  C13 UNL     1      20.675   0.728  50.632  1.00  0.00     0.046 A 
HETATM   20 CL2  UNL     1      21.895   1.231  49.485  1.00  0.00    -0.083 Cl
ENDBRANCH   6  13
BRANCH   1  21
HETATM   21  N1  UNL     1      28.205   0.965  54.742  1.00  0.00    -0.199 N 
HETATM   22  H4  UNL     1      28.414   1.569  55.548  1.00  0.00     0.183 HD
BRANCH  21  23
HETATM   23  C2  UNL     1      29.305   0.370  54.067  1.00  0.00     0.096 C 
HETATM   24  C1  UNL     1      30.020  -0.631  53.576  1.00  0.00     0.030 C 
ENDBRANCH  21  23
ENDBRANCH   1  21
TORSDOF 3
ENDMDL
MODEL 4
REMARK VINA RESULT:      -7.6      3.596      7.123
REMARK  3 active torsions:
REMARK  status: ('A' for Active; 'I' for Inactive)
REMARK    1  A    between atoms: C2_2  and  N1_3 
REMARK    2  A    between atoms: N1_3  and  C3_4 
REMARK    3  A    between atoms: C7_9  and  C8_10 
ROOT
HETATM    1  C3  UNL     1      27.870   1.826  53.301  1.00  0.00     0.728 A 
HETATM    2  N2  UNL     1      27.106   1.571  54.361  1.00  0.00    -0.074 NA
HETATM    3  C4  UNL     1      25.765   1.716  54.249  1.00  0.00     0.151 A 
HETATM    4  C5  UNL     1      25.203   2.122  53.051  1.00  0.00     0.030 A 
HETATM    5  C6  UNL     1      23.837   2.273  52.923  1.00  0.00     0.034 A 
HETATM    6  C7  UNL     1      23.365   2.683  51.689  1.00  0.00     0.047 A 
HETATM    7  C14 UNL     1      24.206   2.930  50.632  1.00  0.00     0.260 A 
HETATM    8  O1  UNL     1      23.717   3.300  49.535  1.00  0.00    -0.267 OA
HETATM    9  N3  UNL     1      25.536   2.766  50.816  1.00  0.00    -0.301 N 
HETATM   10  C15 UNL     1      26.382   3.039  49.669  1.00  0.00     0.161 C 
HETATM   11  C16 UNL     1      26.060   2.368  51.994  1.00  0.00     0.163 A 
HETATM   12  N4  UNL     1      27.403   2.223  52.107  1.00  0.00    -0.044 NA
ENDROOT
BRANCH   6  13
HETATM   13  C8  UNL     1      21.905   2.825  51.618  1.00  0.00     0.023 A 
HETATM   14  C9  UNL     1      21.240   1.603  51.485  1.00  0.00     0.046 A 
HETATM   15 CL1  UNL     1      22.027   0.045  51.408  1.00  0.00    -0.083 Cl
HETATM   16  C10 UNL     1      19.846   1.565  51.403  1.00  0.00     0.025 A 
HETATM   17  C11 UNL     1      19.166   2.779  51.460  1.00  0.00     0.003 A 
HETATM   18  C12 UNL     1      19.824   3.982  51.591  1.00  0.00     0.025 A 
HETATM   19  C13 UNL     1      21.202   4.013  51.671  1.00  0.00     0.046 A 
HETATM   20 CL2  UNL     1      22.159   5.465  51.838  1.00  0.00    -0.083 Cl
ENDBRANCH   6  13
BRANCH   1  21
HETATM   21  N1  UNL     1      29.274   1.680  53.397  1.00  0.00    -0.199 N 
HETATM   22  H4  UNL     1      29.962   2.444  53.358  1.00  0.00     0.183 HD
BRANCH  21  23
HETATM   23  C2  UNL     1      29.772   0.359  53.565  1.00  0.00     0.096 C 
HETATM   24  C1  UNL     1      29.680  -0.953  53.718  1.00  0.00     0.030 C 
ENDBRANCH  21  23
ENDBRANCH   1  21
TORSDOF 3
ENDMDL
MODEL 5
REMARK VINA RESULT:      -7.6      3.281      7.314
REMARK  3 active torsions:
REMARK  status: ('A' for Active; 'I' for Inactive)
REMARK    1  A    between atoms: C2_2  and  N1_3 
REMARK    2  A    between atoms: N1_3  and  C3_4 
REMARK    3  A    between atoms: C7_9  and  C8_10 
ROOT
HETATM    1  C3  UNL     1      26.608  -0.050  53.296  1.00  0.00     0.728 A 
HETATM    2  N2  UNL     1      27.111   0.786  52.390  1.00  0.00    -0.074 NA
HETATM    3  C4  UNL     1      26.262   1.547  51.660  1.00  0.00     0.151 A 
HETATM    4  C5  UNL     1      24.895   1.454  51.858  1.00  0.00     0.030 A 
HETATM    5  C6  UNL     1      24.018   2.224  51.122  1.00  0.00     0.034 A 
HETATM    6  C7  UNL     1      22.670   2.065  51.386  1.00  0.00     0.047 A 
HETATM    7  C14 UNL     1      22.212   1.184  52.336  1.00  0.00     0.260 A 
HETATM    8  O1  UNL     1      20.974   1.084  52.530  1.00  0.00    -0.267 OA
HETATM    9  N3  UNL     1      23.118   0.455  53.026  1.00  0.00    -0.301 N 
HETATM   10  C15 UNL     1      22.584  -0.460  54.018  1.00  0.00     0.161 C 
HETATM   11  C16 UNL     1      24.447   0.565  52.816  1.00  0.00     0.163 A 
HETATM   12  N4  UNL     1      25.298  -0.197  53.546  1.00  0.00    -0.044 NA
ENDROOT
BRANCH   6  13
HETATM   13  C8  UNL     1      21.790   2.911  50.570  1.00  0.00     0.023 A 
HETATM   14  C9  UNL     1      21.620   4.195  51.097  1.00  0.00     0.046 A 
HETATM   15 CL1  UNL     1      22.359   4.772  52.570  1.00  0.00    -0.083 Cl
HETATM   16  C10 UNL     1      20.810   5.124  50.439  1.00  0.00     0.025 A 
HETATM   17  C11 UNL     1      20.195   4.718  49.257  1.00  0.00     0.003 A 
HETATM   18  C12 UNL     1      20.365   3.452  48.740  1.00  0.00     0.025 A 
HETATM   19  C13 UNL     1      21.165   2.538  49.395  1.00  0.00     0.046 A 
HETATM   20 CL2  UNL     1      21.466   0.905  48.851  1.00  0.00    -0.083 Cl
ENDBRANCH   6  13
BRANCH   1  21
HETATM   21  N1  UNL     1      27.479  -0.853  54.069  1.00  0.00    -0.199 N 
HETATM   22  H4  UNL     1      27.197  -1.637  54.673  1.00  0.00     0.183 HD
BRANCH  21  23
HETATM   23  C2  UNL     1      28.865  -0.546  54.000  1.00  0.00     0.096 C 
HETATM   24  C1  UNL     1      30.112  -0.690  53.577  1.00  0.00     0.030 C 
ENDBRANCH  21  23
ENDBRANCH   1  21
TORSDOF 3
ENDMDL
MODEL 6
REMARK VINA RESULT:      -7.5      5.480      8.388
REMARK  3 active torsions:
REMARK  status: ('A' for Active; 'I' for Inactive)
REMARK    1  A    between atoms: C2_2  and  N1_3 
REMARK    2  A    between atoms: N1_3  and  C3_4 
REMARK    3  A    between atoms: C7_9  and  C8_10 
ROOT
HETATM    1  C3  UNL     1      27.398   6.663  48.607  1.00  0.00     0.728 A 
HETATM    2  N2  UNL     1      27.883   5.448  48.360  1.00  0.00    -0.074 NA
HETATM    3  C4  UNL     1      27.245   4.372  48.878  1.00  0.00     0.151 A 
HETATM    4  C5  UNL     1      26.108   4.538  49.649  1.00  0.00     0.030 A 
HETATM    5  C6  UNL     1      25.447   3.450  50.183  1.00  0.00     0.034 A 
HETATM    6  C7  UNL     1      24.320   3.712  50.940  1.00  0.00     0.047 A 
HETATM    7  C14 UNL     1      23.868   4.990  51.158  1.00  0.00     0.260 A 
HETATM    8  O1  UNL     1      22.837   5.164  51.857  1.00  0.00    -0.267 OA
HETATM    9  N3  UNL     1      24.557   6.018  50.611  1.00  0.00    -0.301 N 
HETATM   10  C15 UNL     1      24.039   7.348  50.871  1.00  0.00     0.161 C 
HETATM   11  C16 UNL     1      25.663   5.829  49.862  1.00  0.00     0.163 A 
HETATM   12  N4  UNL     1      26.303   6.906  49.343  1.00  0.00    -0.044 NA
ENDROOT
BRANCH   6  13
HETATM   13  C8  UNL     1      23.663   2.514  51.480  1.00  0.00     0.023 A 
HETATM   14  C9  UNL     1      22.691   1.989  50.624  1.00  0.00     0.046 A 
HETATM   15 CL1  UNL     1      22.269   2.658  49.066  1.00  0.00    -0.083 Cl
HETATM   16  C10 UNL     1      21.972   0.848  50.990  1.00  0.00     0.025 A 
HETATM   17  C11 UNL     1      22.267   0.271  52.223  1.00  0.00     0.003 A 
HETATM   18  C12 UNL     1      23.227   0.790  53.064  1.00  0.00     0.025 A 
HETATM   19  C13 UNL     1      23.933   1.919  52.697  1.00  0.00     0.046 A 
HETATM   20 CL2  UNL     1      25.172   2.679  53.665  1.00  0.00    -0.083 Cl
ENDBRANCH   6  13
BRANCH   1  21
HETATM   21  N1  UNL     1      28.051   7.799  48.075  1.00  0.00    -0.199 N 
HETATM   22  H4  UNL     1      27.950   8.156  47.115  1.00  0.00     0.183 HD
BRANCH  21  23
HETATM   23  C2  UNL     1      28.920   8.507  48.948  1.00  0.00     0.096 C 
HETATM   24  C1  UNL     1      29.781   9.456  49.284  1.00  0.00     0.030 C 
ENDBRANCH  21  23
ENDBRANCH   1  21
TORSDOF 3
ENDMDL
MODEL 7
REMARK VINA RESULT:      -7.5      3.272      7.130
REMARK  3 active torsions:
REMARK  status: ('A' for Active; 'I' for Inactive)
REMARK    1  A    between atoms: C2_2  and  N1_3 
REMARK    2  A    between atoms: N1_3  and  C3_4 
REMARK    3  A    between atoms: C7_9  and  C8_10 
ROOT
HETATM    1  C3  UNL     1      25.958  -0.251  53.711  1.00  0.00     0.728 A 
HETATM    2  N2  UNL     1      24.757  -0.662  54.113  1.00  0.00    -0.074 NA
HETATM    3  C4  UNL     1      23.656  -0.126  53.537  1.00  0.00     0.151 A 
HETATM    4  C5  UNL     1      23.782   0.832  52.546  1.00  0.00     0.030 A 
HETATM    5  C6  UNL     1      22.669   1.387  51.948  1.00  0.00     0.034 A 
HETATM    6  C7  UNL     1      22.891   2.337  50.968  1.00  0.00     0.047 A 
HETATM    7  C14 UNL     1      24.157   2.719  50.596  1.00  0.00     0.260 A 
HETATM    8  O1  UNL     1      24.294   3.588  49.699  1.00  0.00    -0.267 OA
HETATM    9  N3  UNL     1      25.211   2.142  51.216  1.00  0.00    -0.301 N 
HETATM   10  C15 UNL     1      26.526   2.579  50.788  1.00  0.00     0.161 C 
HETATM   11  C16 UNL     1      25.061   1.209  52.180  1.00  0.00     0.163 A 
HETATM   12  N4  UNL     1      26.163   0.671  52.759  1.00  0.00    -0.044 NA
ENDROOT
BRANCH   6  13
HETATM   13  C8  UNL     1      21.666   2.889  50.373  1.00  0.00     0.023 A 
HETATM   14  C9  UNL     1      21.216   4.045  51.018  1.00  0.00     0.046 A 
HETATM   15 CL1  UNL     1      21.998   4.788  52.391  1.00  0.00    -0.083 Cl
HETATM   16  C10 UNL     1      20.061   4.693  50.574  1.00  0.00     0.025 A 
HETATM   17  C11 UNL     1      19.395   4.144  49.481  1.00  0.00     0.003 A 
HETATM   18  C12 UNL     1      19.842   3.005  48.847  1.00  0.00     0.025 A 
HETATM   19  C13 UNL     1      20.983   2.368  49.292  1.00  0.00     0.046 A 
HETATM   20 CL2  UNL     1      21.658   0.921  48.582  1.00  0.00    -0.083 Cl
ENDBRANCH   6  13
BRANCH   1  21
HETATM   21  N1  UNL     1      27.120  -0.800  54.302  1.00  0.00    -0.199 N 
HETATM   22  H4  UNL     1      27.142  -1.422  55.121  1.00  0.00     0.183 HD
BRANCH  21  23
HETATM   23  C2  UNL     1      28.364  -0.458  53.705  1.00  0.00     0.096 C 
HETATM   24  C1  UNL     1      29.673  -0.537  53.517  1.00  0.00     0.030 C 
ENDBRANCH  21  23
ENDBRANCH   1  21
TORSDOF 3
ENDMDL
MODEL 8
REMARK VINA RESULT:      -7.4      5.371      8.469
REMARK  3 active torsions:
REMARK  status: ('A' for Active; 'I' for Inactive)
REMARK    1  A    between atoms: C2_2  and  N1_3 
REMARK    2  A    between atoms: N1_3  and  C3_4 
REMARK    3  A    between atoms: C7_9  and  C8_10 
ROOT
HETATM    1  C3  UNL     1      27.334   6.650  48.763  1.00  0.00     0.728 A 
HETATM    2  N2  UNL     1      27.811   5.440  48.483  1.00  0.00    -0.074 NA
HETATM    3  C4  UNL     1      27.127   4.352  48.910  1.00  0.00     0.151 A 
HETATM    4  C5  UNL     1      25.951   4.503  49.624  1.00  0.00     0.030 A 
HETATM    5  C6  UNL     1      25.243   3.404  50.065  1.00  0.00     0.034 A 
HETATM    6  C7  UNL     1      24.080   3.651  50.772  1.00  0.00     0.047 A 
HETATM    7  C14 UNL     1      23.638   4.926  51.028  1.00  0.00     0.260 A 
HETATM    8  O1  UNL     1      22.573   5.085  51.676  1.00  0.00    -0.267 OA
HETATM    9  N3  UNL     1      24.374   5.965  50.572  1.00  0.00    -0.301 N 
HETATM   10  C15 UNL     1      23.865   7.291  50.869  1.00  0.00     0.161 C 
HETATM   11  C16 UNL     1      25.518   5.791  49.877  1.00  0.00     0.163 A 
HETATM   12  N4  UNL     1      26.204   6.879  49.449  1.00  0.00    -0.044 NA
ENDROOT
BRANCH   6  13
HETATM   13  C8  UNL     1      23.373   2.441  51.213  1.00  0.00     0.023 A 
HETATM   14  C9  UNL     1      23.775   2.002  52.478  1.00  0.00     0.046 A 
HETATM   15 CL1  UNL     1      24.987   2.782  53.464  1.00  0.00    -0.083 Cl
HETATM   16  C10 UNL     1      23.199   0.861  53.043  1.00  0.00     0.025 A 
HETATM   17  C11 UNL     1      22.225   0.198  52.300  1.00  0.00     0.003 A 
HETATM   18  C12 UNL     1      21.831   0.633  51.054  1.00  0.00     0.025 A 
HETATM   19  C13 UNL     1      22.405   1.760  50.501  1.00  0.00     0.046 A 
HETATM   20 CL2  UNL     1      22.000   2.419  48.934  1.00  0.00    -0.083 Cl
ENDBRANCH   6  13
BRANCH   1  21
HETATM   21  N1  UNL     1      28.035   7.799  48.325  1.00  0.00    -0.199 N 
HETATM   22  H4  UNL     1      27.608   8.658  47.954  1.00  0.00     0.183 HD
BRANCH  21  23
HETATM   23  C2  UNL     1      29.453   7.755  48.410  1.00  0.00     0.096 C 
HETATM   24  C1  UNL     1      30.640   8.052  48.917  1.00  0.00     0.030 C 
ENDBRANCH  21  23
ENDBRANCH   1  21
TORSDOF 3
ENDMDL
MODEL 9
REMARK VINA RESULT:      -7.1      3.512      7.190
REMARK  3 active torsions:
REMARK  status: ('A' for Active; 'I' for Inactive)
REMARK    1  A    between atoms: C2_2  and  N1_3 
REMARK    2  A    between atoms: N1_3  and  C3_4 
REMARK    3  A    between atoms: C7_9  and  C8_10 
ROOT
HETATM    1  C3  UNL     1      26.497   0.250  53.009  1.00  0.00     0.728 A 
HETATM    2  N2  UNL     1      27.166   1.189  52.343  1.00  0.00    -0.074 NA
HETATM    3  C4  UNL     1      26.473   2.069  51.582  1.00  0.00     0.151 A 
HETATM    4  C5  UNL     1      25.093   1.989  51.503  1.00  0.00     0.030 A 
HETATM    5  C6  UNL     1      24.374   2.880  50.733  1.00  0.00     0.034 A 
HETATM    6  C7  UNL     1      23.000   2.725  50.713  1.00  0.00     0.047 A 
HETATM    7  C14 UNL     1      22.368   1.734  51.424  1.00  0.00     0.260 A 
HETATM    8  O1  UNL     1      21.115   1.644  51.365  1.00  0.00    -0.267 OA
HETATM    9  N3  UNL     1      23.124   0.890  52.162  1.00  0.00    -0.301 N 
HETATM   10  C15 UNL     1      22.409  -0.139  52.894  1.00  0.00     0.161 C 
HETATM   11  C16 UNL     1      24.469   0.988  52.223  1.00  0.00     0.163 A 
HETATM   12  N4  UNL     1      25.163   0.108  52.984  1.00  0.00    -0.044 NA
ENDROOT
BRANCH   6  13
HETATM   13  C8  UNL     1      22.293   3.702  49.874  1.00  0.00     0.023 A 
HETATM   14  C9  UNL     1      22.118   3.269  48.556  1.00  0.00     0.046 A 
HETATM   15 CL1  UNL     1      22.667   1.734  47.932  1.00  0.00    -0.083 Cl
HETATM   16  C10 UNL     1      21.464   4.084  47.630  1.00  0.00     0.025 A 
HETATM   17  C11 UNL     1      21.004   5.322  48.073  1.00  0.00     0.003 A 
HETATM   18  C12 UNL     1      21.178   5.745  49.373  1.00  0.00     0.025 A 
HETATM   19  C13 UNL     1      21.826   4.936  50.284  1.00  0.00     0.046 A 
HETATM   20 CL2  UNL     1      22.113   5.348  51.957  1.00  0.00    -0.083 Cl
ENDBRANCH   6  13
BRANCH   1  21
HETATM   21  N1  UNL     1      27.203  -0.678  53.809  1.00  0.00    -0.199 N 
HETATM   22  H4  UNL     1      26.810  -1.219  54.592  1.00  0.00     0.183 HD
BRANCH  21  23
HETATM   23  C2  UNL     1      28.576  -0.878  53.500  1.00  0.00     0.096 C 
HETATM   24  C1  UNL     1      29.874  -0.932  53.756  1.00  0.00     0.030 C 
ENDBRANCH  21  23
ENDBRANCH   1  21
TORSDOF 3
ENDMDL
