MODEL 1
REMARK VINA RESULT:      -7.6      0.000      0.000
REMARK  5 active torsions:
REMARK  status: ('A' for Active; 'I' for Inactive)
REMARK    1  A    between atoms: O1_2  and  C2_3 
REMARK    2  A    between atoms: C3_5  and  C4_6 
REMARK    3  A    between atoms: C4_6  and  O2_7 
REMARK    4  A    between atoms: O2_7  and  C5_8 
REMARK    5  A    between atoms: C8_13  and  N4_14 
ROOT
HETATM    1  C2  UNL     1      25.626   3.215  50.457  1.00  0.00     0.164 C 
HETATM    2  N1  UNL     1      25.676   2.231  51.343  1.00  0.00    -0.229 NA
HETATM    3  C3  UNL     1      24.614   1.538  52.021  1.00  0.00     0.067 C 
HETATM    4  C9  UNL     1      23.314   1.940  52.143  1.00  0.00    -0.029 C 
HETATM    5  C10 UNL     1      22.536   3.221  52.316  1.00  0.00     0.042 C 
HETATM    6  C11 UNL     1      22.524   3.174  50.951  1.00  0.00     0.061 C 
HETATM    7  O3  UNL     1      23.312   3.863  49.978  1.00  0.00    -0.346 OA
HETATM    8  C12 UNL     1      24.690   4.151  49.784  1.00  0.00     0.261 C 
HETATM    9  C13 UNL     1      21.529   2.242  50.326  1.00  0.00     0.115 C 
HETATM   10 BR1  UNL     1      22.026   1.732  48.548  1.00  0.00    -0.084 Br
HETATM   11  C14 UNL     1      21.323   0.972  51.116  1.00  0.00     0.027 C 
HETATM   12  C15 UNL     1      22.543   0.631  52.007  1.00  0.00     0.042 C 
ENDROOT
BRANCH   3  13
HETATM   13  C4  UNL     1      24.902   0.236  52.670  1.00  0.00     0.237 C 
BRANCH  13  14
HETATM   14  O2  UNL     1      25.797   0.514  53.735  1.00  0.00    -0.327 OA
BRANCH  14  15
HETATM   15  C5  UNL     1      27.122   0.108  53.686  1.00  0.00     0.194 A 
HETATM   16  N2  UNL     1      27.622  -1.146  53.546  1.00  0.00    -0.216 NA
HETATM   17  C6  UNL     1      28.978  -1.280  53.528  1.00  0.00     0.235 A 
HETATM   18  N3  UNL     1      29.867  -0.255  53.641  1.00  0.00    -0.252 NA
HETATM   19  C7  UNL     1      29.388   1.015  53.784  1.00  0.00     0.151 A 
HETATM   20  C8  UNL     1      28.015   1.175  53.805  1.00  0.00     0.097 A 
BRANCH  20  21
HETATM   21  N4  UNL     1      27.604   2.546  53.959  1.00  0.00    -0.394 N 
HETATM   22  H8  UNL     1      28.015   3.090  54.756  1.00  0.00     0.156 HD
HETATM   23  H9  UNL     1      26.930   2.742  53.196  1.00  0.00     0.156 HD
ENDBRANCH  20  21
ENDBRANCH  14  15
ENDBRANCH  13  14
ENDBRANCH   3  13
BRANCH   1  24
HETATM   24  O1  UNL     1      26.923   3.447  49.998  1.00  0.00    -0.341 OA
HETATM   25  C1  UNL     1      27.170   4.444  49.007  1.00  0.00     0.211 C 
ENDBRANCH   1  24
TORSDOF 5
ENDMDL
MODEL 2
REMARK VINA RESULT:      -7.1      3.327      6.794
REMARK  5 active torsions:
REMARK  status: ('A' for Active; 'I' for Inactive)
REMARK    1  A    between atoms: O1_2  and  C2_3 
REMARK    2  A    between atoms: C3_5  and  C4_6 
REMARK    3  A    between atoms: C4_6  and  O2_7 
REMARK    4  A    between atoms: O2_7  and  C5_8 
REMARK    5  A    between atoms: C8_13  and  N4_14 
ROOT
HETATM    1  C2  UNL     1      23.318  -0.828  54.690  1.00  0.00     0.164 C 
HETATM    2  N1  UNL     1      22.909   0.025  53.762  1.00  0.00    -0.229 NA
HETATM    3  C3  UNL     1      23.665   0.913  52.921  1.00  0.00     0.067 C 
HETATM    4  C9  UNL     1      24.959   1.312  53.097  1.00  0.00    -0.029 C 
HETATM    5  C10 UNL     1      25.895   1.650  54.230  1.00  0.00     0.042 C 
HETATM    6  C11 UNL     1      26.188   0.320  54.133  1.00  0.00     0.061 C 
HETATM    7  O3  UNL     1      25.758  -0.798  54.912  1.00  0.00    -0.346 OA
HETATM    8  C12 UNL     1      24.525  -1.283  55.427  1.00  0.00     0.261 C 
HETATM    9  C13 UNL     1      27.112  -0.078  53.022  1.00  0.00     0.115 C 
HETATM   10 BR1  UNL     1      26.922  -1.923  52.541  1.00  0.00    -0.084 Br
HETATM   11  C14 UNL     1      26.920   0.735  51.764  1.00  0.00     0.027 C 
HETATM   12  C15 UNL     1      25.498   1.343  51.671  1.00  0.00     0.042 C 
ENDROOT
BRANCH   3  13
HETATM   13  C4  UNL     1      23.021   1.483  51.712  1.00  0.00     0.237 C 
BRANCH  13  14
HETATM   14  O2  UNL     1      22.241   2.581  52.159  1.00  0.00    -0.327 OA
BRANCH  14  15
HETATM   15  C5  UNL     1      22.548   3.880  51.787  1.00  0.00     0.194 A 
HETATM   16  N2  UNL     1      23.764   4.480  51.715  1.00  0.00    -0.216 NA
HETATM   17  C6  UNL     1      23.797   5.783  51.317  1.00  0.00     0.235 A 
HETATM   18  N3  UNL     1      22.707   6.527  50.986  1.00  0.00    -0.252 NA
HETATM   19  C7  UNL     1      21.473   5.947  51.051  1.00  0.00     0.151 A 
HETATM   20  C8  UNL     1      21.415   4.625  51.452  1.00  0.00     0.097 A 
BRANCH  20  21
HETATM   21  N4  UNL     1      20.075   4.099  51.490  1.00  0.00    -0.394 N 
HETATM   22  H8  UNL     1      19.651   3.783  50.585  1.00  0.00     0.156 HD
HETATM   23  H9  UNL     1      19.768   4.139  52.480  1.00  0.00     0.156 HD
ENDBRANCH  20  21
ENDBRANCH  14  15
ENDBRANCH  13  14
ENDBRANCH   3  13
BRANCH   1  24
HETATM   24  O1  UNL     1      22.209  -1.554  55.126  1.00  0.00    -0.341 OA
HETATM   25  C1  UNL     1      21.004  -1.563  54.359  1.00  0.00     0.211 C 
ENDBRANCH   1  24
TORSDOF 5
ENDMDL
MODEL 3
REMARK VINA RESULT:      -6.9      2.156      3.923
REMARK  5 active torsions:
REMARK  status: ('A' for Active; 'I' for Inactive)
REMARK    1  A    between atoms: O1_2  and  C2_3 
REMARK    2  A    between atoms: C3_5  and  C4_6 
REMARK    3  A    between atoms: C4_6  and  O2_7 
REMARK    4  A    between atoms: O2_7  and  C5_8 
REMARK    5  A    between atoms: C8_13  and  N4_14 
ROOT
HETATM    1  C2  UNL     1      22.225   0.204  52.345  1.00  0.00     0.164 C 
HETATM    2  N1  UNL     1      23.417   0.742  52.129  1.00  0.00    -0.229 NA
HETATM    3  C3  UNL     1      23.816   1.771  51.208  1.00  0.00     0.067 C 
HETATM    4  C9  UNL     1      23.120   2.221  50.122  1.00  0.00    -0.029 C 
HETATM    5  C10 UNL     1      22.213   1.667  49.051  1.00  0.00     0.042 C 
HETATM    6  C11 UNL     1      21.251   2.001  49.961  1.00  0.00     0.061 C 
HETATM    7  O3  UNL     1      20.522   1.203  50.895  1.00  0.00    -0.346 OA
HETATM    8  C12 UNL     1      20.826   0.191  51.845  1.00  0.00     0.261 C 
HETATM    9  C13 UNL     1      20.872   3.450  50.027  1.00  0.00     0.115 C 
HETATM   10 BR1  UNL     1      20.084   3.921  51.709  1.00  0.00    -0.084 Br
HETATM   11  C14 UNL     1      22.037   4.383  49.801  1.00  0.00     0.027 C 
HETATM   12  C15 UNL     1      23.394   3.720  50.144  1.00  0.00     0.042 C 
ENDROOT
BRANCH   3  13
HETATM   13  C4  UNL     1      25.112   2.461  51.416  1.00  0.00     0.237 C 
BRANCH  13  14
HETATM   14  O2  UNL     1      26.084   1.439  51.568  1.00  0.00    -0.327 OA
BRANCH  14  15
HETATM   15  C5  UNL     1      27.053   1.508  52.557  1.00  0.00     0.194 A 
HETATM   16  N2  UNL     1      28.063   2.404  52.697  1.00  0.00    -0.216 NA
HETATM   17  C6  UNL     1      28.891   2.253  53.769  1.00  0.00     0.235 A 
HETATM   18  N3  UNL     1      28.783   1.272  54.707  1.00  0.00    -0.252 NA
HETATM   19  C7  UNL     1      27.776   0.358  54.587  1.00  0.00     0.151 A 
HETATM   20  C8  UNL     1      26.924   0.493  53.508  1.00  0.00     0.097 A 
BRANCH  20  21
HETATM   21  N4  UNL     1      25.896  -0.514  53.464  1.00  0.00    -0.394 N 
HETATM   22  H8  UNL     1      25.326  -0.665  54.332  1.00  0.00     0.156 HD
HETATM   23  H9  UNL     1      25.921  -0.924  52.512  1.00  0.00     0.156 HD
ENDBRANCH  20  21
ENDBRANCH  14  15
ENDBRANCH  13  14
ENDBRANCH   3  13
BRANCH   1  24
HETATM   24  O1  UNL     1      22.335  -0.660  53.436  1.00  0.00    -0.341 OA
HETATM   25  C1  UNL     1      21.564  -0.433  54.617  1.00  0.00     0.211 C 
ENDBRANCH   1  24
TORSDOF 5
ENDMDL
MODEL 4
REMARK VINA RESULT:      -6.9      2.216      3.792
REMARK  5 active torsions:
REMARK  status: ('A' for Active; 'I' for Inactive)
REMARK    1  A    between atoms: O1_2  and  C2_3 
REMARK    2  A    between atoms: C3_5  and  C4_6 
REMARK    3  A    between atoms: C4_6  and  O2_7 
REMARK    4  A    between atoms: O2_7  and  C5_8 
REMARK    5  A    between atoms: C8_13  and  N4_14 
ROOT
HETATM    1  C2  UNL     1      22.468  -0.124  52.766  1.00  0.00     0.164 C 
HETATM    2  N1  UNL     1      23.563   0.520  53.142  1.00  0.00    -0.229 NA
HETATM    3  C3  UNL     1      24.121   1.756  52.666  1.00  0.00     0.067 C 
HETATM    4  C9  UNL     1      23.821   2.402  51.500  1.00  0.00    -0.029 C 
HETATM    5  C10 UNL     1      23.466   2.058  50.075  1.00  0.00     0.042 C 
HETATM    6  C11 UNL     1      22.197   2.114  50.579  1.00  0.00     0.061 C 
HETATM    7  O3  UNL     1      21.298   1.079  50.980  1.00  0.00    -0.346 OA
HETATM    8  C12 UNL     1      21.372  -0.105  51.763  1.00  0.00     0.261 C 
HETATM    9  C13 UNL     1      21.615   3.483  50.764  1.00  0.00     0.115 C 
HETATM   10 BR1  UNL     1      20.201   3.504  52.056  1.00  0.00    -0.084 Br
HETATM   11  C14 UNL     1      22.632   4.511  51.196  1.00  0.00     0.027 C 
HETATM   12  C15 UNL     1      23.846   3.870  51.912  1.00  0.00     0.042 C 
ENDROOT
BRANCH   3  13
HETATM   13  C4  UNL     1      25.133   2.456  53.494  1.00  0.00     0.237 C 
BRANCH  13  14
HETATM   14  O2  UNL     1      25.759   1.456  54.283  1.00  0.00    -0.327 OA
BRANCH  14  15
HETATM   15  C5  UNL     1      27.094   1.128  54.104  1.00  0.00     0.194 A 
HETATM   16  N2  UNL     1      28.187   1.924  54.216  1.00  0.00    -0.216 NA
HETATM   17  C6  UNL     1      29.403   1.354  53.986  1.00  0.00     0.235 A 
HETATM   18  N3  UNL     1      29.605   0.049  53.653  1.00  0.00    -0.252 NA
HETATM   19  C7  UNL     1      28.520  -0.772  53.534  1.00  0.00     0.151 A 
HETATM   20  C8  UNL     1      27.276  -0.214  53.763  1.00  0.00     0.097 A 
BRANCH  20  21
HETATM   21  N4  UNL     1      26.195  -1.153  53.614  1.00  0.00    -0.394 N 
HETATM   22  H8  UNL     1      25.258  -0.775  53.333  1.00  0.00     0.156 HD
HETATM   23  H9  UNL     1      26.582  -2.090  53.831  1.00  0.00     0.156 HD
ENDBRANCH  20  21
ENDBRANCH  14  15
ENDBRANCH  13  14
ENDBRANCH   3  13
BRANCH   1  24
HETATM   24  O1  UNL     1      22.289  -1.208  53.626  1.00  0.00    -0.341 OA
HETATM   25  C1  UNL     1      22.748  -1.142  54.977  1.00  0.00     0.211 C 
ENDBRANCH   1  24
TORSDOF 5
ENDMDL
MODEL 5
REMARK VINA RESULT:      -6.7      2.070      2.541
REMARK  5 active torsions:
REMARK  status: ('A' for Active; 'I' for Inactive)
REMARK    1  A    between atoms: O1_2  and  C2_3 
REMARK    2  A    between atoms: C3_5  and  C4_6 
REMARK    3  A    between atoms: C4_6  and  O2_7 
REMARK    4  A    between atoms: O2_7  and  C5_8 
REMARK    5  A    between atoms: C8_13  and  N4_14 
ROOT
HETATM    1  C2  UNL     1      23.186   5.033  51.826  1.00  0.00     0.164 C 
HETATM    2  N1  UNL     1      23.883   3.960  52.172  1.00  0.00    -0.229 NA
HETATM    3  C3  UNL     1      23.500   2.574  52.197  1.00  0.00     0.067 C 
HETATM    4  C9  UNL     1      22.232   2.068  52.164  1.00  0.00    -0.029 C 
HETATM    5  C10 UNL     1      20.861   2.415  52.688  1.00  0.00     0.042 C 
HETATM    6  C11 UNL     1      20.772   3.053  51.484  1.00  0.00     0.061 C 
HETATM    7  O3  UNL     1      20.913   4.431  51.136  1.00  0.00    -0.346 OA
HETATM    8  C12 UNL     1      21.826   5.480  51.429  1.00  0.00     0.261 C 
HETATM    9  C13 UNL     1      20.483   2.189  50.293  1.00  0.00     0.115 C 
HETATM   10 BR1  UNL     1      21.043   3.000  48.651  1.00  0.00    -0.084 Br
HETATM   11  C14 UNL     1      21.138   0.831  50.368  1.00  0.00     0.027 C 
HETATM   12  C15 UNL     1      22.387   0.832  51.285  1.00  0.00     0.042 C 
ENDROOT
BRANCH   3  13
HETATM   13  C4  UNL     1      24.559   1.537  52.256  1.00  0.00     0.237 C 
BRANCH  13  14
HETATM   14  O2  UNL     1      25.038   1.535  53.591  1.00  0.00    -0.327 OA
BRANCH  14  15
HETATM   15  C5  UNL     1      26.396   1.543  53.869  1.00  0.00     0.194 A 
HETATM   16  N2  UNL     1      27.318   2.496  53.580  1.00  0.00    -0.216 NA
HETATM   17  C6  UNL     1      28.604   2.262  53.964  1.00  0.00     0.235 A 
HETATM   18  N3  UNL     1      29.034   1.145  54.614  1.00  0.00    -0.252 NA
HETATM   19  C7  UNL     1      28.125   0.171  54.915  1.00  0.00     0.151 A 
HETATM   20  C8  UNL     1      26.815   0.389  54.535  1.00  0.00     0.097 A 
BRANCH  20  21
HETATM   21  N4  UNL     1      25.931  -0.689  54.894  1.00  0.00    -0.394 N 
HETATM   22  H8  UNL     1      24.902  -0.544  54.748  1.00  0.00     0.156 HD
HETATM   23  H9  UNL     1      26.528  -1.457  55.253  1.00  0.00     0.156 HD
ENDBRANCH  20  21
ENDBRANCH  14  15
ENDBRANCH  13  14
ENDBRANCH   3  13
BRANCH   1  24
HETATM   24  O1  UNL     1      24.047   6.131  51.846  1.00  0.00    -0.341 OA
HETATM   25  C1  UNL     1      24.051   7.064  50.766  1.00  0.00     0.211 C 
ENDBRANCH   1  24
TORSDOF 5
ENDMDL
MODEL 6
REMARK VINA RESULT:      -6.7      3.565      7.332
REMARK  5 active torsions:
REMARK  status: ('A' for Active; 'I' for Inactive)
REMARK    1  A    between atoms: O1_2  and  C2_3 
REMARK    2  A    between atoms: C3_5  and  C4_6 
REMARK    3  A    between atoms: C4_6  and  O2_7 
REMARK    4  A    between atoms: O2_7  and  C5_8 
REMARK    5  A    between atoms: C8_13  and  N4_14 
ROOT
HETATM    1  C2  UNL     1      23.253  -0.870  54.580  1.00  0.00     0.164 C 
HETATM    2  N1  UNL     1      22.878  -0.015  53.640  1.00  0.00    -0.229 NA
HETATM    3  C3  UNL     1      23.663   0.885  52.839  1.00  0.00     0.067 C 
HETATM    4  C9  UNL     1      24.945   1.293  53.073  1.00  0.00    -0.029 C 
HETATM    5  C10 UNL     1      25.828   1.632  54.248  1.00  0.00     0.042 C 
HETATM    6  C11 UNL     1      26.135   0.304  54.155  1.00  0.00     0.061 C 
HETATM    7  O3  UNL     1      25.681  -0.822  54.908  1.00  0.00    -0.346 OA
HETATM    8  C12 UNL     1      24.430  -1.320  55.366  1.00  0.00     0.261 C 
HETATM    9  C13 UNL     1      27.110  -0.080  53.083  1.00  0.00     0.115 C 
HETATM   10 BR1  UNL     1      26.956  -1.923  52.584  1.00  0.00    -0.084 Br
HETATM   11  C14 UNL     1      26.966   0.739  51.824  1.00  0.00     0.027 C 
HETATM   12  C15 UNL     1      25.545   1.337  51.672  1.00  0.00     0.042 C 
ENDROOT
BRANCH   3  13
HETATM   13  C4  UNL     1      23.068   1.457  51.606  1.00  0.00     0.237 C 
BRANCH  13  14
HETATM   14  O2  UNL     1      21.905   0.690  51.336  1.00  0.00    -0.327 OA
BRANCH  14  15
HETATM   15  C5  UNL     1      20.667   1.293  51.174  1.00  0.00     0.194 A 
HETATM   16  N2  UNL     1      19.818   1.761  52.125  1.00  0.00    -0.216 NA
HETATM   17  C6  UNL     1      18.648   2.316  51.702  1.00  0.00     0.235 A 
HETATM   18  N3  UNL     1      18.265   2.437  50.401  1.00  0.00    -0.252 NA
HETATM   19  C7  UNL     1      19.102   1.973  49.426  1.00  0.00     0.151 A 
HETATM   20  C8  UNL     1      20.295   1.406  49.833  1.00  0.00     0.097 A 
BRANCH  20  21
HETATM   21  N4  UNL     1      21.109   0.947  48.738  1.00  0.00    -0.394 N 
HETATM   22  H8  UNL     1      20.626   0.710  47.838  1.00  0.00     0.156 HD
HETATM   23  H9  UNL     1      22.088   0.939  49.079  1.00  0.00     0.156 HD
ENDBRANCH  20  21
ENDBRANCH  14  15
ENDBRANCH  13  14
ENDBRANCH   3  13
BRANCH   1  24
HETATM   24  O1  UNL     1      22.132  -1.608  54.962  1.00  0.00    -0.341 OA
HETATM   25  C1  UNL     1      20.859  -1.347  54.369  1.00  0.00     0.211 C 
ENDBRANCH   1  24
TORSDOF 5
ENDMDL
MODEL 7
REMARK VINA RESULT:      -6.6      1.967      3.589
REMARK  5 active torsions:
REMARK  status: ('A' for Active; 'I' for Inactive)
REMARK    1  A    between atoms: O1_2  and  C2_3 
REMARK    2  A    between atoms: C3_5  and  C4_6 
REMARK    3  A    between atoms: C4_6  and  O2_7 
REMARK    4  A    between atoms: O2_7  and  C5_8 
REMARK    5  A    between atoms: C8_13  and  N4_14 
ROOT
HETATM    1  C2  UNL     1      22.438   1.751  52.118  1.00  0.00     0.164 C 
HETATM    2  N1  UNL     1      23.745   1.712  51.899  1.00  0.00    -0.229 NA
HETATM    3  C3  UNL     1      24.539   2.384  50.906  1.00  0.00     0.067 C 
HETATM    4  C9  UNL     1      24.096   2.979  49.760  1.00  0.00    -0.029 C 
HETATM    5  C10 UNL     1      23.036   2.762  48.709  1.00  0.00     0.042 C 
HETATM    6  C11 UNL     1      22.309   3.556  49.550  1.00  0.00     0.061 C 
HETATM    7  O3  UNL     1      21.314   3.233  50.523  1.00  0.00    -0.346 OA
HETATM    8  C12 UNL     1      21.164   2.283  51.569  1.00  0.00     0.261 C 
HETATM    9  C13 UNL     1      22.581   5.028  49.475  1.00  0.00     0.115 C 
HETATM   10 BR1  UNL     1      22.073   5.945  51.078  1.00  0.00    -0.084 Br
HETATM   11  C14 UNL     1      24.030   5.355  49.211  1.00  0.00     0.027 C 
HETATM   12  C15 UNL     1      24.980   4.217  49.660  1.00  0.00     0.042 C 
ENDROOT
BRANCH   3  13
HETATM   13  C4  UNL     1      26.006   2.477  51.101  1.00  0.00     0.237 C 
BRANCH  13  14
HETATM   14  O2  UNL     1      26.250   2.118  52.452  1.00  0.00    -0.327 OA
BRANCH  14  15
HETATM   15  C5  UNL     1      26.910   0.943  52.776  1.00  0.00     0.194 A 
HETATM   16  N2  UNL     1      26.605  -0.331  52.418  1.00  0.00    -0.216 NA
HETATM   17  C6  UNL     1      27.421  -1.322  52.874  1.00  0.00     0.235 A 
HETATM   18  N3  UNL     1      28.517  -1.134  53.659  1.00  0.00    -0.252 NA
HETATM   19  C7  UNL     1      28.844   0.138  54.034  1.00  0.00     0.151 A 
HETATM   20  C8  UNL     1      28.029   1.160  53.583  1.00  0.00     0.097 A 
BRANCH  20  21
HETATM   21  N4  UNL     1      28.451   2.463  54.027  1.00  0.00    -0.394 N 
HETATM   22  H8  UNL     1      27.742   3.235  54.009  1.00  0.00     0.156 HD
HETATM   23  H9  UNL     1      29.448   2.376  54.297  1.00  0.00     0.156 HD
ENDBRANCH  20  21
ENDBRANCH  14  15
ENDBRANCH  13  14
ENDBRANCH   3  13
BRANCH   1  24
HETATM   24  O1  UNL     1      22.175   1.030  53.283  1.00  0.00    -0.341 OA
HETATM   25  C1  UNL     1      20.835   0.673  53.624  1.00  0.00     0.211 C 
ENDBRANCH   1  24
TORSDOF 5
ENDMDL
MODEL 8
REMARK VINA RESULT:      -6.6      2.417      4.123
REMARK  5 active torsions:
REMARK  status: ('A' for Active; 'I' for Inactive)
REMARK    1  A    between atoms: O1_2  and  C2_3 
REMARK    2  A    between atoms: C3_5  and  C4_6 
REMARK    3  A    between atoms: C4_6  and  O2_7 
REMARK    4  A    between atoms: O2_7  and  C5_8 
REMARK    5  A    between atoms: C8_13  and  N4_14 
ROOT
HETATM    1  C2  UNL     1      20.677   0.234  52.195  1.00  0.00     0.164 C 
HETATM    2  N1  UNL     1      21.971   0.514  52.127  1.00  0.00    -0.229 NA
HETATM    3  C3  UNL     1      22.704   1.278  51.154  1.00  0.00     0.067 C 
HETATM    4  C9  UNL     1      22.288   1.635  49.903  1.00  0.00    -0.029 C 
HETATM    5  C10 UNL     1      21.467   1.060  48.776  1.00  0.00     0.042 C 
HETATM    6  C11 UNL     1      20.461   1.710  49.431  1.00  0.00     0.061 C 
HETATM    7  O3  UNL     1      19.452   1.229  50.321  1.00  0.00    -0.346 OA
HETATM    8  C12 UNL     1      19.399   0.368  51.451  1.00  0.00     0.261 C 
HETATM    9  C13 UNL     1      20.370   3.191  49.211  1.00  0.00     0.115 C 
HETATM   10 BR1  UNL     1      19.440   4.083  50.627  1.00  0.00    -0.084 Br
HETATM   11  C14 UNL     1      21.718   3.856  49.070  1.00  0.00     0.027 C 
HETATM   12  C15 UNL     1      22.847   3.046  49.753  1.00  0.00     0.042 C 
ENDROOT
BRANCH   3  13
HETATM   13  C4  UNL     1      24.063   1.764  51.495  1.00  0.00     0.237 C 
BRANCH  13  14
HETATM   14  O2  UNL     1      24.338   1.284  52.802  1.00  0.00    -0.327 OA
BRANCH  14  15
HETATM   15  C5  UNL     1      25.430   0.468  53.054  1.00  0.00     0.194 A 
HETATM   16  N2  UNL     1      25.594  -0.847  52.763  1.00  0.00    -0.216 NA
HETATM   17  C6  UNL     1      26.776  -1.425  53.120  1.00  0.00     0.235 A 
HETATM   18  N3  UNL     1      27.802  -0.785  53.745  1.00  0.00    -0.252 NA
HETATM   19  C7  UNL     1      27.660   0.538  54.049  1.00  0.00     0.151 A 
HETATM   20  C8  UNL     1      26.470   1.145  53.696  1.00  0.00     0.097 A 
BRANCH  20  21
HETATM   21  N4  UNL     1      26.411   2.538  54.056  1.00  0.00    -0.394 N 
HETATM   22  H8  UNL     1      26.652   3.242  53.316  1.00  0.00     0.156 HD
HETATM   23  H9  UNL     1      26.122   2.577  55.050  1.00  0.00     0.156 HD
ENDBRANCH  20  21
ENDBRANCH  14  15
ENDBRANCH  13  14
ENDBRANCH   3  13
BRANCH   1  24
HETATM   24  O1  UNL     1      20.443  -0.425  53.403  1.00  0.00    -0.341 OA
HETATM   25  C1  UNL     1      21.163  -0.055  54.579  1.00  0.00     0.211 C 
ENDBRANCH   1  24
TORSDOF 5
ENDMDL
MODEL 9
REMARK VINA RESULT:      -6.5      3.287      6.335
REMARK  5 active torsions:
REMARK  status: ('A' for Active; 'I' for Inactive)
REMARK    1  A    between atoms: O1_2  and  C2_3 
REMARK    2  A    between atoms: C3_5  and  C4_6 
REMARK    3  A    between atoms: C4_6  and  O2_7 
REMARK    4  A    between atoms: O2_7  and  C5_8 
REMARK    5  A    between atoms: C8_13  and  N4_14 
ROOT
HETATM    1  C2  UNL     1      25.010   1.555  53.363  1.00  0.00     0.164 C 
HETATM    2  N1  UNL     1      24.619   2.797  53.113  1.00  0.00    -0.229 NA
HETATM    3  C3  UNL     1      23.400   3.285  52.528  1.00  0.00     0.067 C 
HETATM    4  C9  UNL     1      22.486   2.569  51.809  1.00  0.00    -0.029 C 
HETATM    5  C10 UNL     1      22.467   1.439  50.810  1.00  0.00     0.042 C 
HETATM    6  C11 UNL     1      22.343   0.691  51.947  1.00  0.00     0.061 C 
HETATM    7  O3  UNL     1      23.303  -0.067  52.684  1.00  0.00    -0.346 OA
HETATM    8  C12 UNL     1      24.625   0.134  53.166  1.00  0.00     0.261 C 
HETATM    9  C13 UNL     1      20.977   0.638  52.563  1.00  0.00     0.115 C 
HETATM   10 BR1  UNL     1      21.034   0.186  54.423  1.00  0.00    -0.084 Br
HETATM   11  C14 UNL     1      20.216   1.936  52.440  1.00  0.00     0.027 C 
HETATM   12  C15 UNL     1      21.158   3.155  52.275  1.00  0.00     0.042 C 
ENDROOT
BRANCH   3  13
HETATM   13  C4  UNL     1      23.041   4.714  52.701  1.00  0.00     0.237 C 
BRANCH  13  14
HETATM   14  O2  UNL     1      23.850   5.438  51.787  1.00  0.00    -0.327 OA
BRANCH  14  15
HETATM   15  C5  UNL     1      23.329   6.478  51.032  1.00  0.00     0.194 A 
HETATM   16  N2  UNL     1      22.035   6.729  50.710  1.00  0.00    -0.216 NA
HETATM   17  C6  UNL     1      21.782   7.829  49.946  1.00  0.00     0.235 A 
HETATM   18  N3  UNL     1      22.726   8.693  49.483  1.00  0.00    -0.252 NA
HETATM   19  C7  UNL     1      24.035   8.461  49.793  1.00  0.00     0.151 A 
HETATM   20  C8  UNL     1      24.315   7.351  50.567  1.00  0.00     0.097 A 
BRANCH  20  21
HETATM   21  N4  UNL     1      25.719   7.188  50.843  1.00  0.00    -0.394 N 
HETATM   22  H8  UNL     1      26.294   6.661  50.142  1.00  0.00     0.156 HD
HETATM   23  H9  UNL     1      25.900   7.657  51.750  1.00  0.00     0.156 HD
ENDBRANCH  20  21
ENDBRANCH  14  15
ENDBRANCH  13  14
ENDBRANCH   3  13
BRANCH   1  24
HETATM   24  O1  UNL     1      26.216   1.616  54.062  1.00  0.00    -0.341 OA
HETATM   25  C1  UNL     1      26.784   0.433  54.625  1.00  0.00     0.211 C 
ENDBRANCH   1  24
TORSDOF 5
ENDMDL
