MODEL 1
REMARK VINA RESULT:      -8.4      0.000      0.000
REMARK  3 active torsions:
REMARK  status: ('A' for Active; 'I' for Inactive)
REMARK    1  A    between atoms: C2_2  and  C3_4 
REMARK    2  A    between atoms: C7_8  and  N1_9 
REMARK    3  A    between atoms: N1_9  and  C8_10 
ROOT
HETATM    1  N1  UNL     1      25.704   1.567  53.056  1.00  0.00    -0.340 N 
HETATM    2  H7  UNL     1      24.943   1.342  53.717  1.00  0.00     0.167 HD
ENDROOT
BRANCH   1   3
HETATM    3  C7  UNL     1      25.351   2.203  51.847  1.00  0.00     0.034 A 
HETATM    4  C6  UNL     1      24.071   1.922  51.361  1.00  0.00     0.029 A 
HETATM    5  C5  UNL     1      23.612   2.506  50.176  1.00  0.00     0.003 A 
HETATM    6  C4  UNL     1      24.450   3.374  49.482  1.00  0.00     0.012 A 
HETATM    7  C3  UNL     1      25.673   3.580  50.039  1.00  0.00    -0.023 A 
HETATM    8  C16 UNL     1      26.183   3.051  51.180  1.00  0.00     0.042 A 
BRANCH   7   9
HETATM    9  C2  UNL     1      26.533   4.479  49.297  1.00  0.00    -0.029 A 
HETATM   10  C1  UNL     1      27.634   4.752  48.656  1.00  0.00     0.198 A 
HETATM   11  S1  UNL     1      26.531   6.160  48.726  1.00  0.00    -0.249 SA
HETATM   12  H3  UNL     1      25.327   6.826  48.986  1.00  0.00     0.078 HD
ENDBRANCH   7   9
ENDBRANCH   1   3
BRANCH   1  13
HETATM   13  C8  UNL     1      27.030   1.234  53.398  1.00  0.00     0.142 A 
HETATM   14  N2  UNL     1      27.776   2.231  53.886  1.00  0.00    -0.224 NA
HETATM   15  C9  UNL     1      29.040   1.953  54.212  1.00  0.00     0.236 A 
HETATM   16  N3  UNL     1      29.572   0.729  54.067  1.00  0.00    -0.241 NA
HETATM   17  C10 UNL     1      28.843  -0.309  53.575  1.00  0.00     0.072 A 
HETATM   18  C11 UNL     1      29.347  -1.587  53.402  1.00  0.00     0.032 A 
HETATM   19  C15 UNL     1      27.524  -0.049  53.227  1.00  0.00     0.039 A 
HETATM   20  C12 UNL     1      28.584  -2.613  52.899  1.00  0.00     0.002 A 
HETATM   21  C13 UNL     1      27.280  -2.326  52.564  1.00  0.00     0.001 A 
HETATM   22  C14 UNL     1      26.737  -1.059  52.721  1.00  0.00     0.018 A 
ENDBRANCH   1  13
TORSDOF 3
ENDMDL
MODEL 2
REMARK VINA RESULT:      -8.1      3.429      4.873
REMARK  3 active torsions:
REMARK  status: ('A' for Active; 'I' for Inactive)
REMARK    1  A    between atoms: C2_2  and  C3_4 
REMARK    2  A    between atoms: C7_8  and  N1_9 
REMARK    3  A    between atoms: N1_9  and  C8_10 
ROOT
HETATM    1  N1  UNL     1      24.833  -0.599  52.816  1.00  0.00    -0.340 N 
HETATM    2  H7  UNL     1      25.090  -1.376  52.185  1.00  0.00     0.167 HD
ENDROOT
BRANCH   1   3
HETATM    3  C7  UNL     1      23.491  -0.525  53.244  1.00  0.00     0.034 A 
HETATM    4  C6  UNL     1      23.242  -0.957  54.549  1.00  0.00     0.029 A 
HETATM    5  C5  UNL     1      21.949  -0.917  55.081  1.00  0.00     0.003 A 
HETATM    6  C4  UNL     1      20.908  -0.440  54.290  1.00  0.00     0.012 A 
HETATM    7  C3  UNL     1      21.255  -0.044  53.037  1.00  0.00    -0.023 A 
HETATM    8  C16 UNL     1      22.483  -0.054  52.457  1.00  0.00     0.042 A 
BRANCH   7   9
HETATM    9  C2  UNL     1      20.156   0.440  52.228  1.00  0.00    -0.029 A 
HETATM   10  C1  UNL     1      19.135   0.251  51.441  1.00  0.00     0.198 A 
HETATM   11  S1  UNL     1      19.437   1.989  51.744  1.00  0.00    -0.249 SA
HETATM   12  H3  UNL     1      20.035   3.090  52.368  1.00  0.00     0.078 HD
ENDBRANCH   7   9
ENDBRANCH   1   3
BRANCH   1  13
HETATM   13  C8  UNL     1      25.825   0.323  53.208  1.00  0.00     0.142 A 
HETATM   14  N2  UNL     1      25.402   1.568  53.449  1.00  0.00    -0.224 NA
HETATM   15  C9  UNL     1      26.316   2.469  53.813  1.00  0.00     0.236 A 
HETATM   16  N3  UNL     1      27.618   2.169  53.941  1.00  0.00    -0.241 NA
HETATM   17  C10 UNL     1      28.084   0.913  53.703  1.00  0.00     0.072 A 
HETATM   18  C11 UNL     1      29.417   0.554  53.816  1.00  0.00     0.032 A 
HETATM   19  C15 UNL     1      27.155  -0.047  53.323  1.00  0.00     0.039 A 
HETATM   20  C12 UNL     1      29.854  -0.724  53.565  1.00  0.00     0.002 A 
HETATM   21  C13 UNL     1      28.911  -1.653  53.191  1.00  0.00     0.001 A 
HETATM   22  C14 UNL     1      27.566  -1.335  53.066  1.00  0.00     0.018 A 
ENDBRANCH   1  13
TORSDOF 3
ENDMDL
MODEL 3
REMARK VINA RESULT:      -7.9      2.266      3.128
REMARK  3 active torsions:
REMARK  status: ('A' for Active; 'I' for Inactive)
REMARK    1  A    between atoms: C2_2  and  C3_4 
REMARK    2  A    between atoms: C7_8  and  N1_9 
REMARK    3  A    between atoms: N1_9  and  C8_10 
ROOT
HETATM    1  N1  UNL     1      26.637   2.126  50.767  1.00  0.00    -0.340 N 
HETATM    2  H7  UNL     1      26.700   1.371  50.064  1.00  0.00     0.167 HD
ENDROOT
BRANCH   1   3
HETATM    3  C7  UNL     1      26.108   3.365  50.348  1.00  0.00     0.034 A 
HETATM    4  C6  UNL     1      26.865   4.062  49.404  1.00  0.00     0.029 A 
HETATM    5  C5  UNL     1      26.430   5.297  48.910  1.00  0.00     0.003 A 
HETATM    6  C4  UNL     1      25.229   5.824  49.374  1.00  0.00     0.012 A 
HETATM    7  C3  UNL     1      24.569   5.067  50.291  1.00  0.00    -0.023 A 
HETATM    8  C16 UNL     1      24.930   3.867  50.812  1.00  0.00     0.042 A 
BRANCH   7   9
HETATM    9  C2  UNL     1      23.327   5.638  50.767  1.00  0.00    -0.029 A 
HETATM   10  C1  UNL     1      22.236   5.591  51.479  1.00  0.00     0.198 A 
HETATM   11  S1  UNL     1      22.369   7.117  50.553  1.00  0.00    -0.249 SA
HETATM   12  H3  UNL     1      23.006   8.072  49.751  1.00  0.00     0.078 HD
ENDBRANCH   7   9
ENDBRANCH   1   3
BRANCH   1  13
HETATM   13  C8  UNL     1      27.073   1.873  52.084  1.00  0.00     0.142 A 
HETATM   14  N2  UNL     1      28.188   2.507  52.462  1.00  0.00    -0.224 NA
HETATM   15  C9  UNL     1      28.635   2.284  53.699  1.00  0.00     0.236 A 
HETATM   16  N3  UNL     1      28.011   1.461  54.556  1.00  0.00    -0.241 NA
HETATM   17  C10 UNL     1      26.875   0.799  54.207  1.00  0.00     0.072 A 
HETATM   18  C11 UNL     1      26.198  -0.064  55.052  1.00  0.00     0.032 A 
HETATM   19  C15 UNL     1      26.386   1.012  52.924  1.00  0.00     0.039 A 
HETATM   20  C12 UNL     1      25.054  -0.719  54.665  1.00  0.00     0.002 A 
HETATM   21  C13 UNL     1      24.593  -0.487  53.390  1.00  0.00     0.001 A 
HETATM   22  C14 UNL     1      25.241   0.369  52.512  1.00  0.00     0.018 A 
ENDBRANCH   1  13
TORSDOF 3
ENDMDL
MODEL 4
REMARK VINA RESULT:      -7.8      1.635      2.539
REMARK  3 active torsions:
REMARK  status: ('A' for Active; 'I' for Inactive)
REMARK    1  A    between atoms: C2_2  and  C3_4 
REMARK    2  A    between atoms: C7_8  and  N1_9 
REMARK    3  A    between atoms: N1_9  and  C8_10 
ROOT
HETATM    1  N1  UNL     1      25.698   1.577  53.037  1.00  0.00    -0.340 N 
HETATM    2  H7  UNL     1      24.946   1.387  53.719  1.00  0.00     0.167 HD
ENDROOT
BRANCH   1   3
HETATM    3  C7  UNL     1      25.331   2.154  51.803  1.00  0.00     0.034 A 
HETATM    4  C6  UNL     1      26.360   2.772  51.089  1.00  0.00     0.029 A 
HETATM    5  C5  UNL     1      26.111   3.368  49.848  1.00  0.00     0.003 A 
HETATM    6  C4  UNL     1      24.819   3.337  49.331  1.00  0.00     0.012 A 
HETATM    7  C3  UNL     1      23.892   2.712  50.104  1.00  0.00    -0.023 A 
HETATM    8  C16 UNL     1      24.061   2.115  51.311  1.00  0.00     0.042 A 
BRANCH   7   9
HETATM    9  C2  UNL     1      22.553   2.699  49.553  1.00  0.00    -0.029 A 
HETATM   10  C1  UNL     1      21.367   3.216  49.398  1.00  0.00     0.198 A 
HETATM   11  S1  UNL     1      21.546   1.669  48.516  1.00  0.00    -0.249 SA
HETATM   12  H3  UNL     1      22.241   0.570  47.995  1.00  0.00     0.078 HD
ENDBRANCH   7   9
ENDBRANCH   1   3
BRANCH   1  13
HETATM   13  C8  UNL     1      27.028   1.256  53.379  1.00  0.00     0.142 A 
HETATM   14  N2  UNL     1      27.770   2.264  53.849  1.00  0.00    -0.224 NA
HETATM   15  C9  UNL     1      29.037   1.998  54.173  1.00  0.00     0.236 A 
HETATM   16  N3  UNL     1      29.576   0.775  54.044  1.00  0.00    -0.241 NA
HETATM   17  C10 UNL     1      28.851  -0.274  53.568  1.00  0.00     0.072 A 
HETATM   18  C11 UNL     1      29.362  -1.551  53.411  1.00  0.00     0.032 A 
HETATM   19  C15 UNL     1      27.529  -0.026  53.223  1.00  0.00     0.039 A 
HETATM   20  C12 UNL     1      28.603  -2.588  52.925  1.00  0.00     0.002 A 
HETATM   21  C13 UNL     1      27.297  -2.313  52.592  1.00  0.00     0.001 A 
HETATM   22  C14 UNL     1      26.746  -1.047  52.734  1.00  0.00     0.018 A 
ENDBRANCH   1  13
TORSDOF 3
ENDMDL
MODEL 5
REMARK VINA RESULT:      -7.8      2.094      2.508
REMARK  3 active torsions:
REMARK  status: ('A' for Active; 'I' for Inactive)
REMARK    1  A    between atoms: C2_2  and  C3_4 
REMARK    2  A    between atoms: C7_8  and  N1_9 
REMARK    3  A    between atoms: N1_9  and  C8_10 
ROOT
HETATM    1  N1  UNL     1      26.554   2.163  50.753  1.00  0.00    -0.340 N 
HETATM    2  H7  UNL     1      26.488   1.381  50.081  1.00  0.00     0.167 HD
ENDROOT
BRANCH   1   3
HETATM    3  C7  UNL     1      26.166   3.443  50.305  1.00  0.00     0.034 A 
HETATM    4  C6  UNL     1      24.903   3.876  50.716  1.00  0.00     0.029 A 
HETATM    5  C5  UNL     1      24.421   5.134  50.340  1.00  0.00     0.003 A 
HETATM    6  C4  UNL     1      25.218   5.952  49.545  1.00  0.00     0.012 A 
HETATM    7  C3  UNL     1      26.429   5.438  49.200  1.00  0.00    -0.023 A 
HETATM    8  C16 UNL     1      26.959   4.232  49.528  1.00  0.00     0.042 A 
BRANCH   7   9
HETATM    9  C2  UNL     1      27.239   6.301  48.366  1.00  0.00    -0.029 A 
HETATM   10  C1  UNL     1      27.380   7.282  47.520  1.00  0.00     0.198 A 
HETATM   11  S1  UNL     1      28.946   6.523  47.936  1.00  0.00    -0.249 SA
HETATM   12  H3  UNL     1      29.805   5.679  48.651  1.00  0.00     0.078 HD
ENDBRANCH   7   9
ENDBRANCH   1   3
BRANCH   1  13
HETATM   13  C8  UNL     1      27.018   1.905  52.060  1.00  0.00     0.142 A 
HETATM   14  N2  UNL     1      28.138   2.542  52.418  1.00  0.00    -0.224 NA
HETATM   15  C9  UNL     1      28.611   2.314  53.645  1.00  0.00     0.236 A 
HETATM   16  N3  UNL     1      28.008   1.483  54.510  1.00  0.00    -0.241 NA
HETATM   17  C10 UNL     1      26.868   0.818  54.180  1.00  0.00     0.072 A 
HETATM   18  C11 UNL     1      26.212  -0.052  55.033  1.00  0.00     0.032 A 
HETATM   19  C15 UNL     1      26.352   1.036  52.909  1.00  0.00     0.039 A 
HETATM   20  C12 UNL     1      25.063  -0.710  54.667  1.00  0.00     0.002 A 
HETATM   21  C13 UNL     1      24.575  -0.474  53.402  1.00  0.00     0.001 A 
HETATM   22  C14 UNL     1      25.202   0.390  52.516  1.00  0.00     0.018 A 
ENDBRANCH   1  13
TORSDOF 3
ENDMDL
MODEL 6
REMARK VINA RESULT:      -7.8      2.867      6.251
REMARK  3 active torsions:
REMARK  status: ('A' for Active; 'I' for Inactive)
REMARK    1  A    between atoms: C2_2  and  C3_4 
REMARK    2  A    between atoms: C7_8  and  N1_9 
REMARK    3  A    between atoms: N1_9  and  C8_10 
ROOT
HETATM    1  N1  UNL     1      24.097   1.888  50.989  1.00  0.00    -0.340 N 
HETATM    2  H7  UNL     1      23.704   1.406  50.164  1.00  0.00     0.167 HD
ENDROOT
BRANCH   1   3
HETATM    3  C7  UNL     1      24.642   1.087  52.014  1.00  0.00     0.034 A 
HETATM    4  C6  UNL     1      23.720   0.497  52.883  1.00  0.00     0.029 A 
HETATM    5  C5  UNL     1      24.149  -0.326  53.929  1.00  0.00     0.003 A 
HETATM    6  C4  UNL     1      25.512  -0.551  54.096  1.00  0.00     0.012 A 
HETATM    7  C3  UNL     1      26.324   0.068  53.199  1.00  0.00    -0.023 A 
HETATM    8  C16 UNL     1      25.980   0.875  52.164  1.00  0.00     0.042 A 
BRANCH   7   9
HETATM    9  C2  UNL     1      27.739  -0.172  53.395  1.00  0.00    -0.029 A 
HETATM   10  C1  UNL     1      28.795  -0.934  53.345  1.00  0.00     0.198 A 
HETATM   11  S1  UNL     1      29.170   0.693  53.989  1.00  0.00    -0.249 SA
HETATM   12  H3  UNL     1      28.910   2.034  54.299  1.00  0.00     0.078 HD
ENDBRANCH   7   9
ENDBRANCH   1   3
BRANCH   1  13
HETATM   13  C8  UNL     1      24.069   3.297  51.037  1.00  0.00     0.142 A 
HETATM   14  N2  UNL     1      23.090   3.837  51.771  1.00  0.00    -0.224 NA
HETATM   15  C9  UNL     1      23.028   5.168  51.831  1.00  0.00     0.236 A 
HETATM   16  N3  UNL     1      23.899   5.963  51.191  1.00  0.00    -0.241 NA
HETATM   17  C10 UNL     1      24.907   5.449  50.435  1.00  0.00     0.072 A 
HETATM   18  C11 UNL     1      25.828   6.226  49.752  1.00  0.00     0.032 A 
HETATM   19  C15 UNL     1      24.997   4.066  50.354  1.00  0.00     0.039 A 
HETATM   20  C12 UNL     1      26.832   5.674  48.995  1.00  0.00     0.002 A 
HETATM   21  C13 UNL     1      26.897   4.301  48.934  1.00  0.00     0.001 A 
HETATM   22  C14 UNL     1      25.994   3.486  49.603  1.00  0.00     0.018 A 
ENDBRANCH   1  13
TORSDOF 3
ENDMDL
MODEL 7
REMARK VINA RESULT:      -7.5      3.399      6.625
REMARK  3 active torsions:
REMARK  status: ('A' for Active; 'I' for Inactive)
REMARK    1  A    between atoms: C2_2  and  C3_4 
REMARK    2  A    between atoms: C7_8  and  N1_9 
REMARK    3  A    between atoms: N1_9  and  C8_10 
ROOT
HETATM    1  N1  UNL     1      25.219   3.358  49.593  1.00  0.00    -0.340 N 
HETATM    2  H7  UNL     1      25.052   2.799  48.740  1.00  0.00     0.167 HD
ENDROOT
BRANCH   1   3
HETATM    3  C7  UNL     1      25.364   2.660  50.811  1.00  0.00     0.034 A 
HETATM    4  C6  UNL     1      24.214   2.035  51.297  1.00  0.00     0.029 A 
HETATM    5  C5  UNL     1      24.245   1.306  52.491  1.00  0.00     0.003 A 
HETATM    6  C4  UNL     1      25.444   1.213  53.193  1.00  0.00     0.012 A 
HETATM    7  C3  UNL     1      26.503   1.858  52.635  1.00  0.00    -0.023 A 
HETATM    8  C16 UNL     1      26.545   2.578  51.486  1.00  0.00     0.042 A 
BRANCH   7   9
HETATM    9  C2  UNL     1      27.737   1.756  53.386  1.00  0.00    -0.029 A 
HETATM   10  C1  UNL     1      28.881   2.231  53.792  1.00  0.00     0.198 A 
HETATM   11  S1  UNL     1      28.572   0.588  54.429  1.00  0.00    -0.249 SA
HETATM   12  H3  UNL     1      27.811  -0.558  54.688  1.00  0.00     0.078 HD
ENDBRANCH   7   9
ENDBRANCH   1   3
BRANCH   1  13
HETATM   13  C8  UNL     1      25.294   4.762  49.489  1.00  0.00     0.142 A 
HETATM   14  N2  UNL     1      24.191   5.433  49.836  1.00  0.00    -0.224 NA
HETATM   15  C9  UNL     1      24.224   6.763  49.740  1.00  0.00     0.236 A 
HETATM   16  N3  UNL     1      25.308   7.432  49.315  1.00  0.00    -0.241 NA
HETATM   17  C10 UNL     1      26.447   6.782  48.954  1.00  0.00     0.072 A 
HETATM   18  C11 UNL     1      27.588   7.425  48.505  1.00  0.00     0.032 A 
HETATM   19  C15 UNL     1      26.442   5.396  49.044  1.00  0.00     0.039 A 
HETATM   20  C12 UNL     1      28.722   6.737  48.145  1.00  0.00     0.002 A 
HETATM   21  C13 UNL     1      28.687   5.366  48.245  1.00  0.00     0.001 A 
HETATM   22  C14 UNL     1      27.565   4.683  48.690  1.00  0.00     0.018 A 
ENDBRANCH   1  13
TORSDOF 3
ENDMDL
MODEL 8
REMARK VINA RESULT:      -7.5      4.630      6.843
REMARK  3 active torsions:
REMARK  status: ('A' for Active; 'I' for Inactive)
REMARK    1  A    between atoms: C2_2  and  C3_4 
REMARK    2  A    between atoms: C7_8  and  N1_9 
REMARK    3  A    between atoms: N1_9  and  C8_10 
ROOT
HETATM    1  N1  UNL     1      24.783   2.814  51.101  1.00  0.00    -0.340 N 
HETATM    2  H7  UNL     1      25.697   2.342  51.202  1.00  0.00     0.167 HD
ENDROOT
BRANCH   1   3
HETATM    3  C7  UNL     1      23.622   2.024  51.240  1.00  0.00     0.034 A 
HETATM    4  C6  UNL     1      22.858   1.855  50.083  1.00  0.00     0.029 A 
HETATM    5  C5  UNL     1      21.692   1.082  50.103  1.00  0.00     0.003 A 
HETATM    6  C4  UNL     1      21.301   0.482  51.296  1.00  0.00     0.012 A 
HETATM    7  C3  UNL     1      22.113   0.709  52.363  1.00  0.00    -0.023 A 
HETATM    8  C16 UNL     1      23.253   1.443  52.415  1.00  0.00     0.042 A 
BRANCH   7   9
HETATM    9  C2  UNL     1      21.682   0.084  53.596  1.00  0.00    -0.029 A 
HETATM   10  C1  UNL     1      20.957   0.050  54.678  1.00  0.00     0.198 A 
HETATM   11  S1  UNL     1      22.033  -1.374  54.546  1.00  0.00    -0.249 SA
HETATM   12  H3  UNL     1      22.934  -2.238  53.912  1.00  0.00     0.078 HD
ENDBRANCH   7   9
ENDBRANCH   1   3
BRANCH   1  13
HETATM   13  C8  UNL     1      24.753   4.199  50.837  1.00  0.00     0.142 A 
HETATM   14  N2  UNL     1      23.756   4.881  51.411  1.00  0.00    -0.224 NA
HETATM   15  C9  UNL     1      23.691   6.193  51.176  1.00  0.00     0.236 A 
HETATM   16  N3  UNL     1      24.578   6.833  50.396  1.00  0.00    -0.241 NA
HETATM   17  C10 UNL     1      25.604   6.171  49.795  1.00  0.00     0.072 A 
HETATM   18  C11 UNL     1      26.540   6.784  48.980  1.00  0.00     0.032 A 
HETATM   19  C15 UNL     1      25.696   4.804  50.023  1.00  0.00     0.039 A 
HETATM   20  C12 UNL     1      27.562   6.085  48.386  1.00  0.00     0.002 A 
HETATM   21  C13 UNL     1      27.629   4.733  48.631  1.00  0.00     0.001 A 
HETATM   22  C14 UNL     1      26.712   4.080  49.441  1.00  0.00     0.018 A 
ENDBRANCH   1  13
TORSDOF 3
ENDMDL
MODEL 9
REMARK VINA RESULT:      -7.3      2.604      3.836
REMARK  3 active torsions:
REMARK  status: ('A' for Active; 'I' for Inactive)
REMARK    1  A    between atoms: C2_2  and  C3_4 
REMARK    2  A    between atoms: C7_8  and  N1_9 
REMARK    3  A    between atoms: N1_9  and  C8_10 
ROOT
HETATM    1  N1  UNL     1      24.852   2.732  52.926  1.00  0.00    -0.340 N 
HETATM    2  H7  UNL     1      24.778   3.551  53.551  1.00  0.00     0.167 HD
ENDROOT
BRANCH   1   3
HETATM    3  C7  UNL     1      24.422   2.890  51.591  1.00  0.00     0.034 A 
HETATM    4  C6  UNL     1      25.302   3.567  50.743  1.00  0.00     0.029 A 
HETATM    5  C5  UNL     1      24.983   3.771  49.397  1.00  0.00     0.003 A 
HETATM    6  C4  UNL     1      23.771   3.290  48.910  1.00  0.00     0.012 A 
HETATM    7  C3  UNL     1      22.987   2.646  49.816  1.00  0.00    -0.023 A 
HETATM    8  C16 UNL     1      23.232   2.412  51.130  1.00  0.00     0.042 A 
BRANCH   7   9
HETATM    9  C2  UNL     1      21.728   2.162  49.291  1.00  0.00    -0.029 A 
HETATM   10  C1  UNL     1      20.863   2.012  48.328  1.00  0.00     0.198 A 
HETATM   11  S1  UNL     1      20.296   1.279  49.859  1.00  0.00    -0.249 SA
HETATM   12  H3  UNL     1      20.414   0.838  51.183  1.00  0.00     0.078 HD
ENDBRANCH   7   9
ENDBRANCH   1   3
BRANCH   1  13
HETATM   13  C8  UNL     1      25.374   1.526  53.435  1.00  0.00     0.142 A 
HETATM   14  N2  UNL     1      24.487   0.547  53.642  1.00  0.00    -0.224 NA
HETATM   15  C9  UNL     1      24.945  -0.606  54.133  1.00  0.00     0.236 A 
HETATM   16  N3  UNL     1      26.242  -0.807  54.418  1.00  0.00    -0.241 NA
HETATM   17  C10 UNL     1      27.172   0.166  54.221  1.00  0.00     0.072 A 
HETATM   18  C11 UNL     1      28.518   0.010  54.504  1.00  0.00     0.032 A 
HETATM   19  C15 UNL     1      26.724   1.377  53.711  1.00  0.00     0.039 A 
HETATM   20  C12 UNL     1      29.431   1.015  54.295  1.00  0.00     0.002 A 
HETATM   21  C13 UNL     1      28.958   2.204  53.788  1.00  0.00     0.001 A 
HETATM   22  C14 UNL     1      27.617   2.401  53.491  1.00  0.00     0.018 A 
ENDBRANCH   1  13
TORSDOF 3
ENDMDL
