MODEL 1
REMARK VINA RESULT:      -7.6      0.000      0.000
REMARK  6 active torsions:
REMARK  status: ('A' for Active; 'I' for Inactive)
REMARK    1  A    between atoms: C2_2  and  C3_3 
REMARK    2  A    between atoms: C3_3  and  N1_4 
REMARK    3  A    between atoms: N1_4  and  C4_5 
REMARK       I    between atoms: N1_4  and  C11_14 
REMARK    4  A    between atoms: C4_5  and  C5_6 
REMARK    5  A    between atoms: C10_12  and  O1_13 
REMARK       I    between atoms: C11_14  and  N2_16 
REMARK    6  A    between atoms: N2_16  and  C12_17 
ROOT
HETATM    1  N1  UNL     1      24.798   1.388  52.654  1.00  0.00    -0.330 N 
HETATM    2  C11 UNL     1      25.616   2.381  51.996  1.00  0.00     0.323 C 
HETATM    3  O2  UNL     1      26.743   2.677  52.466  1.00  0.00    -0.247 OA
HETATM    4  N2  UNL     1      25.197   3.049  50.825  1.00  0.00    -0.309 N 
HETATM    5  H12 UNL     1      24.252   2.736  50.513  1.00  0.00     0.170 HD
ENDROOT
BRANCH   1   6
HETATM    6  C3  UNL     1      23.503   0.958  52.237  1.00  0.00     0.127 C 
BRANCH   6   7
HETATM    7  C2  UNL     1      22.599   0.475  53.336  1.00  0.00     0.015 C 
HETATM    8  C1  UNL     1      22.200  -0.971  53.158  1.00  0.00     0.006 C 
ENDBRANCH   6   7
ENDBRANCH   1   6
BRANCH   1   9
HETATM    9  C4  UNL     1      25.338   0.762  53.850  1.00  0.00     0.169 C 
BRANCH   9  10
HETATM   10  C5  UNL     1      26.369  -0.244  53.502  1.00  0.00     0.007 C 
HETATM   11  C6  UNL     1      25.994  -1.326  52.861  1.00  0.00    -0.002 C 
HETATM   12  C7  UNL     1      26.868  -2.118  52.324  1.00  0.00    -0.011 C 
HETATM   13  C8  UNL     1      28.100  -2.164  52.800  1.00  0.00     0.040 C 
HETATM   14  C9  UNL     1      28.659  -1.014  53.510  1.00  0.00     0.068 C 
HETATM   15 CL1  UNL     1      30.364  -0.896  53.881  1.00  0.00    -0.081 Cl
HETATM   16  C10 UNL     1      27.781  -0.093  53.838  1.00  0.00     0.096 C 
BRANCH  16  17
HETATM   17  O1  UNL     1      28.206   1.037  54.512  1.00  0.00    -0.358 OA
HETATM   18  H11 UNL     1      27.927   1.276  55.449  1.00  0.00     0.217 HD
ENDBRANCH  16  17
ENDBRANCH   9  10
ENDBRANCH   1   9
BRANCH   4  19
HETATM   19  C12 UNL     1      25.855   4.037  50.056  1.00  0.00     0.036 A 
HETATM   20  C13 UNL     1      27.004   3.886  49.316  1.00  0.00     0.029 A 
HETATM   21  C14 UNL     1      27.602   4.888  48.584  1.00  0.00     0.002 A 
HETATM   22  C15 UNL     1      27.037   6.126  48.573  1.00  0.00     0.000 A 
HETATM   23  C16 UNL     1      25.894   6.325  49.292  1.00  0.00     0.002 A 
HETATM   24  C17 UNL     1      25.325   5.302  50.012  1.00  0.00     0.029 A 
ENDBRANCH   4  19
TORSDOF 6
ENDMDL
MODEL 2
REMARK VINA RESULT:      -7.5      3.617      6.168
REMARK  6 active torsions:
REMARK  status: ('A' for Active; 'I' for Inactive)
REMARK    1  A    between atoms: C2_2  and  C3_3 
REMARK    2  A    between atoms: C3_3  and  N1_4 
REMARK    3  A    between atoms: N1_4  and  C4_5 
REMARK       I    between atoms: N1_4  and  C11_14 
REMARK    4  A    between atoms: C4_5  and  C5_6 
REMARK    5  A    between atoms: C10_12  and  O1_13 
REMARK       I    between atoms: C11_14  and  N2_16 
REMARK    6  A    between atoms: N2_16  and  C12_17 
ROOT
HETATM    1  N1  UNL     1      23.192   0.186  53.236  1.00  0.00    -0.330 N 
HETATM    2  C11 UNL     1      24.612   0.443  53.311  1.00  0.00     0.323 C 
HETATM    3  O2  UNL     1      25.052   1.601  53.095  1.00  0.00    -0.247 OA
HETATM    4  N2  UNL     1      25.548  -0.567  53.622  1.00  0.00    -0.309 N 
HETATM    5  H12 UNL     1      25.087  -1.489  53.785  1.00  0.00     0.170 HD
ENDROOT
BRANCH   1   6
HETATM    6  C3  UNL     1      22.556  -1.073  53.453  1.00  0.00     0.127 C 
BRANCH   6   7
HETATM    7  C2  UNL     1      21.460  -1.072  54.482  1.00  0.00     0.015 C 
HETATM    8  C1  UNL     1      20.106  -1.365  53.880  1.00  0.00     0.006 C 
ENDBRANCH   6   7
ENDBRANCH   1   6
BRANCH   1   9
HETATM    9  C4  UNL     1      22.325   1.307  52.914  1.00  0.00     0.169 C 
BRANCH   9  10
HETATM   10  C5  UNL     1      22.204   1.481  51.448  1.00  0.00     0.007 C 
HETATM   11  C6  UNL     1      21.502   0.602  50.771  1.00  0.00    -0.002 C 
HETATM   12  C7  UNL     1      21.162   0.826  49.541  1.00  0.00    -0.011 C 
HETATM   13  C8  UNL     1      21.885   1.642  48.793  1.00  0.00     0.040 C 
HETATM   14  C9  UNL     1      22.693   2.692  49.415  1.00  0.00     0.068 C 
HETATM   15 CL1  UNL     1      23.411   3.982  48.479  1.00  0.00    -0.081 Cl
HETATM   16  C10 UNL     1      22.827   2.580  50.717  1.00  0.00     0.096 C 
BRANCH  16  17
HETATM   17  O1  UNL     1      23.571   3.522  51.404  1.00  0.00    -0.358 OA
HETATM   18  H11 UNL     1      23.198   4.384  51.765  1.00  0.00     0.217 HD
ENDBRANCH  16  17
ENDBRANCH   9  10
ENDBRANCH   1   9
BRANCH   4  19
HETATM   19  C12 UNL     1      26.955  -0.499  53.736  1.00  0.00     0.036 A 
HETATM   20  C13 UNL     1      27.688   0.406  54.466  1.00  0.00     0.029 A 
HETATM   21  C14 UNL     1      29.063   0.424  54.540  1.00  0.00     0.002 A 
HETATM   22  C15 UNL     1      29.774  -0.512  53.854  1.00  0.00     0.000 A 
HETATM   23  C16 UNL     1      29.091  -1.434  53.116  1.00  0.00     0.002 A 
HETATM   24  C17 UNL     1      27.718  -1.422  53.063  1.00  0.00     0.029 A 
ENDBRANCH   4  19
TORSDOF 6
ENDMDL
MODEL 3
REMARK VINA RESULT:      -7.1      4.232      6.772
REMARK  6 active torsions:
REMARK  status: ('A' for Active; 'I' for Inactive)
REMARK    1  A    between atoms: C2_2  and  C3_3 
REMARK    2  A    between atoms: C3_3  and  N1_4 
REMARK    3  A    between atoms: N1_4  and  C4_5 
REMARK       I    between atoms: N1_4  and  C11_14 
REMARK    4  A    between atoms: C4_5  and  C5_6 
REMARK    5  A    between atoms: C10_12  and  O1_13 
REMARK       I    between atoms: C11_14  and  N2_16 
REMARK    6  A    between atoms: N2_16  and  C12_17 
ROOT
HETATM    1  N1  UNL     1      23.252   0.629  52.935  1.00  0.00    -0.330 N 
HETATM    2  C11 UNL     1      24.683   0.750  53.093  1.00  0.00     0.323 C 
HETATM    3  O2  UNL     1      25.239   1.866  52.938  1.00  0.00    -0.247 OA
HETATM    4  N2  UNL     1      25.503  -0.352  53.417  1.00  0.00    -0.309 N 
HETATM    5  H12 UNL     1      24.951  -1.232  53.524  1.00  0.00     0.170 HD
ENDROOT
BRANCH   1   6
HETATM    6  C3  UNL     1      22.491  -0.571  53.076  1.00  0.00     0.127 C 
BRANCH   6   7
HETATM    7  C2  UNL     1      21.813  -0.752  54.405  1.00  0.00     0.015 C 
HETATM    8  C1  UNL     1      22.682  -1.485  55.399  1.00  0.00     0.006 C 
ENDBRANCH   6   7
ENDBRANCH   1   6
BRANCH   1   9
HETATM    9  C4  UNL     1      22.510   1.835  52.607  1.00  0.00     0.169 C 
BRANCH   9  10
HETATM   10  C5  UNL     1      21.800   1.687  51.315  1.00  0.00     0.007 C 
HETATM   11  C6  UNL     1      22.493   1.790  50.206  1.00  0.00    -0.002 C 
HETATM   12  C7  UNL     1      21.985   1.436  49.068  1.00  0.00    -0.011 C 
HETATM   13  C8  UNL     1      20.675   1.447  48.896  1.00  0.00     0.040 C 
HETATM   14  C9  UNL     1      19.779   1.308  50.046  1.00  0.00     0.068 C 
HETATM   15 CL1  UNL     1      18.069   1.001  49.852  1.00  0.00    -0.081 Cl
HETATM   16  C10 UNL     1      20.366   1.431  51.214  1.00  0.00     0.096 C 
BRANCH  16  17
HETATM   17  O1  UNL     1      19.610   1.316  52.367  1.00  0.00    -0.358 OA
HETATM   18  H11 UNL     1      19.345   0.439  52.784  1.00  0.00     0.217 HD
ENDBRANCH  16  17
ENDBRANCH   9  10
ENDBRANCH   1   9
BRANCH   4  19
HETATM   19  C12 UNL     1      26.902  -0.421  53.606  1.00  0.00     0.036 A 
HETATM   20  C13 UNL     1      27.678   0.406  54.385  1.00  0.00     0.029 A 
HETATM   21  C14 UNL     1      29.042   0.291  54.532  1.00  0.00     0.002 A 
HETATM   22  C15 UNL     1      29.697  -0.703  53.873  1.00  0.00     0.000 A 
HETATM   23  C16 UNL     1      28.970  -1.551  53.088  1.00  0.00     0.002 A 
HETATM   24  C17 UNL     1      27.609  -1.406  52.963  1.00  0.00     0.029 A 
ENDBRANCH   4  19
TORSDOF 6
ENDMDL
MODEL 4
REMARK VINA RESULT:      -7.1      3.312      6.651
REMARK  6 active torsions:
REMARK  status: ('A' for Active; 'I' for Inactive)
REMARK    1  A    between atoms: C2_2  and  C3_3 
REMARK    2  A    between atoms: C3_3  and  N1_4 
REMARK    3  A    between atoms: N1_4  and  C4_5 
REMARK       I    between atoms: N1_4  and  C11_14 
REMARK    4  A    between atoms: C4_5  and  C5_6 
REMARK    5  A    between atoms: C10_12  and  O1_13 
REMARK       I    between atoms: C11_14  and  N2_16 
REMARK    6  A    between atoms: N2_16  and  C12_17 
ROOT
HETATM    1  N1  UNL     1      25.145   3.578  50.418  1.00  0.00    -0.330 N 
HETATM    2  C11 UNL     1      25.650   2.865  51.569  1.00  0.00     0.323 C 
HETATM    3  O2  UNL     1      24.907   2.675  52.564  1.00  0.00    -0.247 OA
HETATM    4  N2  UNL     1      26.968   2.364  51.628  1.00  0.00    -0.309 N 
HETATM    5  H12 UNL     1      27.505   2.571  50.757  1.00  0.00     0.170 HD
ENDROOT
BRANCH   1   6
HETATM    6  C3  UNL     1      25.874   3.869  49.226  1.00  0.00     0.127 C 
BRANCH   6   7
HETATM    7  C2  UNL     1      26.402   5.273  49.120  1.00  0.00     0.015 C 
HETATM    8  C1  UNL     1      27.783   5.322  48.511  1.00  0.00     0.006 C 
ENDBRANCH   6   7
ENDBRANCH   1   6
BRANCH   1   9
HETATM    9  C4  UNL     1      23.768   4.042  50.469  1.00  0.00     0.169 C 
BRANCH   9  10
HETATM   10  C5  UNL     1      22.841   3.010  49.950  1.00  0.00     0.007 C 
HETATM   11  C6  UNL     1      22.769   2.831  48.652  1.00  0.00    -0.002 C 
HETATM   12  C7  UNL     1      22.168   1.797  48.154  1.00  0.00    -0.011 C 
HETATM   13  C8  UNL     1      21.217   1.190  48.843  1.00  0.00     0.040 C 
HETATM   14  C9  UNL     1      21.193   1.279  50.303  1.00  0.00     0.068 C 
HETATM   15 CL1  UNL     1      20.162   0.253  51.275  1.00  0.00    -0.081 Cl
HETATM   16  C10 UNL     1      22.001   2.181  50.810  1.00  0.00     0.096 C 
BRANCH  16  17
HETATM   17  O1  UNL     1      22.057   2.346  52.182  1.00  0.00    -0.358 OA
HETATM   18  H11 UNL     1      22.411   3.170  52.639  1.00  0.00     0.217 HD
ENDBRANCH  16  17
ENDBRANCH   9  10
ENDBRANCH   1   9
BRANCH   4  19
HETATM   19  C12 UNL     1      27.626   1.653  52.658  1.00  0.00     0.036 A 
HETATM   20  C13 UNL     1      28.505   2.158  53.587  1.00  0.00     0.029 A 
HETATM   21  C14 UNL     1      29.118   1.414  54.571  1.00  0.00     0.002 A 
HETATM   22  C15 UNL     1      28.853   0.082  54.656  1.00  0.00     0.000 A 
HETATM   23  C16 UNL     1      27.985  -0.466  53.755  1.00  0.00     0.002 A 
HETATM   24  C17 UNL     1      27.392   0.306  52.785  1.00  0.00     0.029 A 
ENDBRANCH   4  19
TORSDOF 6
ENDMDL
MODEL 5
REMARK VINA RESULT:      -7.1      2.923      6.697
REMARK  6 active torsions:
REMARK  status: ('A' for Active; 'I' for Inactive)
REMARK    1  A    between atoms: C2_2  and  C3_3 
REMARK    2  A    between atoms: C3_3  and  N1_4 
REMARK    3  A    between atoms: N1_4  and  C4_5 
REMARK       I    between atoms: N1_4  and  C11_14 
REMARK    4  A    between atoms: C4_5  and  C5_6 
REMARK    5  A    between atoms: C10_12  and  O1_13 
REMARK       I    between atoms: C11_14  and  N2_16 
REMARK    6  A    between atoms: N2_16  and  C12_17 
ROOT
HETATM    1  N1  UNL     1      24.600   3.140  50.810  1.00  0.00    -0.330 N 
HETATM    2  C11 UNL     1      25.892   2.642  51.223  1.00  0.00     0.323 C 
HETATM    3  O2  UNL     1      26.911   2.897  50.534  1.00  0.00    -0.247 OA
HETATM    4  N2  UNL     1      26.065   1.866  52.389  1.00  0.00    -0.309 N 
HETATM    5  H12 UNL     1      25.164   1.709  52.891  1.00  0.00     0.170 HD
ENDROOT
BRANCH   1   6
HETATM    6  C3  UNL     1      23.362   2.925  51.489  1.00  0.00     0.127 C 
BRANCH   6   7
HETATM    7  C2  UNL     1      22.610   1.689  51.084  1.00  0.00     0.015 C 
HETATM    8  C1  UNL     1      22.620   0.631  52.161  1.00  0.00     0.006 C 
ENDBRANCH   6   7
ENDBRANCH   1   6
BRANCH   1   9
HETATM    9  C4  UNL     1      24.546   3.935  49.594  1.00  0.00     0.169 C 
BRANCH   9  10
HETATM   10  C5  UNL     1      24.505   5.382  49.909  1.00  0.00     0.007 C 
HETATM   11  C6  UNL     1      23.346   5.926  50.196  1.00  0.00    -0.002 C 
HETATM   12  C7  UNL     1      23.276   7.115  50.707  1.00  0.00    -0.011 C 
HETATM   13  C8  UNL     1      24.251   7.983  50.497  1.00  0.00     0.040 C 
HETATM   14  C9  UNL     1      25.605   7.514  50.198  1.00  0.00     0.068 C 
HETATM   15 CL1  UNL     1      26.982   8.591  50.223  1.00  0.00    -0.081 Cl
HETATM   16  C10 UNL     1      25.690   6.235  49.914  1.00  0.00     0.096 C 
BRANCH  16  17
HETATM   17  O1  UNL     1      26.925   5.688  49.617  1.00  0.00    -0.358 OA
HETATM   18  H11 UNL     1      27.268   4.822  49.997  1.00  0.00     0.217 HD
ENDBRANCH  16  17
ENDBRANCH   9  10
ENDBRANCH   1   9
BRANCH   4  19
HETATM   19  C12 UNL     1      27.238   1.300  52.940  1.00  0.00     0.036 A 
HETATM   20  C13 UNL     1      28.213   1.946  53.662  1.00  0.00     0.029 A 
HETATM   21  C14 UNL     1      29.338   1.342  54.176  1.00  0.00     0.002 A 
HETATM   22  C15 UNL     1      29.525   0.009  53.971  1.00  0.00     0.000 A 
HETATM   23  C16 UNL     1      28.584  -0.676  53.260  1.00  0.00     0.002 A 
HETATM   24  C17 UNL     1      27.472  -0.041  52.761  1.00  0.00     0.029 A 
ENDBRANCH   4  19
TORSDOF 6
ENDMDL
MODEL 6
REMARK VINA RESULT:      -7.1      3.157      6.922
REMARK  6 active torsions:
REMARK  status: ('A' for Active; 'I' for Inactive)
REMARK    1  A    between atoms: C2_2  and  C3_3 
REMARK    2  A    between atoms: C3_3  and  N1_4 
REMARK    3  A    between atoms: N1_4  and  C4_5 
REMARK       I    between atoms: N1_4  and  C11_14 
REMARK    4  A    between atoms: C4_5  and  C5_6 
REMARK    5  A    between atoms: C10_12  and  O1_13 
REMARK       I    between atoms: C11_14  and  N2_16 
REMARK    6  A    between atoms: N2_16  and  C12_17 
ROOT
HETATM    1  N1  UNL     1      25.048   3.880  50.684  1.00  0.00    -0.330 N 
HETATM    2  C11 UNL     1      26.082   2.946  51.067  1.00  0.00     0.323 C 
HETATM    3  O2  UNL     1      26.820   2.434  50.188  1.00  0.00    -0.247 OA
HETATM    4  N2  UNL     1      26.305   2.574  52.410  1.00  0.00    -0.309 N 
HETATM    5  H12 UNL     1      25.644   3.051  53.062  1.00  0.00     0.170 HD
ENDROOT
BRANCH   1   6
HETATM    6  C3  UNL     1      24.138   4.533  51.569  1.00  0.00     0.127 C 
BRANCH   6   7
HETATM    7  C2  UNL     1      22.688   4.437  51.188  1.00  0.00     0.015 C 
HETATM    8  C1  UNL     1      21.979   5.767  51.285  1.00  0.00     0.006 C 
ENDBRANCH   6   7
ENDBRANCH   1   6
BRANCH   1   9
HETATM    9  C4  UNL     1      24.918   4.192  49.270  1.00  0.00     0.169 C 
BRANCH   9  10
HETATM   10  C5  UNL     1      25.582   5.477  48.947  1.00  0.00     0.007 C 
HETATM   11  C6  UNL     1      24.855   6.569  48.934  1.00  0.00    -0.002 C 
HETATM   12  C7  UNL     1      25.412   7.739  48.897  1.00  0.00    -0.011 C 
HETATM   13  C8  UNL     1      26.620   7.880  48.380  1.00  0.00     0.040 C 
HETATM   14  C9  UNL     1      27.549   6.749  48.359  1.00  0.00     0.068 C 
HETATM   15 CL1  UNL     1      29.245   6.954  47.984  1.00  0.00    -0.081 Cl
HETATM   16  C10 UNL     1      27.005   5.588  48.641  1.00  0.00     0.096 C 
BRANCH  16  17
HETATM   17  O1  UNL     1      27.796   4.453  48.649  1.00  0.00    -0.358 OA
HETATM   18  H11 UNL     1      28.498   4.248  47.958  1.00  0.00     0.217 HD
ENDBRANCH  16  17
ENDBRANCH   9  10
ENDBRANCH   1   9
BRANCH   4  19
HETATM   19  C12 UNL     1      27.256   1.686  52.963  1.00  0.00     0.036 A 
HETATM   20  C13 UNL     1      27.244   0.313  52.905  1.00  0.00     0.029 A 
HETATM   21  C14 UNL     1      28.201  -0.504  53.464  1.00  0.00     0.002 A 
HETATM   22  C15 UNL     1      29.247   0.061  54.127  1.00  0.00     0.000 A 
HETATM   23  C16 UNL     1      29.304   1.422  54.211  1.00  0.00     0.002 A 
HETATM   24  C17 UNL     1      28.330   2.207  53.641  1.00  0.00     0.029 A 
ENDBRANCH   4  19
TORSDOF 6
ENDMDL
MODEL 7
REMARK VINA RESULT:      -6.9      3.704      5.074
REMARK  6 active torsions:
REMARK  status: ('A' for Active; 'I' for Inactive)
REMARK    1  A    between atoms: C2_2  and  C3_3 
REMARK    2  A    between atoms: C3_3  and  N1_4 
REMARK    3  A    between atoms: N1_4  and  C4_5 
REMARK       I    between atoms: N1_4  and  C11_14 
REMARK    4  A    between atoms: C4_5  and  C5_6 
REMARK    5  A    between atoms: C10_12  and  O1_13 
REMARK       I    between atoms: C11_14  and  N2_16 
REMARK    6  A    between atoms: N2_16  and  C12_17 
ROOT
HETATM    1  N1  UNL     1      24.585   2.080  52.611  1.00  0.00    -0.330 N 
HETATM    2  C11 UNL     1      23.935   3.127  51.856  1.00  0.00     0.323 C 
HETATM    3  O2  UNL     1      23.233   2.835  50.856  1.00  0.00    -0.247 OA
HETATM    4  N2  UNL     1      24.058   4.491  52.196  1.00  0.00    -0.309 N 
HETATM    5  H12 UNL     1      24.659   4.632  53.038  1.00  0.00     0.170 HD
ENDROOT
BRANCH   1   6
HETATM    6  C3  UNL     1      25.411   2.264  53.760  1.00  0.00     0.127 C 
BRANCH   6   7
HETATM    7  C2  UNL     1      26.840   1.824  53.603  1.00  0.00     0.015 C 
HETATM    8  C1  UNL     1      27.184   0.657  54.497  1.00  0.00     0.006 C 
ENDBRANCH   6   7
ENDBRANCH   1   6
BRANCH   1   9
HETATM    9  C4  UNL     1      24.380   0.710  52.169  1.00  0.00     0.169 C 
BRANCH   9  10
HETATM   10  C5  UNL     1      23.346   0.037  52.990  1.00  0.00     0.007 C 
HETATM   11  C6  UNL     1      23.729  -0.631  54.052  1.00  0.00    -0.002 C 
HETATM   12  C7  UNL     1      22.868  -1.033  54.933  1.00  0.00    -0.011 C 
HETATM   13  C8  UNL     1      21.610  -1.239  54.581  1.00  0.00     0.040 C 
HETATM   14  C9  UNL     1      21.040  -0.535  53.432  1.00  0.00     0.068 C 
HETATM   15 CL1  UNL     1      19.321  -0.524  53.114  1.00  0.00    -0.081 Cl
HETATM   16  C10 UNL     1      21.921   0.079  52.675  1.00  0.00     0.096 C 
BRANCH  16  17
HETATM   17  O1  UNL     1      21.487   0.777  51.562  1.00  0.00    -0.358 OA
HETATM   18  H11 UNL     1      21.806   1.698  51.313  1.00  0.00     0.217 HD
ENDBRANCH  16  17
ENDBRANCH   9  10
ENDBRANCH   1   9
BRANCH   4  19
HETATM   19  C12 UNL     1      23.503   5.636  51.580  1.00  0.00     0.036 A 
HETATM   20  C13 UNL     1      22.172   5.900  51.360  1.00  0.00     0.029 A 
HETATM   21  C14 UNL     1      21.688   7.037  50.752  1.00  0.00     0.002 A 
HETATM   22  C15 UNL     1      22.567   7.986  50.330  1.00  0.00     0.000 A 
HETATM   23  C16 UNL     1      23.900   7.770  50.527  1.00  0.00     0.002 A 
HETATM   24  C17 UNL     1      24.348   6.623  51.136  1.00  0.00     0.029 A 
ENDBRANCH   4  19
TORSDOF 6
ENDMDL
MODEL 8
REMARK VINA RESULT:      -6.9      2.761      3.897
REMARK  6 active torsions:
REMARK  status: ('A' for Active; 'I' for Inactive)
REMARK    1  A    between atoms: C2_2  and  C3_3 
REMARK    2  A    between atoms: C3_3  and  N1_4 
REMARK    3  A    between atoms: N1_4  and  C4_5 
REMARK       I    between atoms: N1_4  and  C11_14 
REMARK    4  A    between atoms: C4_5  and  C5_6 
REMARK    5  A    between atoms: C10_12  and  O1_13 
REMARK       I    between atoms: C11_14  and  N2_16 
REMARK    6  A    between atoms: N2_16  and  C12_17 
ROOT
HETATM    1  N1  UNL     1      22.734   3.629  50.820  1.00  0.00    -0.330 N 
HETATM    2  C11 UNL     1      24.001   4.292  50.616  1.00  0.00     0.323 C 
HETATM    3  O2  UNL     1      24.698   4.632  51.606  1.00  0.00    -0.247 OA
HETATM    4  N2  UNL     1      24.502   4.585  49.329  1.00  0.00    -0.309 N 
HETATM    5  H12 UNL     1      23.855   4.265  48.576  1.00  0.00     0.170 HD
ENDROOT
BRANCH   1   6
HETATM    6  C3  UNL     1      21.841   3.193  49.796  1.00  0.00     0.127 C 
BRANCH   6   7
HETATM    7  C2  UNL     1      22.353   2.079  48.926  1.00  0.00     0.015 C 
HETATM    8  C1  UNL     1      21.358   0.952  48.791  1.00  0.00     0.006 C 
ENDBRANCH   6   7
ENDBRANCH   1   6
BRANCH   1   9
HETATM    9  C4  UNL     1      22.325   3.375  52.192  1.00  0.00     0.169 C 
BRANCH   9  10
HETATM   10  C5  UNL     1      22.514   1.949  52.546  1.00  0.00     0.007 C 
HETATM   11  C6  UNL     1      21.486   1.139  52.449  1.00  0.00    -0.002 C 
HETATM   12  C7  UNL     1      21.641  -0.146  52.511  1.00  0.00    -0.011 C 
HETATM   13  C8  UNL     1      22.680  -0.656  53.150  1.00  0.00     0.040 C 
HETATM   14  C9  UNL     1      23.907   0.126  53.305  1.00  0.00     0.068 C 
HETATM   15 CL1  UNL     1      25.402  -0.598  53.853  1.00  0.00    -0.081 Cl
HETATM   16  C10 UNL     1      23.788   1.398  53.000  1.00  0.00     0.096 C 
BRANCH  16  17
HETATM   17  O1  UNL     1      24.889   2.228  53.111  1.00  0.00    -0.358 OA
HETATM   18  H11 UNL     1      25.803   1.919  53.397  1.00  0.00     0.217 HD
ENDBRANCH  16  17
ENDBRANCH   9  10
ENDBRANCH   1   9
BRANCH   4  19
HETATM   19  C12 UNL     1      25.705   5.221  48.944  1.00  0.00     0.036 A 
HETATM   20  C13 UNL     1      25.866   6.528  48.551  1.00  0.00     0.029 A 
HETATM   21  C14 UNL     1      27.066   7.094  48.185  1.00  0.00     0.002 A 
HETATM   22  C15 UNL     1      28.192   6.330  48.205  1.00  0.00     0.000 A 
HETATM   23  C16 UNL     1      28.083   5.025  48.589  1.00  0.00     0.002 A 
HETATM   24  C17 UNL     1      26.868   4.492  48.948  1.00  0.00     0.029 A 
ENDBRANCH   4  19
TORSDOF 6
ENDMDL
MODEL 9
REMARK VINA RESULT:      -6.6      3.704      7.312
REMARK  6 active torsions:
REMARK  status: ('A' for Active; 'I' for Inactive)
REMARK    1  A    between atoms: C2_2  and  C3_3 
REMARK    2  A    between atoms: C3_3  and  N1_4 
REMARK    3  A    between atoms: N1_4  and  C4_5 
REMARK       I    between atoms: N1_4  and  C11_14 
REMARK    4  A    between atoms: C4_5  and  C5_6 
REMARK    5  A    between atoms: C10_12  and  O1_13 
REMARK       I    between atoms: C11_14  and  N2_16 
REMARK    6  A    between atoms: N2_16  and  C12_17 
ROOT
HETATM    1  N1  UNL     1      23.462   3.834  50.550  1.00  0.00    -0.330 N 
HETATM    2  C11 UNL     1      23.299   3.027  51.737  1.00  0.00     0.323 C 
HETATM    3  O2  UNL     1      23.703   3.455  52.848  1.00  0.00    -0.247 OA
HETATM    4  N2  UNL     1      22.695   1.751  51.706  1.00  0.00    -0.309 N 
HETATM    5  H12 UNL     1      22.394   1.485  50.743  1.00  0.00     0.170 HD
ENDROOT
BRANCH   1   6
HETATM    6  C3  UNL     1      23.057   3.475  49.229  1.00  0.00     0.127 C 
BRANCH   6   7
HETATM    7  C2  UNL     1      22.029   4.376  48.603  1.00  0.00     0.015 C 
HETATM    8  C1  UNL     1      22.554   5.082  47.377  1.00  0.00     0.006 C 
ENDBRANCH   6   7
ENDBRANCH   1   6
BRANCH   1   9
HETATM    9  C4  UNL     1      24.093   5.135  50.707  1.00  0.00     0.169 C 
BRANCH   9  10
HETATM   10  C5  UNL     1      25.341   5.219  49.912  1.00  0.00     0.007 C 
HETATM   11  C6  UNL     1      26.179   4.210  49.957  1.00  0.00    -0.002 C 
HETATM   12  C7  UNL     1      27.156   4.118  49.112  1.00  0.00    -0.011 C 
HETATM   13  C8  UNL     1      27.641   5.206  48.541  1.00  0.00     0.040 C 
HETATM   14  C9  UNL     1      26.805   6.398  48.395  1.00  0.00     0.068 C 
HETATM   15 CL1  UNL     1      27.279   7.741  47.380  1.00  0.00    -0.081 Cl
HETATM   16  C10 UNL     1      25.685   6.368  49.081  1.00  0.00     0.096 C 
BRANCH  16  17
HETATM   17  O1  UNL     1      24.820   7.445  49.013  1.00  0.00    -0.358 OA
HETATM   18  H11 UNL     1      24.198   7.719  49.754  1.00  0.00     0.217 HD
ENDBRANCH  16  17
ENDBRANCH   9  10
ENDBRANCH   1   9
BRANCH   4  19
HETATM   19  C12 UNL     1      22.455   0.832  52.753  1.00  0.00     0.036 A 
HETATM   20  C13 UNL     1      23.344  -0.069  53.288  1.00  0.00     0.029 A 
HETATM   21  C14 UNL     1      23.053  -0.944  54.311  1.00  0.00     0.002 A 
HETATM   22  C15 UNL     1      21.805  -0.937  54.853  1.00  0.00     0.000 A 
HETATM   23  C16 UNL     1      20.887  -0.058  54.355  1.00  0.00     0.002 A 
HETATM   24  C17 UNL     1      21.211   0.800  53.333  1.00  0.00     0.029 A 
ENDBRANCH   4  19
TORSDOF 6
ENDMDL
