MODEL 1
REMARK VINA RESULT:      -9.4      0.000      0.000
REMARK  6 active torsions:
REMARK  status: ('A' for Active; 'I' for Inactive)
REMARK    1  A    between atoms: O1_2  and  C2_3 
REMARK    2  A    between atoms: N1_6  and  C5_7 
REMARK    3  A    between atoms: C5_7  and  N2_8 
REMARK    4  A    between atoms: N2_8  and  C6_9 
REMARK    5  A    between atoms: C13_17  and  C14_18 
REMARK    6  A    between atoms: C19_25  and  N5_26 
ROOT
HETATM    1  C2  UNL     1      23.119   0.320  52.807  1.00  0.00     0.074 A 
HETATM    2  C3  UNL     1      22.421   1.138  52.035  1.00  0.00     0.030 A 
HETATM    3  C4  UNL     1      22.884   2.382  51.411  1.00  0.00     0.154 A 
HETATM    4  N1  UNL     1      24.269   2.704  51.706  1.00  0.00    -0.370 N 
HETATM    5  C12 UNL     1      25.026   1.840  52.527  1.00  0.00     0.098 A 
HETATM    6  C13 UNL     1      24.496   0.744  53.032  1.00  0.00     0.005 A 
ENDROOT
BRANCH   6   7
HETATM    7  C14 UNL     1      25.359  -0.119  53.891  1.00  0.00     0.118 C 
HETATM    8  C15 UNL     1      25.811  -1.340  53.122  1.00  0.00    -0.007 C 
HETATM    9  C16 UNL     1      27.019  -1.377  52.540  1.00  0.00     0.026 C 
HETATM   10  C17 UNL     1      28.025  -0.913  53.481  1.00  0.00     0.056 C 
HETATM   11  N3  UNL     1      27.308  -0.643  54.582  1.00  0.00    -0.235 NA
HETATM   12  C20 UNL     1      29.475  -0.626  53.463  1.00  0.00     0.228 C 
HETATM   13  C18 UNL     1      26.593   0.602  54.268  1.00  0.00     0.157 C 
HETATM   14  N4  UNL     1      27.446   1.565  54.496  1.00  0.00    -0.047 NA
HETATM   15  C19 UNL     1      28.720   1.761  53.794  1.00  0.00     0.717 C 
HETATM   16  N6  UNL     1      29.669   0.841  53.685  1.00  0.00    -0.100 NA
BRANCH  15  17
HETATM   17  N5  UNL     1      28.904   3.064  53.201  1.00  0.00    -0.231 N 
HETATM   18  H18 UNL     1      29.864   3.318  52.950  1.00  0.00     0.174 HD
HETATM   19  H19 UNL     1      28.045   3.629  53.080  1.00  0.00     0.174 HD
ENDBRANCH  15  17
ENDBRANCH   6   7
BRANCH   1  20
HETATM   20  O1  UNL     1      22.615  -0.847  53.366  1.00  0.00    -0.356 OA
HETATM   21  C1  UNL     1      21.702  -0.850  54.444  1.00  0.00     0.210 C 
ENDBRANCH   1  20
BRANCH   4  22
HETATM   22  C5  UNL     1      24.618   3.946  51.053  1.00  0.00     0.246 C 
BRANCH  22  23
HETATM   23  N2  UNL     1      25.523   3.790  49.952  1.00  0.00    -0.374 N 
HETATM   24  H9  UNL     1      25.715   2.807  49.592  1.00  0.00     0.161 HD
BRANCH  23  25
HETATM   25  C6  UNL     1      26.209   4.810  49.266  1.00  0.00     0.030 A 
HETATM   26  C7  UNL     1      25.647   5.983  48.828  1.00  0.00     0.029 A 
HETATM   27  C8  UNL     1      26.313   6.986  48.161  1.00  0.00     0.004 A 
HETATM   28  C9  UNL     1      27.647   6.843  47.892  1.00  0.00     0.019 A 
HETATM   29  C10 UNL     1      28.270   5.686  48.307  1.00  0.00     0.013 A 
HETATM   30 BR1  UNL     1      30.121   5.440  47.957  1.00  0.00    -0.051 Br
HETATM   31  C11 UNL     1      27.553   4.718  48.969  1.00  0.00     0.048 A 
ENDBRANCH  23  25
ENDBRANCH  22  23
ENDBRANCH   4  22
TORSDOF 6
ENDMDL
MODEL 2
REMARK VINA RESULT:      -9.1      1.567      1.872
REMARK  6 active torsions:
REMARK  status: ('A' for Active; 'I' for Inactive)
REMARK    1  A    between atoms: O1_2  and  C2_3 
REMARK    2  A    between atoms: N1_6  and  C5_7 
REMARK    3  A    between atoms: C5_7  and  N2_8 
REMARK    4  A    between atoms: N2_8  and  C6_9 
REMARK    5  A    between atoms: C13_17  and  C14_18 
REMARK    6  A    between atoms: C19_25  and  N5_26 
ROOT
HETATM    1  C2  UNL     1      23.103   0.935  52.458  1.00  0.00     0.074 A 
HETATM    2  C3  UNL     1      22.599   1.697  51.499  1.00  0.00     0.030 A 
HETATM    3  C4  UNL     1      23.334   2.575  50.583  1.00  0.00     0.154 A 
HETATM    4  N1  UNL     1      24.770   2.570  50.795  1.00  0.00    -0.370 N 
HETATM    5  C12 UNL     1      25.322   1.763  51.813  1.00  0.00     0.098 A 
HETATM    6  C13 UNL     1      24.554   1.011  52.577  1.00  0.00     0.005 A 
ENDROOT
BRANCH   6   7
HETATM    7  C14 UNL     1      25.211   0.185  53.631  1.00  0.00     0.118 C 
HETATM    8  C15 UNL     1      25.665  -1.137  53.056  1.00  0.00    -0.007 C 
HETATM    9  C16 UNL     1      26.936  -1.318  52.668  1.00  0.00     0.026 C 
HETATM   10  C17 UNL     1      27.832  -0.828  53.702  1.00  0.00     0.056 C 
HETATM   11  N3  UNL     1      26.991  -0.397  54.653  1.00  0.00    -0.235 NA
HETATM   12  C20 UNL     1      29.289  -0.646  53.876  1.00  0.00     0.228 C 
HETATM   13  C18 UNL     1      26.434   0.855  54.121  1.00  0.00     0.157 C 
HETATM   14  N4  UNL     1      27.324   1.776  54.384  1.00  0.00    -0.047 NA
HETATM   15  C19 UNL     1      28.696   1.809  53.866  1.00  0.00     0.717 C 
HETATM   16  N6  UNL     1      29.572   0.820  53.987  1.00  0.00    -0.100 NA
BRANCH  15  17
HETATM   17  N5  UNL     1      29.072   3.028  53.189  1.00  0.00    -0.231 N 
HETATM   18  H18 UNL     1      28.872   3.902  53.683  1.00  0.00     0.174 HD
HETATM   19  H19 UNL     1      29.513   2.908  52.261  1.00  0.00     0.174 HD
ENDBRANCH  15  17
ENDBRANCH   6   7
BRANCH   1  20
HETATM   20  O1  UNL     1      22.344   0.123  53.291  1.00  0.00    -0.356 OA
HETATM   21  C1  UNL     1      21.089   0.514  53.807  1.00  0.00     0.210 C 
ENDBRANCH   1  20
BRANCH   4  22
HETATM   22  C5  UNL     1      25.393   3.471  49.851  1.00  0.00     0.246 C 
BRANCH  22  23
HETATM   23  N2  UNL     1      25.786   4.728  50.419  1.00  0.00    -0.374 N 
HETATM   24  H9  UNL     1      26.486   4.722  51.222  1.00  0.00     0.161 HD
BRANCH  23  25
HETATM   25  C6  UNL     1      25.348   6.009  50.033  1.00  0.00     0.030 A 
HETATM   26  C7  UNL     1      24.645   6.876  50.831  1.00  0.00     0.029 A 
HETATM   27  C8  UNL     1      24.218   8.131  50.462  1.00  0.00     0.004 A 
HETATM   28  C9  UNL     1      24.494   8.592  49.204  1.00  0.00     0.019 A 
HETATM   29  C10 UNL     1      25.197   7.766  48.353  1.00  0.00     0.013 A 
HETATM   30 BR1  UNL     1      25.605   8.359  46.595  1.00  0.00    -0.051 Br
HETATM   31  C11 UNL     1      25.598   6.522  48.777  1.00  0.00     0.048 A 
ENDBRANCH  23  25
ENDBRANCH  22  23
ENDBRANCH   4  22
TORSDOF 6
ENDMDL
MODEL 3
REMARK VINA RESULT:      -8.6      1.898      2.436
REMARK  6 active torsions:
REMARK  status: ('A' for Active; 'I' for Inactive)
REMARK    1  A    between atoms: O1_2  and  C2_3 
REMARK    2  A    between atoms: N1_6  and  C5_7 
REMARK    3  A    between atoms: C5_7  and  N2_8 
REMARK    4  A    between atoms: N2_8  and  C6_9 
REMARK    5  A    between atoms: C13_17  and  C14_18 
REMARK    6  A    between atoms: C19_25  and  N5_26 
ROOT
HETATM    1  C2  UNL     1      23.452   2.051  51.213  1.00  0.00     0.074 A 
HETATM    2  C3  UNL     1      23.393   2.764  50.098  1.00  0.00     0.030 A 
HETATM    3  C4  UNL     1      24.506   3.412  49.397  1.00  0.00     0.154 A 
HETATM    4  N1  UNL     1      25.794   3.217  50.039  1.00  0.00    -0.370 N 
HETATM    5  C12 UNL     1      25.873   2.460  51.227  1.00  0.00     0.098 A 
HETATM    6  C13 UNL     1      24.795   1.923  51.766  1.00  0.00     0.005 A 
ENDROOT
BRANCH   6   7
HETATM    7  C14 UNL     1      24.958   1.135  53.022  1.00  0.00     0.118 C 
HETATM    8  C15 UNL     1      25.201  -0.322  52.701  1.00  0.00    -0.007 C 
HETATM    9  C16 UNL     1      26.445  -0.824  52.681  1.00  0.00     0.026 C 
HETATM   10  C17 UNL     1      27.158  -0.395  53.872  1.00  0.00     0.056 C 
HETATM   11  N3  UNL     1      26.244   0.338  54.526  1.00  0.00    -0.235 NA
HETATM   12  C20 UNL     1      28.530  -0.505  54.412  1.00  0.00     0.228 C 
HETATM   13  C18 UNL     1      26.154   1.590  53.763  1.00  0.00     0.157 C 
HETATM   14  N4  UNL     1      27.151   2.328  54.175  1.00  0.00    -0.047 NA
HETATM   15  C19 UNL     1      28.573   1.992  54.041  1.00  0.00     0.717 C 
HETATM   16  N6  UNL     1      29.126   0.866  54.472  1.00  0.00    -0.100 NA
BRANCH  15  17
HETATM   17  N5  UNL     1      29.385   2.993  53.390  1.00  0.00    -0.231 N 
HETATM   18  H18 UNL     1      30.255   3.252  53.864  1.00  0.00     0.174 HD
HETATM   19  H19 UNL     1      29.014   3.360  52.496  1.00  0.00     0.174 HD
ENDBRANCH  15  17
ENDBRANCH   6   7
BRANCH   1  20
HETATM   20  O1  UNL     1      22.352   1.463  51.823  1.00  0.00    -0.356 OA
HETATM   21  C1  UNL     1      21.301   2.212  52.396  1.00  0.00     0.210 C 
ENDBRANCH   1  20
BRANCH   4  22
HETATM   22  C5  UNL     1      26.814   3.901  49.276  1.00  0.00     0.246 C 
BRANCH  22  23
HETATM   23  N2  UNL     1      26.864   5.315  49.508  1.00  0.00    -0.374 N 
HETATM   24  H9  UNL     1      26.729   5.668  50.504  1.00  0.00     0.161 HD
BRANCH  23  25
HETATM   25  C6  UNL     1      27.077   6.326  48.551  1.00  0.00     0.030 A 
HETATM   26  C7  UNL     1      28.298   6.675  48.031  1.00  0.00     0.029 A 
HETATM   27  C8  UNL     1      28.513   7.658  47.093  1.00  0.00     0.004 A 
HETATM   28  C9  UNL     1      27.449   8.372  46.611  1.00  0.00     0.019 A 
HETATM   29  C10 UNL     1      26.195   8.068  47.096  1.00  0.00     0.013 A 
HETATM   30 BR1  UNL     1      24.685   9.030  46.460  1.00  0.00    -0.051 Br
HETATM   31  C11 UNL     1      26.041   7.075  48.033  1.00  0.00     0.048 A 
ENDBRANCH  23  25
ENDBRANCH  22  23
ENDBRANCH   4  22
TORSDOF 6
ENDMDL
MODEL 4
REMARK VINA RESULT:      -8.1      3.206      6.626
REMARK  6 active torsions:
REMARK  status: ('A' for Active; 'I' for Inactive)
REMARK    1  A    between atoms: O1_2  and  C2_3 
REMARK    2  A    between atoms: N1_6  and  C5_7 
REMARK    3  A    between atoms: C5_7  and  N2_8 
REMARK    4  A    between atoms: N2_8  and  C6_9 
REMARK    5  A    between atoms: C13_17  and  C14_18 
REMARK    6  A    between atoms: C19_25  and  N5_26 
ROOT
HETATM    1  C2  UNL     1      20.213  -0.538  53.271  1.00  0.00     0.074 A 
HETATM    2  C3  UNL     1      20.749  -1.326  54.191  1.00  0.00     0.030 A 
HETATM    3  C4  UNL     1      22.164  -1.420  54.566  1.00  0.00     0.154 A 
HETATM    4  N1  UNL     1      23.028  -0.527  53.815  1.00  0.00    -0.370 N 
HETATM    5  C12 UNL     1      22.471   0.319  52.832  1.00  0.00     0.098 A 
HETATM    6  C13 UNL     1      21.176   0.313  52.583  1.00  0.00     0.005 A 
ENDROOT
BRANCH   6   7
HETATM    7  C14 UNL     1      20.661   1.236  51.530  1.00  0.00     0.118 C 
HETATM    8  C15 UNL     1      20.011   2.445  52.162  1.00  0.00    -0.007 C 
HETATM    9  C16 UNL     1      20.685   3.597  52.297  1.00  0.00     0.026 C 
HETATM   10  C17 UNL     1      21.348   3.919  51.044  1.00  0.00     0.056 C 
HETATM   11  N3  UNL     1      20.989   2.905  50.242  1.00  0.00    -0.235 NA
HETATM   12  C20 UNL     1      22.287   4.948  50.548  1.00  0.00     0.228 C 
HETATM   13  C18 UNL     1      21.778   1.758  50.713  1.00  0.00     0.157 C 
HETATM   14  N4  UNL     1      22.953   1.884  50.155  1.00  0.00    -0.047 NA
HETATM   15  C19 UNL     1      23.883   2.999  50.366  1.00  0.00     0.717 C 
HETATM   16  N6  UNL     1      23.578   4.278  50.193  1.00  0.00    -0.100 NA
BRANCH  15  17
HETATM   17  N5  UNL     1      25.212   2.623  50.787  1.00  0.00    -0.231 N 
HETATM   18  H18 UNL     1      25.295   2.227  51.727  1.00  0.00     0.174 HD
HETATM   19  H19 UNL     1      25.965   2.787  50.097  1.00  0.00     0.174 HD
ENDBRANCH  15  17
ENDBRANCH   6   7
BRANCH   1  20
HETATM   20  O1  UNL     1      18.859  -0.501  52.968  1.00  0.00    -0.356 OA
HETATM   21  C1  UNL     1      17.956  -1.514  53.361  1.00  0.00     0.210 C 
ENDBRANCH   1  20
BRANCH   4  22
HETATM   22  C5  UNL     1      24.393  -0.705  54.255  1.00  0.00     0.246 C 
BRANCH  22  23
HETATM   23  N2  UNL     1      25.344  -0.782  53.184  1.00  0.00    -0.374 N 
HETATM   24  H9  UNL     1      24.977  -0.881  52.189  1.00  0.00     0.161 HD
BRANCH  23  25
HETATM   25  C6  UNL     1      26.748  -0.740  53.289  1.00  0.00     0.030 A 
HETATM   26  C7  UNL     1      27.590  -1.791  53.026  1.00  0.00     0.029 A 
HETATM   27  C8  UNL     1      28.962  -1.756  53.123  1.00  0.00     0.004 A 
HETATM   28  C9  UNL     1      29.579  -0.597  53.510  1.00  0.00     0.019 A 
HETATM   29  C10 UNL     1      28.786   0.495  53.790  1.00  0.00     0.013 A 
HETATM   30 BR1  UNL     1      29.595   2.127  54.332  1.00  0.00    -0.051 Br
HETATM   31  C11 UNL     1      27.420   0.401  53.675  1.00  0.00     0.048 A 
ENDBRANCH  23  25
ENDBRANCH  22  23
ENDBRANCH   4  22
TORSDOF 6
ENDMDL
MODEL 5
REMARK VINA RESULT:      -8.1      2.293      5.421
REMARK  6 active torsions:
REMARK  status: ('A' for Active; 'I' for Inactive)
REMARK    1  A    between atoms: O1_2  and  C2_3 
REMARK    2  A    between atoms: N1_6  and  C5_7 
REMARK    3  A    between atoms: C5_7  and  N2_8 
REMARK    4  A    between atoms: N2_8  and  C6_9 
REMARK    5  A    between atoms: C13_17  and  C14_18 
REMARK    6  A    between atoms: C19_25  and  N5_26 
ROOT
HETATM    1  C2  UNL     1      23.522  -0.341  53.086  1.00  0.00     0.074 A 
HETATM    2  C3  UNL     1      24.832  -0.377  53.280  1.00  0.00     0.030 A 
HETATM    3  C4  UNL     1      25.838   0.535  52.726  1.00  0.00     0.154 A 
HETATM    4  N1  UNL     1      25.282   1.575  51.880  1.00  0.00    -0.370 N 
HETATM    5  C12 UNL     1      23.888   1.627  51.665  1.00  0.00     0.098 A 
HETATM    6  C13 UNL     1      23.079   0.746  52.221  1.00  0.00     0.005 A 
ENDROOT
BRANCH   6   7
HETATM    7  C14 UNL     1      21.618   0.866  51.946  1.00  0.00     0.118 C 
HETATM    8  C15 UNL     1      21.077   2.151  52.531  1.00  0.00    -0.007 C 
HETATM    9  C16 UNL     1      20.918   3.241  51.765  1.00  0.00     0.026 C 
HETATM   10  C17 UNL     1      20.247   2.871  50.530  1.00  0.00     0.056 C 
HETATM   11  N3  UNL     1      20.046   1.552  50.678  1.00  0.00    -0.235 NA
HETATM   12  C20 UNL     1      19.862   3.533  49.266  1.00  0.00     0.228 C 
HETATM   13  C18 UNL     1      21.373   0.949  50.491  1.00  0.00     0.157 C 
HETATM   14  N4  UNL     1      21.539   0.856  49.198  1.00  0.00    -0.047 NA
HETATM   15  C19 UNL     1      21.584   1.984  48.260  1.00  0.00     0.717 C 
HETATM   16  N6  UNL     1      20.641   2.911  48.150  1.00  0.00    -0.100 NA
BRANCH  15  17
HETATM   17  N5  UNL     1      22.755   2.041  47.418  1.00  0.00    -0.231 N 
HETATM   18  H18 UNL     1      23.198   1.146  47.194  1.00  0.00     0.174 HD
HETATM   19  H19 UNL     1      23.043   2.987  47.112  1.00  0.00     0.174 HD
ENDBRANCH  15  17
ENDBRANCH   6   7
BRANCH   1  20
HETATM   20  O1  UNL     1      22.625  -1.240  53.646  1.00  0.00    -0.356 OA
HETATM   21  C1  UNL     1      22.165  -1.138  54.978  1.00  0.00     0.210 C 
ENDBRANCH   1  20
BRANCH   4  22
HETATM   22  C5  UNL     1      26.354   2.408  51.383  1.00  0.00     0.246 C 
BRANCH  22  23
HETATM   23  N2  UNL     1      26.224   2.757  49.998  1.00  0.00    -0.374 N 
HETATM   24  H9  UNL     1      26.144   1.971  49.284  1.00  0.00     0.161 HD
BRANCH  23  25
HETATM   25  C6  UNL     1      26.189   4.053  49.449  1.00  0.00     0.030 A 
HETATM   26  C7  UNL     1      25.068   4.839  49.351  1.00  0.00     0.029 A 
HETATM   27  C8  UNL     1      25.028   6.108  48.820  1.00  0.00     0.004 A 
HETATM   28  C9  UNL     1      26.178   6.671  48.337  1.00  0.00     0.019 A 
HETATM   29  C10 UNL     1      27.338   5.931  48.406  1.00  0.00     0.013 A 
HETATM   30 BR1  UNL     1      28.961   6.668  47.749  1.00  0.00    -0.051 Br
HETATM   31  C11 UNL     1      27.318   4.668  48.948  1.00  0.00     0.048 A 
ENDBRANCH  23  25
ENDBRANCH  22  23
ENDBRANCH   4  22
TORSDOF 6
ENDMDL
MODEL 6
REMARK VINA RESULT:      -7.9      4.105      8.174
REMARK  6 active torsions:
REMARK  status: ('A' for Active; 'I' for Inactive)
REMARK    1  A    between atoms: O1_2  and  C2_3 
REMARK    2  A    between atoms: N1_6  and  C5_7 
REMARK    3  A    between atoms: C5_7  and  N2_8 
REMARK    4  A    between atoms: N2_8  and  C6_9 
REMARK    5  A    between atoms: C13_17  and  C14_18 
REMARK    6  A    between atoms: C19_25  and  N5_26 
ROOT
HETATM    1  C2  UNL     1      26.110   1.438  52.651  1.00  0.00     0.074 A 
HETATM    2  C3  UNL     1      25.992   0.254  53.230  1.00  0.00     0.030 A 
HETATM    3  C4  UNL     1      24.759  -0.509  53.453  1.00  0.00     0.154 A 
HETATM    4  N1  UNL     1      23.565   0.156  52.962  1.00  0.00    -0.370 N 
HETATM    5  C12 UNL     1      23.675   1.419  52.342  1.00  0.00     0.098 A 
HETATM    6  C13 UNL     1      24.847   2.008  52.199  1.00  0.00     0.005 A 
ENDROOT
BRANCH   6   7
HETATM    7  C14 UNL     1      24.883   3.342  51.532  1.00  0.00     0.118 C 
HETATM    8  C15 UNL     1      25.031   3.178  50.036  1.00  0.00    -0.007 C 
HETATM    9  C16 UNL     1      23.961   3.234  49.229  1.00  0.00     0.026 C 
HETATM   10  C17 UNL     1      23.149   4.387  49.581  1.00  0.00     0.056 C 
HETATM   11  N3  UNL     1      23.835   4.944  50.591  1.00  0.00    -0.235 NA
HETATM   12  C20 UNL     1      21.848   4.961  49.175  1.00  0.00     0.228 C 
HETATM   13  C18 UNL     1      23.602   4.053  51.736  1.00  0.00     0.157 C 
HETATM   14  N4  UNL     1      22.444   4.405  52.228  1.00  0.00    -0.047 NA
HETATM   15  C19 UNL     1      21.159   4.333  51.522  1.00  0.00     0.717 C 
HETATM   16  N6  UNL     1      20.915   4.889  50.343  1.00  0.00    -0.100 NA
BRANCH  15  17
HETATM   17  N5  UNL     1      20.121   3.596  52.203  1.00  0.00    -0.231 N 
HETATM   18  H18 UNL     1      19.371   4.152  52.624  1.00  0.00     0.174 HD
HETATM   19  H19 UNL     1      20.227   2.567  52.203  1.00  0.00     0.174 HD
ENDBRANCH  15  17
ENDBRANCH   6   7
BRANCH   1  20
HETATM   20  O1  UNL     1      27.316   2.104  52.472  1.00  0.00    -0.356 OA
HETATM   21  C1  UNL     1      28.310   2.172  53.473  1.00  0.00     0.210 C 
ENDBRANCH   1  20
BRANCH   4  22
HETATM   22  C5  UNL     1      22.413  -0.672  53.239  1.00  0.00     0.246 C 
BRANCH  22  23
HETATM   23  N2  UNL     1      21.187   0.061  53.367  1.00  0.00    -0.374 N 
HETATM   24  H9  UNL     1      21.228   1.048  53.764  1.00  0.00     0.161 HD
BRANCH  23  25
HETATM   25  C6  UNL     1      19.895  -0.378  53.021  1.00  0.00     0.030 A 
HETATM   26  C7  UNL     1      19.165  -1.309  53.717  1.00  0.00     0.029 A 
HETATM   27  C8  UNL     1      17.900  -1.739  53.387  1.00  0.00     0.004 A 
HETATM   28  C9  UNL     1      17.282  -1.222  52.281  1.00  0.00     0.019 A 
HETATM   29  C10 UNL     1      17.964  -0.282  51.540  1.00  0.00     0.013 A 
HETATM   30 BR1  UNL     1      17.148   0.466  49.995  1.00  0.00    -0.051 Br
HETATM   31  C11 UNL     1      19.225   0.109  51.918  1.00  0.00     0.048 A 
ENDBRANCH  23  25
ENDBRANCH  22  23
ENDBRANCH   4  22
TORSDOF 6
ENDMDL
MODEL 7
REMARK VINA RESULT:      -7.8      4.006      8.316
REMARK  6 active torsions:
REMARK  status: ('A' for Active; 'I' for Inactive)
REMARK    1  A    between atoms: O1_2  and  C2_3 
REMARK    2  A    between atoms: N1_6  and  C5_7 
REMARK    3  A    between atoms: C5_7  and  N2_8 
REMARK    4  A    between atoms: N2_8  and  C6_9 
REMARK    5  A    between atoms: C13_17  and  C14_18 
REMARK    6  A    between atoms: C19_25  and  N5_26 
ROOT
HETATM    1  C2  UNL     1      24.119   6.381  48.288  1.00  0.00     0.074 A 
HETATM    2  C3  UNL     1      23.672   5.192  48.666  1.00  0.00     0.030 A 
HETATM    3  C4  UNL     1      24.438   4.116  49.302  1.00  0.00     0.154 A 
HETATM    4  N1  UNL     1      25.836   4.443  49.518  1.00  0.00    -0.370 N 
HETATM    5  C12 UNL     1      26.327   5.706  49.121  1.00  0.00     0.098 A 
HETATM    6  C13 UNL     1      25.535   6.596  48.556  1.00  0.00     0.005 A 
ENDROOT
BRANCH   6   7
HETATM    7  C14 UNL     1      26.126   7.909  48.164  1.00  0.00     0.118 C 
HETATM    8  C15 UNL     1      26.098   8.868  49.333  1.00  0.00    -0.007 C 
HETATM    9  C16 UNL     1      27.183   9.046  50.102  1.00  0.00     0.026 C 
HETATM   10  C17 UNL     1      28.349   9.240  49.256  1.00  0.00     0.056 C 
HETATM   11  N3  UNL     1      27.840   9.171  48.017  1.00  0.00    -0.235 NA
HETATM   12  C20 UNL     1      29.808   9.392  49.441  1.00  0.00     0.228 C 
HETATM   13  C18 UNL     1      27.552   7.745  47.809  1.00  0.00     0.157 C 
HETATM   14  N4  UNL     1      28.688   7.205  47.455  1.00  0.00    -0.047 NA
HETATM   15  C19 UNL     1      29.902   7.153  48.277  1.00  0.00     0.717 C 
HETATM   16  N6  UNL     1      30.488   8.210  48.824  1.00  0.00    -0.100 NA
BRANCH  15  17
HETATM   17  N5  UNL     1      30.461   5.836  48.470  1.00  0.00    -0.231 N 
HETATM   18  H18 UNL     1      29.849   5.142  48.907  1.00  0.00     0.174 HD
HETATM   19  H19 UNL     1      31.436   5.710  48.147  1.00  0.00     0.174 HD
ENDBRANCH  15  17
ENDBRANCH   6   7
BRANCH   1  20
HETATM   20  O1  UNL     1      23.333   7.357  47.690  1.00  0.00    -0.356 OA
HETATM   21  C1  UNL     1      22.753   7.198  46.411  1.00  0.00     0.210 C 
ENDBRANCH   1  20
BRANCH   4  22
HETATM   22  C5  UNL     1      26.497   3.317  50.138  1.00  0.00     0.246 C 
BRANCH  22  23
HETATM   23  N2  UNL     1      25.982   2.981  51.434  1.00  0.00    -0.374 N 
HETATM   24  H9  UNL     1      25.649   3.771  52.065  1.00  0.00     0.161 HD
BRANCH  23  25
HETATM   25  C6  UNL     1      25.859   1.693  51.991  1.00  0.00     0.030 A 
HETATM   26  C7  UNL     1      26.860   0.757  52.042  1.00  0.00     0.029 A 
HETATM   27  C8  UNL     1      26.747  -0.501  52.590  1.00  0.00     0.004 A 
HETATM   28  C9  UNL     1      25.556  -0.891  53.138  1.00  0.00     0.019 A 
HETATM   29  C10 UNL     1      24.510   0.007  53.116  1.00  0.00     0.013 A 
HETATM   30 BR1  UNL     1      22.835  -0.487  53.865  1.00  0.00    -0.051 Br
HETATM   31  C11 UNL     1      24.681   1.249  52.556  1.00  0.00     0.048 A 
ENDBRANCH  23  25
ENDBRANCH  22  23
ENDBRANCH   4  22
TORSDOF 6
ENDMDL
MODEL 8
REMARK VINA RESULT:      -7.8      3.648      6.261
REMARK  6 active torsions:
REMARK  status: ('A' for Active; 'I' for Inactive)
REMARK    1  A    between atoms: O1_2  and  C2_3 
REMARK    2  A    between atoms: N1_6  and  C5_7 
REMARK    3  A    between atoms: C5_7  and  N2_8 
REMARK    4  A    between atoms: N2_8  and  C6_9 
REMARK    5  A    between atoms: C13_17  and  C14_18 
REMARK    6  A    between atoms: C19_25  and  N5_26 
ROOT
HETATM    1  C2  UNL     1      25.995   3.905  49.971  1.00  0.00     0.074 A 
HETATM    2  C3  UNL     1      25.057   4.815  49.756  1.00  0.00     0.030 A 
HETATM    3  C4  UNL     1      23.815   5.007  50.512  1.00  0.00     0.154 A 
HETATM    4  N1  UNL     1      23.646   4.069  51.608  1.00  0.00    -0.370 N 
HETATM    5  C12 UNL     1      24.638   3.094  51.849  1.00  0.00     0.098 A 
HETATM    6  C13 UNL     1      25.718   3.020  51.096  1.00  0.00     0.005 A 
ENDROOT
BRANCH   6   7
HETATM    7  C14 UNL     1      26.721   1.962  51.413  1.00  0.00     0.118 C 
HETATM    8  C15 UNL     1      27.712   2.468  52.437  1.00  0.00    -0.007 C 
HETATM    9  C16 UNL     1      27.565   2.177  53.738  1.00  0.00     0.026 C 
HETATM   10  C17 UNL     1      27.292   0.757  53.888  1.00  0.00     0.056 C 
HETATM   11  N3  UNL     1      27.314   0.309  52.624  1.00  0.00    -0.235 NA
HETATM   12  C20 UNL     1      26.953  -0.171  54.988  1.00  0.00     0.228 C 
HETATM   13  C18 UNL     1      26.059   0.795  52.033  1.00  0.00     0.157 C 
HETATM   14  N4  UNL     1      25.142  -0.060  52.401  1.00  0.00    -0.047 NA
HETATM   15  C19 UNL     1      24.739  -0.337  53.785  1.00  0.00     0.717 C 
HETATM   16  N6  UNL     1      25.570  -0.694  54.755  1.00  0.00    -0.100 NA
BRANCH  15  17
HETATM   17  N5  UNL     1      23.327  -0.201  54.056  1.00  0.00    -0.231 N 
HETATM   18  H18 UNL     1      22.690  -0.608  53.365  1.00  0.00     0.174 HD
HETATM   19  H19 UNL     1      23.084   0.297  54.929  1.00  0.00     0.174 HD
ENDBRANCH  15  17
ENDBRANCH   6   7
BRANCH   1  20
HETATM   20  O1  UNL     1      27.151   3.781  49.212  1.00  0.00    -0.356 OA
HETATM   21  C1  UNL     1      27.803   4.886  48.620  1.00  0.00     0.210 C 
ENDBRANCH   1  20
BRANCH   4  22
HETATM   22  C5  UNL     1      22.394   4.340  52.277  1.00  0.00     0.246 C 
BRANCH  22  23
HETATM   23  N2  UNL     1      21.245   4.237  51.424  1.00  0.00    -0.374 N 
HETATM   24  H9  UNL     1      21.034   5.045  50.763  1.00  0.00     0.161 HD
BRANCH  23  25
HETATM   25  C6  UNL     1      20.334   3.166  51.351  1.00  0.00     0.030 A 
HETATM   26  C7  UNL     1      19.289   3.079  50.467  1.00  0.00     0.029 A 
HETATM   27  C8  UNL     1      18.397   2.033  50.386  1.00  0.00     0.004 A 
HETATM   28  C9  UNL     1      18.528   0.972  51.241  1.00  0.00     0.019 A 
HETATM   29  C10 UNL     1      19.560   1.001  52.154  1.00  0.00     0.013 A 
HETATM   30 BR1  UNL     1      19.784  -0.448  53.363  1.00  0.00    -0.051 Br
HETATM   31  C11 UNL     1      20.419   2.073  52.187  1.00  0.00     0.048 A 
ENDBRANCH  23  25
ENDBRANCH  22  23
ENDBRANCH   4  22
TORSDOF 6
ENDMDL
MODEL 9
REMARK VINA RESULT:      -7.8      3.905      8.888
REMARK  6 active torsions:
REMARK  status: ('A' for Active; 'I' for Inactive)
REMARK    1  A    between atoms: O1_2  and  C2_3 
REMARK    2  A    between atoms: N1_6  and  C5_7 
REMARK    3  A    between atoms: C5_7  and  N2_8 
REMARK    4  A    between atoms: N2_8  and  C6_9 
REMARK    5  A    between atoms: C13_17  and  C14_18 
REMARK    6  A    between atoms: C19_25  and  N5_26 
ROOT
HETATM    1  C2  UNL     1      27.482   7.245  47.968  1.00  0.00     0.074 A 
HETATM    2  C3  UNL     1      28.271   6.189  48.099  1.00  0.00     0.030 A 
HETATM    3  C4  UNL     1      27.916   4.877  48.650  1.00  0.00     0.154 A 
HETATM    4  N1  UNL     1      26.534   4.781  49.084  1.00  0.00    -0.370 N 
HETATM    5  C12 UNL     1      25.681   5.898  48.951  1.00  0.00     0.098 A 
HETATM    6  C13 UNL     1      26.119   7.031  48.437  1.00  0.00     0.005 A 
ENDROOT
BRANCH   6   7
HETATM    7  C14 UNL     1      25.158   8.167  48.328  1.00  0.00     0.118 C 
HETATM    8  C15 UNL     1      24.324   8.032  47.074  1.00  0.00    -0.007 C 
HETATM    9  C16 UNL     1      23.093   7.501  47.120  1.00  0.00     0.026 C 
HETATM   10  C17 UNL     1      22.349   8.099  48.216  1.00  0.00     0.056 C 
HETATM   11  N3  UNL     1      23.225   8.972  48.736  1.00  0.00    -0.235 NA
HETATM   12  C20 UNL     1      21.030   7.915  48.857  1.00  0.00     0.228 C 
HETATM   13  C18 UNL     1      24.201   8.140  49.455  1.00  0.00     0.157 C 
HETATM   14  N4  UNL     1      23.656   7.879  50.614  1.00  0.00    -0.047 NA
HETATM   15  C19 UNL     1      22.410   7.134  50.823  1.00  0.00     0.717 C 
HETATM   16  N6  UNL     1      21.248   7.434  50.258  1.00  0.00    -0.100 NA
BRANCH  15  17
HETATM   17  N5  UNL     1      22.508   6.005  51.718  1.00  0.00    -0.231 N 
HETATM   18  H18 UNL     1      21.923   5.195  51.494  1.00  0.00     0.174 HD
HETATM   19  H19 UNL     1      23.166   6.115  52.509  1.00  0.00     0.174 HD
ENDBRANCH  15  17
ENDBRANCH   6   7
BRANCH   1  20
HETATM   20  O1  UNL     1      27.887   8.461  47.434  1.00  0.00    -0.356 OA
HETATM   21  C1  UNL     1      28.953   9.218  47.970  1.00  0.00     0.210 C 
ENDBRANCH   1  20
BRANCH   4  22
HETATM   22  C5  UNL     1      26.294   3.458  49.615  1.00  0.00     0.246 C 
BRANCH  22  23
HETATM   23  N2  UNL     1      26.461   3.362  51.036  1.00  0.00    -0.374 N 
HETATM   24  H9  UNL     1      26.675   4.252  51.580  1.00  0.00     0.161 HD
BRANCH  23  25
HETATM   25  C6  UNL     1      26.374   2.200  51.826  1.00  0.00     0.030 A 
HETATM   26  C7  UNL     1      25.217   1.510  52.090  1.00  0.00     0.029 A 
HETATM   27  C8  UNL     1      25.126   0.371  52.856  1.00  0.00     0.004 A 
HETATM   28  C9  UNL     1      26.258  -0.151  53.421  1.00  0.00     0.019 A 
HETATM   29  C10 UNL     1      27.452   0.497  53.193  1.00  0.00     0.013 A 
HETATM   30 BR1  UNL     1      29.052  -0.189  53.955  1.00  0.00    -0.051 Br
HETATM   31  C11 UNL     1      27.482   1.631  52.418  1.00  0.00     0.048 A 
ENDBRANCH  23  25
ENDBRANCH  22  23
ENDBRANCH   4  22
TORSDOF 6
ENDMDL
