MODEL 1
REMARK VINA RESULT:      -8.6      0.000      0.000
REMARK  6 active torsions:
REMARK  status: ('A' for Active; 'I' for Inactive)
REMARK    1  A    between atoms: C2_2  and  C3_4 
REMARK    2  A    between atoms: C4_6  and  C5_7 
REMARK    3  A    between atoms: C5_7  and  N1_8 
REMARK    4  A    between atoms: N1_8  and  C6_9 
REMARK    5  A    between atoms: C13_19  and  C14_20 
REMARK    6  A    between atoms: C14_20  and  O2_22 
ROOT
HETATM    1  C6  UNL     1      26.120   2.077  52.207  1.00  0.00     0.156 A 
HETATM    2  N2  UNL     1      27.293   1.557  52.571  1.00  0.00    -0.222 NA
HETATM    3  C7  UNL     1      27.439   0.460  53.328  1.00  0.00     0.238 A 
HETATM    4  N3  UNL     1      26.334  -0.203  53.780  1.00  0.00    -0.215 NA
HETATM    5  C8  UNL     1      25.092   0.260  53.456  1.00  0.00     0.202 A 
HETATM    6  C9  UNL     1      25.006   1.411  52.662  1.00  0.00     0.128 A 
HETATM    7  N4  UNL     1      23.809   2.048  52.232  1.00  0.00    -0.379 N 
HETATM    8  C10 UNL     1      22.516   1.474  51.925  1.00  0.00     0.161 C 
HETATM    9  C11 UNL     1      22.117   0.370  52.798  1.00  0.00    -0.006 A 
HETATM   10  C12 UNL     1      20.736   0.206  52.641  1.00  0.00     0.029 A 
HETATM   11  C13 UNL     1      20.022  -0.751  53.317  1.00  0.00     0.038 A 
HETATM   12  C15 UNL     1      20.648  -1.595  54.186  1.00  0.00     0.021 A 
HETATM   13  C16 UNL     1      22.009  -1.479  54.379  1.00  0.00     0.039 A 
HETATM   14  C17 UNL     1      22.698  -0.511  53.688  1.00  0.00     0.086 A 
HETATM   15  O3  UNL     1      24.055  -0.517  53.988  1.00  0.00    -0.289 OA
HETATM   16  H8  UNL     1      23.964   3.084  52.149  1.00  0.00     0.160 HD
ENDROOT
BRANCH   1  17
HETATM   17  N1  UNL     1      26.080   3.237  51.389  1.00  0.00    -0.369 N 
HETATM   18  H6  UNL     1      25.934   4.242  51.588  1.00  0.00     0.161 HD
BRANCH  17  19
HETATM   19  C5  UNL     1      26.264   3.052  49.974  1.00  0.00     0.150 C 
BRANCH  19  20
HETATM   20  C4  UNL     1      27.087   4.089  49.317  1.00  0.00     0.019 C 
HETATM   21  C3  UNL     1      26.742   5.250  48.798  1.00  0.00     0.069 C 
HETATM   22 CL1  UNL     1      25.015   5.584  48.926  1.00  0.00    -0.081 Cl
BRANCH  21  23
HETATM   23  C2  UNL     1      27.668   6.206  48.164  1.00  0.00     0.128 C 
HETATM   24  C1  UNL     1      28.955   5.920  48.210  1.00  0.00     0.058 C 
HETATM   25  F1  UNL     1      27.054   7.286  47.599  1.00  0.00    -0.205 F 
ENDBRANCH  21  23
ENDBRANCH  19  20
ENDBRANCH  17  19
ENDBRANCH   1  17
BRANCH  11  26
HETATM   26  C14 UNL     1      18.578  -0.877  53.113  1.00  0.00     0.176 C 
HETATM   27  O1  UNL     1      18.028  -0.619  52.012  1.00  0.00    -0.646 OA
BRANCH  26  28
HETATM   28  O2  UNL     1      17.748  -1.289  54.139  1.00  0.00    -0.773 OA
HETATM   29  H12 UNL     1      18.125  -1.506  55.062  1.00  0.00     0.167 HD
ENDBRANCH  26  28
ENDBRANCH  11  26
TORSDOF 6
ENDMDL
MODEL 2
REMARK VINA RESULT:      -8.5      3.032      5.491
REMARK  6 active torsions:
REMARK  status: ('A' for Active; 'I' for Inactive)
REMARK    1  A    between atoms: C2_2  and  C3_4 
REMARK    2  A    between atoms: C4_6  and  C5_7 
REMARK    3  A    between atoms: C5_7  and  N1_8 
REMARK    4  A    between atoms: N1_8  and  C6_9 
REMARK    5  A    between atoms: C13_19  and  C14_20 
REMARK    6  A    between atoms: C14_20  and  O2_22 
ROOT
HETATM    1  C6  UNL     1      23.387   4.287  52.335  1.00  0.00     0.156 A 
HETATM    2  N2  UNL     1      22.057   4.193  52.362  1.00  0.00    -0.222 NA
HETATM    3  C7  UNL     1      21.374   3.040  52.403  1.00  0.00     0.238 A 
HETATM    4  N3  UNL     1      22.050   1.853  52.420  1.00  0.00    -0.215 NA
HETATM    5  C8  UNL     1      23.414   1.855  52.393  1.00  0.00     0.202 A 
HETATM    6  C9  UNL     1      24.069   3.093  52.351  1.00  0.00     0.128 A 
HETATM    7  N4  UNL     1      25.476   3.299  52.308  1.00  0.00    -0.379 N 
HETATM    8  C10 UNL     1      26.543   2.507  52.881  1.00  0.00     0.161 C 
HETATM    9  C11 UNL     1      26.326   1.061  52.828  1.00  0.00    -0.006 A 
HETATM   10  C12 UNL     1      27.570   0.454  53.037  1.00  0.00     0.029 A 
HETATM   11  C13 UNL     1      27.737  -0.906  53.051  1.00  0.00     0.038 A 
HETATM   12  C15 UNL     1      26.672  -1.736  52.857  1.00  0.00     0.021 A 
HETATM   13  C16 UNL     1      25.421  -1.192  52.647  1.00  0.00     0.039 A 
HETATM   14  C17 UNL     1      25.284   0.175  52.638  1.00  0.00     0.086 A 
HETATM   15  O3  UNL     1      23.970   0.570  52.414  1.00  0.00    -0.289 OA
HETATM   16  H8  UNL     1      25.695   4.170  51.762  1.00  0.00     0.160 HD
ENDROOT
BRANCH   1  17
HETATM   17  N1  UNL     1      24.009   5.563  52.306  1.00  0.00    -0.369 N 
HETATM   18  H6  UNL     1      24.501   6.130  53.019  1.00  0.00     0.161 HD
BRANCH  17  19
HETATM   19  C5  UNL     1      23.982   6.282  51.060  1.00  0.00     0.150 C 
BRANCH  19  20
HETATM   20  C4  UNL     1      25.262   6.289  50.322  1.00  0.00     0.019 C 
HETATM   21  C3  UNL     1      25.716   5.473  49.393  1.00  0.00     0.069 C 
HETATM   22 CL1  UNL     1      24.589   4.178  48.992  1.00  0.00    -0.081 Cl
BRANCH  21  23
HETATM   23  C2  UNL     1      27.027   5.589  48.727  1.00  0.00     0.128 C 
HETATM   24  C1  UNL     1      27.491   6.806  48.516  1.00  0.00     0.058 C 
HETATM   25  F1  UNL     1      27.600   4.391  48.410  1.00  0.00    -0.205 F 
ENDBRANCH  21  23
ENDBRANCH  19  20
ENDBRANCH  17  19
ENDBRANCH   1  17
BRANCH  11  26
HETATM   26  C14 UNL     1      29.063  -1.486  53.275  1.00  0.00     0.176 C 
HETATM   27  O1  UNL     1      30.104  -0.783  53.335  1.00  0.00    -0.646 OA
BRANCH  26  28
HETATM   28  O2  UNL     1      29.225  -2.850  53.430  1.00  0.00    -0.773 OA
HETATM   29  H12 UNL     1      28.560  -3.398  53.976  1.00  0.00     0.167 HD
ENDBRANCH  26  28
ENDBRANCH  11  26
TORSDOF 6
ENDMDL
MODEL 3
REMARK VINA RESULT:      -8.3      3.638      6.509
REMARK  6 active torsions:
REMARK  status: ('A' for Active; 'I' for Inactive)
REMARK    1  A    between atoms: C2_2  and  C3_4 
REMARK    2  A    between atoms: C4_6  and  C5_7 
REMARK    3  A    between atoms: C5_7  and  N1_8 
REMARK    4  A    between atoms: N1_8  and  C6_9 
REMARK    5  A    between atoms: C13_19  and  C14_20 
REMARK    6  A    between atoms: C14_20  and  O2_22 
ROOT
HETATM    1  C6  UNL     1      20.787   1.323  52.776  1.00  0.00     0.156 A 
HETATM    2  N2  UNL     1      19.986   0.310  53.105  1.00  0.00    -0.222 NA
HETATM    3  C7  UNL     1      20.405  -0.869  53.587  1.00  0.00     0.238 A 
HETATM    4  N3  UNL     1      21.741  -1.090  53.769  1.00  0.00    -0.215 NA
HETATM    5  C8  UNL     1      22.634  -0.106  53.457  1.00  0.00     0.202 A 
HETATM    6  C9  UNL     1      22.133   1.103  52.958  1.00  0.00     0.128 A 
HETATM    7  N4  UNL     1      22.901   2.235  52.568  1.00  0.00    -0.379 N 
HETATM    8  C10 UNL     1      24.161   2.720  53.090  1.00  0.00     0.161 C 
HETATM    9  C11 UNL     1      25.111   1.672  53.461  1.00  0.00    -0.006 A 
HETATM   10  C12 UNL     1      26.370   2.277  53.554  1.00  0.00     0.029 A 
HETATM   11  C13 UNL     1      27.503   1.581  53.886  1.00  0.00     0.038 A 
HETATM   12  C15 UNL     1      27.443   0.243  54.143  1.00  0.00     0.021 A 
HETATM   13  C16 UNL     1      26.228  -0.405  54.066  1.00  0.00     0.039 A 
HETATM   14  C17 UNL     1      25.108   0.318  53.731  1.00  0.00     0.086 A 
HETATM   15  O3  UNL     1      23.965  -0.471  53.694  1.00  0.00    -0.289 OA
HETATM   16  H8  UNL     1      22.421   2.741  51.781  1.00  0.00     0.160 HD
ENDROOT
BRANCH   1  17
HETATM   17  N1  UNL     1      20.235   2.537  52.286  1.00  0.00    -0.369 N 
HETATM   18  H6  UNL     1      20.103   3.476  52.701  1.00  0.00     0.161 HD
BRANCH  17  19
HETATM   19  C5  UNL     1      19.724   2.532  50.941  1.00  0.00     0.150 C 
BRANCH  19  20
HETATM   20  C4  UNL     1      20.674   3.013  49.917  1.00  0.00     0.019 C 
HETATM   21  C3  UNL     1      21.490   2.342  49.129  1.00  0.00     0.069 C 
HETATM   22 CL1  UNL     1      21.407   0.597  49.363  1.00  0.00    -0.081 Cl
BRANCH  21  23
HETATM   23  C2  UNL     1      22.400   2.946  48.138  1.00  0.00     0.128 C 
HETATM   24  C1  UNL     1      22.896   4.136  48.419  1.00  0.00     0.058 C 
HETATM   25  F1  UNL     1      22.613   2.173  47.033  1.00  0.00    -0.205 F 
ENDBRANCH  21  23
ENDBRANCH  19  20
ENDBRANCH  17  19
ENDBRANCH   1  17
BRANCH  11  26
HETATM   26  C14 UNL     1      28.794   2.267  53.969  1.00  0.00     0.176 C 
HETATM   27  O1  UNL     1      29.544   2.174  54.975  1.00  0.00    -0.646 OA
BRANCH  26  28
HETATM   28  O2  UNL     1      29.247   3.058  52.929  1.00  0.00    -0.773 OA
HETATM   29  H12 UNL     1      28.752   3.085  52.038  1.00  0.00     0.167 HD
ENDBRANCH  26  28
ENDBRANCH  11  26
TORSDOF 6
ENDMDL
MODEL 4
REMARK VINA RESULT:      -8.2      3.835      6.613
REMARK  6 active torsions:
REMARK  status: ('A' for Active; 'I' for Inactive)
REMARK    1  A    between atoms: C2_2  and  C3_4 
REMARK    2  A    between atoms: C4_6  and  C5_7 
REMARK    3  A    between atoms: C5_7  and  N1_8 
REMARK    4  A    between atoms: N1_8  and  C6_9 
REMARK    5  A    between atoms: C13_19  and  C14_20 
REMARK    6  A    between atoms: C14_20  and  O2_22 
ROOT
HETATM    1  C6  UNL     1      20.824   0.085  52.583  1.00  0.00     0.156 A 
HETATM    2  N2  UNL     1      20.049  -0.760  53.265  1.00  0.00    -0.222 NA
HETATM    3  C7  UNL     1      20.478  -1.560  54.253  1.00  0.00     0.238 A 
HETATM    4  N3  UNL     1      21.793  -1.540  54.618  1.00  0.00    -0.215 NA
HETATM    5  C8  UNL     1      22.659  -0.706  53.972  1.00  0.00     0.202 A 
HETATM    6  C9  UNL     1      22.150   0.105  52.949  1.00  0.00     0.128 A 
HETATM    7  N4  UNL     1      22.891   1.025  52.158  1.00  0.00    -0.379 N 
HETATM    8  C10 UNL     1      24.053   1.816  52.506  1.00  0.00     0.161 C 
HETATM    9  C11 UNL     1      25.013   1.139  53.378  1.00  0.00    -0.006 A 
HETATM   10  C12 UNL     1      26.215   1.850  53.290  1.00  0.00     0.029 A 
HETATM   11  C13 UNL     1      27.341   1.489  53.985  1.00  0.00     0.038 A 
HETATM   12  C15 UNL     1      27.328   0.400  54.804  1.00  0.00     0.021 A 
HETATM   13  C16 UNL     1      26.169  -0.338  54.930  1.00  0.00     0.039 A 
HETATM   14  C17 UNL     1      25.056   0.046  54.221  1.00  0.00     0.086 A 
HETATM   15  O3  UNL     1      23.972  -0.792  54.450  1.00  0.00    -0.289 OA
HETATM   16  H8  UNL     1      22.478   1.084  51.193  1.00  0.00     0.160 HD
ENDROOT
BRANCH   1  17
HETATM   17  N1  UNL     1      20.263   0.899  51.564  1.00  0.00    -0.369 N 
HETATM   18  H6  UNL     1      20.249   0.835  50.531  1.00  0.00     0.161 HD
BRANCH  17  19
HETATM   19  C5  UNL     1      19.557   2.082  51.979  1.00  0.00     0.150 C 
BRANCH  19  20
HETATM   20  C4  UNL     1      20.414   3.261  52.220  1.00  0.00     0.019 C 
HETATM   21  C3  UNL     1      20.894   4.153  51.378  1.00  0.00     0.069 C 
HETATM   22 CL1  UNL     1      20.416   3.861  49.706  1.00  0.00    -0.081 Cl
BRANCH  21  23
HETATM   23  C2  UNL     1      21.748   5.297  51.748  1.00  0.00     0.128 C 
HETATM   24  C1  UNL     1      21.651   6.387  51.010  1.00  0.00     0.058 C 
HETATM   25  F1  UNL     1      22.546   5.070  52.832  1.00  0.00    -0.205 F 
ENDBRANCH  21  23
ENDBRANCH  19  20
ENDBRANCH  17  19
ENDBRANCH   1  17
BRANCH  11  26
HETATM   26  C14 UNL     1      28.572   2.271  53.854  1.00  0.00     0.176 C 
HETATM   27  O1  UNL     1      29.457   2.288  54.747  1.00  0.00    -0.646 OA
BRANCH  26  28
HETATM   28  O2  UNL     1      28.814   3.035  52.726  1.00  0.00    -0.773 OA
HETATM   29  H12 UNL     1      29.478   2.725  52.017  1.00  0.00     0.167 HD
ENDBRANCH  26  28
ENDBRANCH  11  26
TORSDOF 6
ENDMDL
MODEL 5
REMARK VINA RESULT:      -7.9      4.680      8.688
REMARK  6 active torsions:
REMARK  status: ('A' for Active; 'I' for Inactive)
REMARK    1  A    between atoms: C2_2  and  C3_4 
REMARK    2  A    between atoms: C4_6  and  C5_7 
REMARK    3  A    between atoms: C5_7  and  N1_8 
REMARK    4  A    between atoms: N1_8  and  C6_9 
REMARK    5  A    between atoms: C13_19  and  C14_20 
REMARK    6  A    between atoms: C14_20  and  O2_22 
ROOT
HETATM    1  C6  UNL     1      24.066   2.214  51.816  1.00  0.00     0.156 A 
HETATM    2  N2  UNL     1      22.840   2.447  52.286  1.00  0.00    -0.222 NA
HETATM    3  C7  UNL     1      22.209   3.628  52.217  1.00  0.00     0.238 A 
HETATM    4  N3  UNL     1      22.829   4.695  51.632  1.00  0.00    -0.215 NA
HETATM    5  C8  UNL     1      24.087   4.546  51.124  1.00  0.00     0.202 A 
HETATM    6  C9  UNL     1      24.693   3.287  51.227  1.00  0.00     0.128 A 
HETATM    7  N4  UNL     1      25.995   2.941  50.770  1.00  0.00    -0.379 N 
HETATM    8  C10 UNL     1      26.745   3.452  49.643  1.00  0.00     0.161 C 
HETATM    9  C11 UNL     1      26.580   4.885  49.401  1.00  0.00    -0.006 A 
HETATM   10  C12 UNL     1      27.637   5.284  48.574  1.00  0.00     0.029 A 
HETATM   11  C13 UNL     1      27.794   6.576  48.145  1.00  0.00     0.038 A 
HETATM   12  C15 UNL     1      26.906   7.541  48.516  1.00  0.00     0.021 A 
HETATM   13  C16 UNL     1      25.844   7.205  49.329  1.00  0.00     0.039 A 
HETATM   14  C17 UNL     1      25.711   5.902  49.745  1.00  0.00     0.086 A 
HETATM   15  O3  UNL     1      24.598   5.720  50.556  1.00  0.00    -0.289 OA
HETATM   16  H8  UNL     1      26.409   2.202  51.393  1.00  0.00     0.160 HD
ENDROOT
BRANCH   1  17
HETATM   17  N1  UNL     1      24.636   0.918  51.929  1.00  0.00    -0.369 N 
HETATM   18  H6  UNL     1      24.971   0.226  51.236  1.00  0.00     0.161 HD
BRANCH  17  19
HETATM   19  C5  UNL     1      24.809   0.388  53.256  1.00  0.00     0.150 C 
BRANCH  19  20
HETATM   20  C4  UNL     1      26.196   0.428  53.762  1.00  0.00     0.019 C 
HETATM   21  C3  UNL     1      27.204  -0.396  53.556  1.00  0.00     0.069 C 
HETATM   22 CL1  UNL     1      26.793  -1.750  52.504  1.00  0.00    -0.081 Cl
BRANCH  21  23
HETATM   23  C2  UNL     1      28.556  -0.243  54.125  1.00  0.00     0.128 C 
HETATM   24  C1  UNL     1      29.533  -0.916  53.548  1.00  0.00     0.058 C 
HETATM   25  F1  UNL     1      28.617   0.595  55.201  1.00  0.00    -0.205 F 
ENDBRANCH  21  23
ENDBRANCH  19  20
ENDBRANCH  17  19
ENDBRANCH   1  17
BRANCH  11  26
HETATM   26  C14 UNL     1      28.921   6.935  47.280  1.00  0.00     0.176 C 
HETATM   27  O1  UNL     1      28.811   7.764  46.341  1.00  0.00    -0.646 OA
BRANCH  26  28
HETATM   28  O2  UNL     1      30.169   6.368  47.465  1.00  0.00    -0.773 OA
HETATM   29  H12 UNL     1      30.386   5.447  47.086  1.00  0.00     0.167 HD
ENDBRANCH  26  28
ENDBRANCH  11  26
TORSDOF 6
ENDMDL
MODEL 6
REMARK VINA RESULT:      -7.9      2.889      4.871
REMARK  6 active torsions:
REMARK  status: ('A' for Active; 'I' for Inactive)
REMARK    1  A    between atoms: C2_2  and  C3_4 
REMARK    2  A    between atoms: C4_6  and  C5_7 
REMARK    3  A    between atoms: C5_7  and  N1_8 
REMARK    4  A    between atoms: N1_8  and  C6_9 
REMARK    5  A    between atoms: C13_19  and  C14_20 
REMARK    6  A    between atoms: C14_20  and  O2_22 
ROOT
HETATM    1  C6  UNL     1      22.878   6.152  51.303  1.00  0.00     0.156 A 
HETATM    2  N2  UNL     1      21.717   6.511  50.752  1.00  0.00    -0.222 NA
HETATM    3  C7  UNL     1      20.711   5.669  50.477  1.00  0.00     0.238 A 
HETATM    4  N3  UNL     1      20.841   4.340  50.766  1.00  0.00    -0.215 NA
HETATM    5  C8  UNL     1      21.997   3.884  51.331  1.00  0.00     0.202 A 
HETATM    6  C9  UNL     1      23.011   4.814  51.594  1.00  0.00     0.128 A 
HETATM    7  N4  UNL     1      24.283   4.532  52.165  1.00  0.00    -0.379 N 
HETATM    8  C10 UNL     1      24.658   3.521  53.130  1.00  0.00     0.161 C 
HETATM    9  C11 UNL     1      23.974   2.238  52.966  1.00  0.00    -0.006 A 
HETATM   10  C12 UNL     1      24.712   1.289  53.682  1.00  0.00     0.029 A 
HETATM   11  C13 UNL     1      24.354  -0.033  53.746  1.00  0.00     0.038 A 
HETATM   12  C15 UNL     1      23.240  -0.480  53.100  1.00  0.00     0.021 A 
HETATM   13  C16 UNL     1      22.473   0.413  52.379  1.00  0.00     0.039 A 
HETATM   14  C17 UNL     1      22.857   1.732  52.332  1.00  0.00     0.086 A 
HETATM   15  O3  UNL     1      21.989   2.505  51.570  1.00  0.00    -0.289 OA
HETATM   16  H8  UNL     1      25.004   5.193  51.780  1.00  0.00     0.160 HD
ENDROOT
BRANCH   1  17
HETATM   17  N1  UNL     1      23.873   7.130  51.565  1.00  0.00    -0.369 N 
HETATM   18  H6  UNL     1      24.218   7.579  52.431  1.00  0.00     0.161 HD
BRANCH  17  19
HETATM   19  C5  UNL     1      24.589   7.661  50.435  1.00  0.00     0.150 C 
BRANCH  19  20
HETATM   20  C4  UNL     1      25.746   6.851  50.000  1.00  0.00     0.019 C 
HETATM   21  C3  UNL     1      26.208   6.603  48.792  1.00  0.00     0.069 C 
HETATM   22 CL1  UNL     1      25.269   7.376  47.515  1.00  0.00    -0.081 Cl
BRANCH  21  23
HETATM   23  C2  UNL     1      27.385   5.769  48.487  1.00  0.00     0.128 C 
HETATM   24  C1  UNL     1      28.496   6.394  48.148  1.00  0.00     0.058 C 
HETATM   25  F1  UNL     1      27.162   4.427  48.599  1.00  0.00    -0.205 F 
ENDBRANCH  21  23
ENDBRANCH  19  20
ENDBRANCH  17  19
ENDBRANCH   1  17
BRANCH  11  26
HETATM   26  C14 UNL     1      25.165  -0.983  54.511  1.00  0.00     0.176 C 
HETATM   27  O1  UNL     1      26.288  -1.383  54.113  1.00  0.00    -0.646 OA
BRANCH  26  28
HETATM   28  O2  UNL     1      24.721  -1.485  55.721  1.00  0.00    -0.773 OA
HETATM   29  H12 UNL     1      23.825  -1.193  56.111  1.00  0.00     0.167 HD
ENDBRANCH  26  28
ENDBRANCH  11  26
TORSDOF 6
ENDMDL
MODEL 7
REMARK VINA RESULT:      -7.8      4.562      8.829
REMARK  6 active torsions:
REMARK  status: ('A' for Active; 'I' for Inactive)
REMARK    1  A    between atoms: C2_2  and  C3_4 
REMARK    2  A    between atoms: C4_6  and  C5_7 
REMARK    3  A    between atoms: C5_7  and  N1_8 
REMARK    4  A    between atoms: N1_8  and  C6_9 
REMARK    5  A    between atoms: C13_19  and  C14_20 
REMARK    6  A    between atoms: C14_20  and  O2_22 
ROOT
HETATM    1  C6  UNL     1      22.862   2.728  50.723  1.00  0.00     0.156 A 
HETATM    2  N2  UNL     1      21.615   3.201  50.703  1.00  0.00    -0.222 NA
HETATM    3  C7  UNL     1      21.274   4.438  50.312  1.00  0.00     0.238 A 
HETATM    4  N3  UNL     1      22.242   5.308  49.896  1.00  0.00    -0.215 NA
HETATM    5  C8  UNL     1      23.547   4.907  49.885  1.00  0.00     0.202 A 
HETATM    6  C9  UNL     1      23.838   3.603  50.306  1.00  0.00     0.128 A 
HETATM    7  N4  UNL     1      25.129   3.010  50.376  1.00  0.00    -0.379 N 
HETATM    8  C10 UNL     1      26.296   3.239  49.550  1.00  0.00     0.161 C 
HETATM    9  C11 UNL     1      26.491   4.630  49.142  1.00  0.00    -0.006 A 
HETATM   10  C12 UNL     1      27.818   4.748  48.716  1.00  0.00     0.029 A 
HETATM   11  C13 UNL     1      28.348   5.927  48.260  1.00  0.00     0.038 A 
HETATM   12  C15 UNL     1      27.582   7.054  48.205  1.00  0.00     0.021 A 
HETATM   13  C16 UNL     1      26.266   6.996  48.612  1.00  0.00     0.039 A 
HETATM   14  C17 UNL     1      25.761   5.800  49.064  1.00  0.00     0.086 A 
HETATM   15  O3  UNL     1      24.427   5.900  49.438  1.00  0.00    -0.289 OA
HETATM   16  H8  UNL     1      25.165   2.319  51.167  1.00  0.00     0.160 HD
ENDROOT
BRANCH   1  17
HETATM   17  N1  UNL     1      23.110   1.395  51.144  1.00  0.00    -0.369 N 
HETATM   18  H6  UNL     1      23.280   0.509  50.636  1.00  0.00     0.161 HD
BRANCH  17  19
HETATM   19  C5  UNL     1      23.137   1.145  52.561  1.00  0.00     0.150 C 
BRANCH  19  20
HETATM   20  C4  UNL     1      24.289   0.346  53.026  1.00  0.00     0.019 C 
HETATM   21  C3  UNL     1      25.432   0.727  53.560  1.00  0.00     0.069 C 
HETATM   22 CL1  UNL     1      25.573   2.476  53.730  1.00  0.00    -0.081 Cl
BRANCH  21  23
HETATM   23  C2  UNL     1      26.514  -0.179  53.987  1.00  0.00     0.128 C 
HETATM   24  C1  UNL     1      27.021  -0.986  53.074  1.00  0.00     0.058 C 
HETATM   25  F1  UNL     1      26.856  -0.059  55.303  1.00  0.00    -0.205 F 
ENDBRANCH  21  23
ENDBRANCH  19  20
ENDBRANCH  17  19
ENDBRANCH   1  17
BRANCH  11  26
HETATM   26  C14 UNL     1      29.746   5.991  47.827  1.00  0.00     0.176 C 
HETATM   27  O1  UNL     1      30.271   7.051  47.399  1.00  0.00    -0.646 OA
BRANCH  26  28
HETATM   28  O2  UNL     1      30.556   4.871  47.870  1.00  0.00    -0.773 OA
HETATM   29  H12 UNL     1      30.542   4.247  48.677  1.00  0.00     0.167 HD
ENDBRANCH  26  28
ENDBRANCH  11  26
TORSDOF 6
ENDMDL
MODEL 8
REMARK VINA RESULT:      -7.7      3.471      4.858
REMARK  6 active torsions:
REMARK  status: ('A' for Active; 'I' for Inactive)
REMARK    1  A    between atoms: C2_2  and  C3_4 
REMARK    2  A    between atoms: C4_6  and  C5_7 
REMARK    3  A    between atoms: C5_7  and  N1_8 
REMARK    4  A    between atoms: N1_8  and  C6_9 
REMARK    5  A    between atoms: C13_19  and  C14_20 
REMARK    6  A    between atoms: C14_20  and  O2_22 
ROOT
HETATM    1  C6  UNL     1      23.219  -0.100  53.547  1.00  0.00     0.156 A 
HETATM    2  N2  UNL     1      23.551  -0.869  54.585  1.00  0.00    -0.222 NA
HETATM    3  C7  UNL     1      22.690  -1.628  55.278  1.00  0.00     0.238 A 
HETATM    4  N3  UNL     1      21.369  -1.644  54.930  1.00  0.00    -0.215 NA
HETATM    5  C8  UNL     1      20.940  -0.885  53.880  1.00  0.00     0.202 A 
HETATM    6  C9  UNL     1      21.889  -0.113  53.196  1.00  0.00     0.128 A 
HETATM    7  N4  UNL     1      21.636   0.745  52.091  1.00  0.00    -0.379 N 
HETATM    8  C10 UNL     1      20.649   0.628  51.038  1.00  0.00     0.161 C 
HETATM    9  C11 UNL     1      19.354   0.104  51.471  1.00  0.00    -0.006 A 
HETATM   10  C12 UNL     1      18.429   0.425  50.471  1.00  0.00     0.029 A 
HETATM   11  C13 UNL     1      17.104   0.082  50.550  1.00  0.00     0.038 A 
HETATM   12  C15 UNL     1      16.630  -0.600  51.631  1.00  0.00     0.021 A 
HETATM   13  C16 UNL     1      17.497  -0.943  52.648  1.00  0.00     0.039 A 
HETATM   14  C17 UNL     1      18.820  -0.586  52.542  1.00  0.00     0.086 A 
HETATM   15  O3  UNL     1      19.566  -0.999  53.639  1.00  0.00    -0.289 OA
HETATM   16  H8  UNL     1      22.299   1.560  52.110  1.00  0.00     0.160 HD
ENDROOT
BRANCH   1  17
HETATM   17  N1  UNL     1      24.216   0.655  52.874  1.00  0.00    -0.369 N 
HETATM   18  H6  UNL     1      24.307   1.657  52.633  1.00  0.00     0.161 HD
BRANCH  17  19
HETATM   19  C5  UNL     1      25.368  -0.059  52.391  1.00  0.00     0.150 C 
BRANCH  19  20
HETATM   20  C4  UNL     1      26.644   0.321  53.031  1.00  0.00     0.019 C 
HETATM   21  C3  UNL     1      27.467   1.316  52.771  1.00  0.00     0.069 C 
HETATM   22 CL1  UNL     1      26.927   2.336  51.438  1.00  0.00    -0.081 Cl
BRANCH  21  23
HETATM   23  C2  UNL     1      28.724   1.590  53.492  1.00  0.00     0.128 C 
HETATM   24  C1  UNL     1      29.501   0.558  53.763  1.00  0.00     0.058 C 
HETATM   25  F1  UNL     1      28.921   2.907  53.789  1.00  0.00    -0.205 F 
ENDBRANCH  21  23
ENDBRANCH  19  20
ENDBRANCH  17  19
ENDBRANCH   1  17
BRANCH  11  26
HETATM   26  C14 UNL     1      16.181   0.444  49.473  1.00  0.00     0.176 C 
HETATM   27  O1  UNL     1      16.118   1.609  49.003  1.00  0.00    -0.646 OA
BRANCH  26  28
HETATM   28  O2  UNL     1      15.329  -0.494  48.921  1.00  0.00    -0.773 OA
HETATM   29  H12 UNL     1      15.363  -0.710  47.924  1.00  0.00     0.167 HD
ENDBRANCH  26  28
ENDBRANCH  11  26
TORSDOF 6
ENDMDL
MODEL 9
REMARK VINA RESULT:      -7.3      3.185      5.593
REMARK  6 active torsions:
REMARK  status: ('A' for Active; 'I' for Inactive)
REMARK    1  A    between atoms: C2_2  and  C3_4 
REMARK    2  A    between atoms: C4_6  and  C5_7 
REMARK    3  A    between atoms: C5_7  and  N1_8 
REMARK    4  A    between atoms: N1_8  and  C6_9 
REMARK    5  A    between atoms: C13_19  and  C14_20 
REMARK    6  A    between atoms: C14_20  and  O2_22 
ROOT
HETATM    1  C6  UNL     1      19.760   1.700  49.498  1.00  0.00     0.156 A 
HETATM    2  N2  UNL     1      18.430   1.767  49.559  1.00  0.00    -0.222 NA
HETATM    3  C7  UNL     1      17.684   1.244  50.543  1.00  0.00     0.238 A 
HETATM    4  N3  UNL     1      18.290   0.589  51.577  1.00  0.00    -0.215 NA
HETATM    5  C8  UNL     1      19.650   0.473  51.596  1.00  0.00     0.202 A 
HETATM    6  C9  UNL     1      20.373   1.040  50.538  1.00  0.00     0.128 A 
HETATM    7  N4  UNL     1      21.785   1.014  50.375  1.00  0.00    -0.379 N 
HETATM    8  C10 UNL     1      22.830   1.010  51.377  1.00  0.00     0.161 C 
HETATM    9  C11 UNL     1      22.527   0.222  52.571  1.00  0.00    -0.006 A 
HETATM   10  C12 UNL     1      23.742  -0.005  53.228  1.00  0.00     0.029 A 
HETATM   11  C13 UNL     1      23.830  -0.718  54.396  1.00  0.00     0.038 A 
HETATM   12  C15 UNL     1      22.711  -1.243  54.972  1.00  0.00     0.021 A 
HETATM   13  C16 UNL     1      21.486  -1.049  54.368  1.00  0.00     0.039 A 
HETATM   14  C17 UNL     1      21.428  -0.331  53.198  1.00  0.00     0.086 A 
HETATM   15  O3  UNL     1      20.131  -0.222  52.712  1.00  0.00    -0.289 OA
HETATM   16  H8  UNL     1      22.029   0.992  49.353  1.00  0.00     0.160 HD
ENDROOT
BRANCH   1  17
HETATM   17  N1  UNL     1      20.454   2.302  48.414  1.00  0.00    -0.369 N 
HETATM   18  H6  UNL     1      20.873   1.929  47.544  1.00  0.00     0.161 HD
BRANCH  17  19
HETATM   19  C5  UNL     1      20.661   3.725  48.473  1.00  0.00     0.150 C 
BRANCH  19  20
HETATM   20  C4  UNL     1      22.057   4.136  48.727  1.00  0.00     0.019 C 
HETATM   21  C3  UNL     1      22.650   4.498  49.846  1.00  0.00     0.069 C 
HETATM   22 CL1  UNL     1      21.574   4.476  51.243  1.00  0.00    -0.081 Cl
BRANCH  21  23
HETATM   23  C2  UNL     1      24.066   4.890  49.969  1.00  0.00     0.128 C 
HETATM   24  C1  UNL     1      24.965   4.075  49.452  1.00  0.00     0.058 C 
HETATM   25  F1  UNL     1      24.262   6.075  50.618  1.00  0.00    -0.205 F 
ENDBRANCH  21  23
ENDBRANCH  19  20
ENDBRANCH  17  19
ENDBRANCH   1  17
BRANCH  11  26
HETATM   26  C14 UNL     1      25.129  -0.925  55.039  1.00  0.00     0.176 C 
HETATM   27  O1  UNL     1      25.245  -1.119  56.277  1.00  0.00    -0.646 OA
BRANCH  26  28
HETATM   28  O2  UNL     1      26.299  -0.914  54.301  1.00  0.00    -0.773 OA
HETATM   29  H12 UNL     1      26.392  -1.485  53.460  1.00  0.00     0.167 HD
ENDBRANCH  26  28
ENDBRANCH  11  26
TORSDOF 6
ENDMDL
