MODEL 1
REMARK VINA RESULT:      -7.5      0.000      0.000
REMARK  5 active torsions:
REMARK  status: ('A' for Active; 'I' for Inactive)
REMARK    1  A    between atoms: C6_7  and  N2_8 
REMARK       I    between atoms: N2_8  and  C7_9 
REMARK    2  A    between atoms: C7_9  and  C8_11 
REMARK    3  A    between atoms: C9_12  and  C10_13 
REMARK    4  A    between atoms: C10_13  and  N3_14 
REMARK    5  A    between atoms: N4_18  and  C13_19 
ROOT
HETATM    1  N1  UNL     1      21.971   7.948  49.303  1.00  0.00    -0.191 NA
HETATM    2  C1  UNL     1      22.023   6.909  49.851  1.00  0.00     0.103 C 
HETATM    3  C2  UNL     1      22.076   5.658  50.538  1.00  0.00     0.089 C 
HETATM    4  C3  UNL     1      23.104   4.837  50.516  1.00  0.00     0.065 C 
HETATM    5  C4  UNL     1      23.109   3.559  51.262  1.00  0.00    -0.008 C 
HETATM    6  C5  UNL     1      24.139   2.780  51.502  1.00  0.00     0.040 C 
HETATM    7  C6  UNL     1      25.540   2.936  51.121  1.00  0.00     0.034 C 
HETATM    8  C11 UNL     1      26.003   3.982  50.496  1.00  0.00     0.023 C 
HETATM    9  C12 UNL     1      25.563   5.280  49.940  1.00  0.00     0.159 C 
HETATM   10  N4  UNL     1      24.140   5.310  49.669  1.00  0.00    -0.342 N 
HETATM   11  C19 UNL     1      21.873   3.033  51.886  1.00  0.00     0.189 C 
HETATM   12  N5  UNL     1      20.832   4.031  51.841  1.00  0.00    -0.295 NA
HETATM   13  C20 UNL     1      20.903   5.174  51.258  1.00  0.00     0.135 C 
ENDROOT
BRANCH  10  14
HETATM   14  C13 UNL     1      23.695   5.839  48.388  1.00  0.00     0.036 A 
HETATM   15  C14 UNL     1      24.377   6.991  47.942  1.00  0.00     0.030 A 
HETATM   16  C15 UNL     1      24.112   7.546  46.705  1.00  0.00     0.004 A 
HETATM   17  C16 UNL     1      23.163   6.967  45.887  1.00  0.00     0.019 A 
HETATM   18  C17 UNL     1      22.502   5.848  46.322  1.00  0.00     0.013 A 
HETATM   19 BR1  UNL     1      21.169   4.952  45.288  1.00  0.00    -0.051 Br
HETATM   20  C18 UNL     1      22.727   5.255  47.543  1.00  0.00     0.048 A 
ENDBRANCH  10  14
BRANCH   7  21
HETATM   21  N2  UNL     1      26.326   1.828  51.505  1.00  0.00    -0.317 N 
HETATM   22  C7  UNL     1      27.000   1.464  52.672  1.00  0.00     0.301 C 
HETATM   23  O1  UNL     1      26.932   2.255  53.634  1.00  0.00    -0.258 OA
HETATM   24  H2  UNL     1      26.491   1.049  50.802  1.00  0.00     0.170 HD
BRANCH  22  25
HETATM   25  C8  UNL     1      27.766   0.279  52.897  1.00  0.00    -0.004 C 
HETATM   26  C9  UNL     1      28.402  -0.727  53.069  1.00  0.00    -0.081 C 
BRANCH  26  27
HETATM   27  C10 UNL     1      29.157  -1.950  53.270  1.00  0.00     0.199 C 
BRANCH  27  28
HETATM   28  N3  UNL     1      28.357  -3.146  52.993  1.00  0.00    -0.226 NA
HETATM   29 CL1  UNL     1      26.910  -2.582  52.186  1.00  0.00    -0.024 Cl
HETATM   30  H5  UNL     1      28.911  -3.696  52.279  1.00  0.00     0.141 HD
ENDBRANCH  27  28
ENDBRANCH  26  27
ENDBRANCH  22  25
ENDBRANCH   7  21
TORSDOF 5
ENDMDL
MODEL 2
REMARK VINA RESULT:      -7.4      5.178      6.030
REMARK  5 active torsions:
REMARK  status: ('A' for Active; 'I' for Inactive)
REMARK    1  A    between atoms: C6_7  and  N2_8 
REMARK       I    between atoms: N2_8  and  C7_9 
REMARK    2  A    between atoms: C7_9  and  C8_11 
REMARK    3  A    between atoms: C9_12  and  C10_13 
REMARK    4  A    between atoms: C10_13  and  N3_14 
REMARK    5  A    between atoms: N4_18  and  C13_19 
ROOT
HETATM    1  N1  UNL     1      23.439   8.025  50.515  1.00  0.00    -0.191 NA
HETATM    2  C1  UNL     1      24.128   7.101  50.285  1.00  0.00     0.103 C 
HETATM    3  C2  UNL     1      24.964   5.970  50.031  1.00  0.00     0.089 C 
HETATM    4  C3  UNL     1      26.070   6.005  49.319  1.00  0.00     0.065 C 
HETATM    5  C4  UNL     1      26.906   4.803  49.103  1.00  0.00    -0.008 C 
HETATM    6  C5  UNL     1      28.126   4.758  48.617  1.00  0.00     0.040 C 
HETATM    7  C6  UNL     1      28.994   5.840  48.163  1.00  0.00     0.034 C 
HETATM    8  C11 UNL     1      28.673   7.101  48.244  1.00  0.00     0.023 C 
HETATM    9  C12 UNL     1      27.576   7.984  48.698  1.00  0.00     0.159 C 
HETATM   10  N4  UNL     1      26.306   7.293  48.771  1.00  0.00    -0.342 N 
HETATM   11  C19 UNL     1      26.423   3.457  49.484  1.00  0.00     0.189 C 
HETATM   12  N5  UNL     1      25.210   3.565  50.257  1.00  0.00    -0.295 NA
HETATM   13  C20 UNL     1      24.562   4.649  50.501  1.00  0.00     0.135 C 
ENDROOT
BRANCH  10  14
HETATM   14  C13 UNL     1      25.136   7.941  48.197  1.00  0.00     0.036 A 
HETATM   15  C14 UNL     1      25.062   9.337  48.398  1.00  0.00     0.030 A 
HETATM   16  C15 UNL     1      24.048  10.087  47.835  1.00  0.00     0.004 A 
HETATM   17  C16 UNL     1      23.088   9.466  47.062  1.00  0.00     0.019 A 
HETATM   18  C17 UNL     1      23.162   8.112  46.869  1.00  0.00     0.013 A 
HETATM   19 BR1  UNL     1      21.898   7.133  45.822  1.00  0.00    -0.051 Br
HETATM   20  C18 UNL     1      24.148   7.317  47.405  1.00  0.00     0.048 A 
ENDBRANCH  10  14
BRANCH   7  21
HETATM   21  N2  UNL     1      30.211   5.364  47.631  1.00  0.00    -0.317 N 
HETATM   22  C7  UNL     1      31.481   5.119  48.156  1.00  0.00     0.301 C 
HETATM   23  O1  UNL     1      31.645   5.355  49.371  1.00  0.00    -0.258 OA
HETATM   24  H2  UNL     1      30.255   5.111  46.600  1.00  0.00     0.170 HD
BRANCH  22  25
HETATM   25  C8  UNL     1      32.627   4.625  47.461  1.00  0.00    -0.004 C 
HETATM   26  C9  UNL     1      33.582   4.214  46.858  1.00  0.00    -0.081 C 
BRANCH  26  27
HETATM   27  C10 UNL     1      34.725   3.713  46.117  1.00  0.00     0.199 C 
BRANCH  27  28
HETATM   28  N3  UNL     1      35.110   4.606  45.022  1.00  0.00    -0.226 NA
HETATM   29 CL1  UNL     1      33.747   4.637  43.923  1.00  0.00    -0.024 Cl
HETATM   30  H5  UNL     1      35.175   5.570  45.454  1.00  0.00     0.141 HD
ENDBRANCH  27  28
ENDBRANCH  26  27
ENDBRANCH  22  25
ENDBRANCH   7  21
TORSDOF 5
ENDMDL
MODEL 3
REMARK VINA RESULT:      -7.2      4.052      6.207
REMARK  5 active torsions:
REMARK  status: ('A' for Active; 'I' for Inactive)
REMARK    1  A    between atoms: C6_7  and  N2_8 
REMARK       I    between atoms: N2_8  and  C7_9 
REMARK    2  A    between atoms: C7_9  and  C8_11 
REMARK    3  A    between atoms: C9_12  and  C10_13 
REMARK    4  A    between atoms: C10_13  and  N3_14 
REMARK    5  A    between atoms: N4_18  and  C13_19 
ROOT
HETATM    1  N1  UNL     1      26.783   4.770  48.958  1.00  0.00    -0.191 NA
HETATM    2  C1  UNL     1      26.384   3.991  49.742  1.00  0.00     0.103 C 
HETATM    3  C2  UNL     1      25.921   3.029  50.692  1.00  0.00     0.089 C 
HETATM    4  C3  UNL     1      24.672   2.631  50.802  1.00  0.00     0.065 C 
HETATM    5  C4  UNL     1      24.252   1.617  51.795  1.00  0.00    -0.008 C 
HETATM    6  C5  UNL     1      23.104   0.981  51.847  1.00  0.00     0.040 C 
HETATM    7  C6  UNL     1      21.938   1.077  50.973  1.00  0.00     0.034 C 
HETATM    8  C11 UNL     1      21.903   1.820  49.903  1.00  0.00     0.023 C 
HETATM    9  C12 UNL     1      22.742   2.754  49.119  1.00  0.00     0.159 C 
HETATM   10  N4  UNL     1      23.815   3.323  49.907  1.00  0.00    -0.342 N 
HETATM   11  C19 UNL     1      25.172   1.166  52.863  1.00  0.00     0.189 C 
HETATM   12  N5  UNL     1      26.501   1.671  52.619  1.00  0.00    -0.295 NA
HETATM   13  C20 UNL     1      26.843   2.482  51.682  1.00  0.00     0.135 C 
ENDROOT
BRANCH  10  14
HETATM   14  C13 UNL     1      24.042   4.759  49.824  1.00  0.00     0.036 A 
HETATM   15  C14 UNL     1      24.235   5.411  51.061  1.00  0.00     0.030 A 
HETATM   16  C15 UNL     1      24.543   6.756  51.121  1.00  0.00     0.004 A 
HETATM   17  C16 UNL     1      24.665   7.480  49.952  1.00  0.00     0.019 A 
HETATM   18  C17 UNL     1      24.479   6.845  48.753  1.00  0.00     0.013 A 
HETATM   19 BR1  UNL     1      24.620   7.732  47.066  1.00  0.00    -0.051 Br
HETATM   20  C18 UNL     1      24.170   5.510  48.636  1.00  0.00     0.048 A 
ENDBRANCH  10  14
BRANCH   7  21
HETATM   21  N2  UNL     1      20.864   0.279  51.421  1.00  0.00    -0.317 N 
HETATM   22  C7  UNL     1      19.586   0.544  51.914  1.00  0.00     0.301 C 
HETATM   23  O1  UNL     1      19.253   1.744  52.003  1.00  0.00    -0.258 OA
HETATM   24  H2  UNL     1      20.974  -0.777  51.414  1.00  0.00     0.170 HD
BRANCH  22  25
HETATM   25  C8  UNL     1      18.602  -0.404  52.331  1.00  0.00    -0.004 C 
HETATM   26  C9  UNL     1      17.788  -1.219  52.677  1.00  0.00    -0.081 C 
BRANCH  26  27
HETATM   27  C10 UNL     1      16.811  -2.212  53.082  1.00  0.00     0.199 C 
BRANCH  27  28
HETATM   28  N3  UNL     1      17.417  -3.304  53.848  1.00  0.00    -0.226 NA
HETATM   29 CL1  UNL     1      16.616  -4.767  53.318  1.00  0.00    -0.024 Cl
HETATM   30  H5  UNL     1      18.418  -3.364  53.508  1.00  0.00     0.141 HD
ENDBRANCH  27  28
ENDBRANCH  26  27
ENDBRANCH  22  25
ENDBRANCH   7  21
TORSDOF 5
ENDMDL
MODEL 4
REMARK VINA RESULT:      -7.1      5.175      7.100
REMARK  5 active torsions:
REMARK  status: ('A' for Active; 'I' for Inactive)
REMARK    1  A    between atoms: C6_7  and  N2_8 
REMARK       I    between atoms: N2_8  and  C7_9 
REMARK    2  A    between atoms: C7_9  and  C8_11 
REMARK    3  A    between atoms: C9_12  and  C10_13 
REMARK    4  A    between atoms: C10_13  and  N3_14 
REMARK    5  A    between atoms: N4_18  and  C13_19 
ROOT
HETATM    1  N1  UNL     1      31.702   9.342  48.141  1.00  0.00    -0.191 NA
HETATM    2  C1  UNL     1      30.576   9.229  48.458  1.00  0.00     0.103 C 
HETATM    3  C2  UNL     1      29.212   9.104  48.865  1.00  0.00     0.089 C 
HETATM    4  C3  UNL     1      28.477   8.027  48.691  1.00  0.00     0.065 C 
HETATM    5  C4  UNL     1      27.071   7.949  49.150  1.00  0.00    -0.008 C 
HETATM    6  C5  UNL     1      26.322   6.874  49.240  1.00  0.00     0.040 C 
HETATM    7  C6  UNL     1      26.636   5.484  48.929  1.00  0.00     0.034 C 
HETATM    8  C11 UNL     1      27.817   5.082  48.549  1.00  0.00     0.023 C 
HETATM    9  C12 UNL     1      29.175   5.597  48.271  1.00  0.00     0.159 C 
HETATM   10  N4  UNL     1      29.179   7.016  47.984  1.00  0.00    -0.342 N 
HETATM   11  C19 UNL     1      26.354   9.155  49.623  1.00  0.00     0.189 C 
HETATM   12  N5  UNL     1      27.275  10.255  49.770  1.00  0.00    -0.295 NA
HETATM   13  C20 UNL     1      28.518  10.250  49.444  1.00  0.00     0.135 C 
ENDROOT
BRANCH  10  14
HETATM   14  C13 UNL     1      29.940   7.484  46.835  1.00  0.00     0.036 A 
HETATM   15  C14 UNL     1      31.185   6.849  46.638  1.00  0.00     0.030 A 
HETATM   16  C15 UNL     1      31.970   7.138  45.539  1.00  0.00     0.004 A 
HETATM   17  C16 UNL     1      31.534   8.064  44.614  1.00  0.00     0.019 A 
HETATM   18  C17 UNL     1      30.325   8.680  44.807  1.00  0.00     0.013 A 
HETATM   19 BR1  UNL     1      29.608   9.978  43.603  1.00  0.00    -0.051 Br
HETATM   20  C18 UNL     1      29.504   8.430  45.882  1.00  0.00     0.048 A 
ENDBRANCH  10  14
BRANCH   7  21
HETATM   21  N2  UNL     1      25.521   4.633  49.086  1.00  0.00    -0.317 N 
HETATM   22  C7  UNL     1      25.180   3.621  49.984  1.00  0.00     0.301 C 
HETATM   23  O1  UNL     1      26.009   3.358  50.880  1.00  0.00    -0.258 OA
HETATM   24  H2  UNL     1      24.711   4.720  48.404  1.00  0.00     0.170 HD
BRANCH  22  25
HETATM   25  C8  UNL     1      23.982   2.843  50.001  1.00  0.00    -0.004 C 
HETATM   26  C9  UNL     1      22.983   2.174  50.028  1.00  0.00    -0.081 C 
BRANCH  26  27
HETATM   27  C10 UNL     1      21.788   1.353  50.063  1.00  0.00     0.199 C 
BRANCH  27  28
HETATM   28  N3  UNL     1      21.164   1.339  51.388  1.00  0.00    -0.226 NA
HETATM   29 CL1  UNL     1      21.636  -0.176  52.127  1.00  0.00    -0.024 Cl
HETATM   30  H5  UNL     1      21.645   2.108  51.934  1.00  0.00     0.141 HD
ENDBRANCH  27  28
ENDBRANCH  26  27
ENDBRANCH  22  25
ENDBRANCH   7  21
TORSDOF 5
ENDMDL
MODEL 5
REMARK VINA RESULT:      -7.0      2.137      2.504
REMARK  5 active torsions:
REMARK  status: ('A' for Active; 'I' for Inactive)
REMARK    1  A    between atoms: C6_7  and  N2_8 
REMARK       I    between atoms: N2_8  and  C7_9 
REMARK    2  A    between atoms: C7_9  and  C8_11 
REMARK    3  A    between atoms: C9_12  and  C10_13 
REMARK    4  A    between atoms: C10_13  and  N3_14 
REMARK    5  A    between atoms: N4_18  and  C13_19 
ROOT
HETATM    1  N1  UNL     1      19.604   6.606  48.585  1.00  0.00    -0.191 NA
HETATM    2  C1  UNL     1      20.199   5.602  48.723  1.00  0.00     0.103 C 
HETATM    3  C2  UNL     1      20.900   4.369  48.893  1.00  0.00     0.089 C 
HETATM    4  C3  UNL     1      21.994   4.226  49.610  1.00  0.00     0.065 C 
HETATM    5  C4  UNL     1      22.669   2.918  49.765  1.00  0.00    -0.008 C 
HETATM    6  C5  UNL     1      23.614   2.606  50.622  1.00  0.00     0.040 C 
HETATM    7  C6  UNL     1      24.259   3.424  51.644  1.00  0.00     0.034 C 
HETATM    8  C11 UNL     1      23.912   4.653  51.906  1.00  0.00     0.023 C 
HETATM    9  C12 UNL     1      22.951   5.694  51.480  1.00  0.00     0.159 C 
HETATM   10  N4  UNL     1      22.442   5.462  50.145  1.00  0.00    -0.342 N 
HETATM   11  C19 UNL     1      22.277   1.752  48.940  1.00  0.00     0.189 C 
HETATM   12  N5  UNL     1      21.068   2.045  48.210  1.00  0.00    -0.295 NA
HETATM   13  C20 UNL     1      20.458   3.177  48.177  1.00  0.00     0.135 C 
ENDROOT
BRANCH  10  14
HETATM   14  C13 UNL     1      22.407   6.582  49.217  1.00  0.00     0.036 A 
HETATM   15  C14 UNL     1      22.058   7.826  49.787  1.00  0.00     0.030 A 
HETATM   16  C15 UNL     1      22.069   8.985  49.036  1.00  0.00     0.004 A 
HETATM   17  C16 UNL     1      22.426   8.932  47.704  1.00  0.00     0.019 A 
HETATM   18  C17 UNL     1      22.765   7.724  47.153  1.00  0.00     0.013 A 
HETATM   19 BR1  UNL     1      23.278   7.515  45.325  1.00  0.00    -0.051 Br
HETATM   20  C18 UNL     1      22.771   6.541  47.854  1.00  0.00     0.048 A 
ENDBRANCH  10  14
BRANCH   7  21
HETATM   21  N2  UNL     1      25.295   2.733  52.310  1.00  0.00    -0.317 N 
HETATM   22  C7  UNL     1      26.628   2.444  52.012  1.00  0.00     0.301 C 
HETATM   23  O1  UNL     1      27.067   2.864  50.922  1.00  0.00    -0.258 OA
HETATM   24  H2  UNL     1      25.096   2.305  53.260  1.00  0.00     0.170 HD
BRANCH  22  25
HETATM   25  C8  UNL     1      27.558   1.716  52.816  1.00  0.00    -0.004 C 
HETATM   26  C9  UNL     1      28.329   1.108  53.510  1.00  0.00    -0.081 C 
BRANCH  26  27
HETATM   27  C10 UNL     1      29.256   0.385  54.360  1.00  0.00     0.199 C 
BRANCH  27  28
HETATM   28  N3  UNL     1      29.934  -0.699  53.644  1.00  0.00    -0.226 NA
HETATM   29 CL1  UNL     1      28.669  -1.768  53.078  1.00  0.00    -0.024 Cl
HETATM   30  H5  UNL     1      30.358  -0.247  52.786  1.00  0.00     0.141 HD
ENDBRANCH  27  28
ENDBRANCH  26  27
ENDBRANCH  22  25
ENDBRANCH   7  21
TORSDOF 5
ENDMDL
MODEL 6
REMARK VINA RESULT:      -7.0      6.498      8.918
REMARK  5 active torsions:
REMARK  status: ('A' for Active; 'I' for Inactive)
REMARK    1  A    between atoms: C6_7  and  N2_8 
REMARK       I    between atoms: N2_8  and  C7_9 
REMARK    2  A    between atoms: C7_9  and  C8_11 
REMARK    3  A    between atoms: C9_12  and  C10_13 
REMARK    4  A    between atoms: C10_13  and  N3_14 
REMARK    5  A    between atoms: N4_18  and  C13_19 
ROOT
HETATM    1  N1  UNL     1      12.889   0.604  50.451  1.00  0.00    -0.191 NA
HETATM    2  C1  UNL     1      14.007   0.907  50.253  1.00  0.00     0.103 C 
HETATM    3  C2  UNL     1      15.363   1.270  49.986  1.00  0.00     0.089 C 
HETATM    4  C3  UNL     1      16.386   0.946  50.747  1.00  0.00     0.065 C 
HETATM    5  C4  UNL     1      17.774   1.336  50.411  1.00  0.00    -0.008 C 
HETATM    6  C5  UNL     1      18.881   0.887  50.956  1.00  0.00     0.040 C 
HETATM    7  C6  UNL     1      19.072  -0.098  52.016  1.00  0.00     0.034 C 
HETATM    8  C11 UNL     1      18.093  -0.762  52.564  1.00  0.00     0.023 C 
HETATM    9  C12 UNL     1      16.622  -0.910  52.500  1.00  0.00     0.159 C 
HETATM   10  N4  UNL     1      15.977   0.246  51.912  1.00  0.00    -0.342 N 
HETATM   11  C19 UNL     1      18.055   2.301  49.324  1.00  0.00     0.189 C 
HETATM   12  N5  UNL     1      16.853   2.565  48.572  1.00  0.00    -0.295 NA
HETATM   13  C20 UNL     1      15.676   2.127  48.847  1.00  0.00     0.135 C 
ENDROOT
BRANCH  10  14
HETATM   14  C13 UNL     1      14.808   0.796  52.582  1.00  0.00     0.036 A 
HETATM   15  C14 UNL     1      13.933  -0.157  53.147  1.00  0.00     0.030 A 
HETATM   16  C15 UNL     1      12.831   0.231  53.883  1.00  0.00     0.004 A 
HETATM   17  C16 UNL     1      12.575   1.574  54.072  1.00  0.00     0.019 A 
HETATM   18  C17 UNL     1      13.426   2.498  53.523  1.00  0.00     0.013 A 
HETATM   19 BR1  UNL     1      13.184   4.383  53.711  1.00  0.00    -0.051 Br
HETATM   20  C18 UNL     1      14.536   2.167  52.782  1.00  0.00     0.048 A 
ENDBRANCH  10  14
BRANCH   7  21
HETATM   21  N2  UNL     1      20.429  -0.245  52.375  1.00  0.00    -0.317 N 
HETATM   22  C7  UNL     1      21.184   0.079  53.503  1.00  0.00     0.301 C 
HETATM   23  O1  UNL     1      20.580   0.625  54.449  1.00  0.00    -0.258 OA
HETATM   24  H2  UNL     1      21.096  -0.695  51.682  1.00  0.00     0.170 HD
BRANCH  22  25
HETATM   25  C8  UNL     1      22.580  -0.145  53.706  1.00  0.00    -0.004 C 
HETATM   26  C9  UNL     1      23.760  -0.314  53.868  1.00  0.00    -0.081 C 
BRANCH  26  27
HETATM   27  C10 UNL     1      25.186  -0.510  54.048  1.00  0.00     0.199 C 
BRANCH  27  28
HETATM   28  N3  UNL     1      25.826  -1.056  52.849  1.00  0.00    -0.226 NA
HETATM   29 CL1  UNL     1      26.661   0.285  52.095  1.00  0.00    -0.024 Cl
HETATM   30  H5  UNL     1      26.571  -1.719  53.205  1.00  0.00     0.141 HD
ENDBRANCH  27  28
ENDBRANCH  26  27
ENDBRANCH  22  25
ENDBRANCH   7  21
TORSDOF 5
ENDMDL
MODEL 7
REMARK VINA RESULT:      -6.9      2.153      2.887
REMARK  5 active torsions:
REMARK  status: ('A' for Active; 'I' for Inactive)
REMARK    1  A    between atoms: C6_7  and  N2_8 
REMARK       I    between atoms: N2_8  and  C7_9 
REMARK    2  A    between atoms: C7_9  and  C8_11 
REMARK    3  A    between atoms: C9_12  and  C10_13 
REMARK    4  A    between atoms: C10_13  and  N3_14 
REMARK    5  A    between atoms: N4_18  and  C13_19 
ROOT
HETATM    1  N1  UNL     1      23.655  10.331  47.247  1.00  0.00    -0.191 NA
HETATM    2  C1  UNL     1      23.329   9.494  48.006  1.00  0.00     0.103 C 
HETATM    3  C2  UNL     1      22.926   8.496  48.945  1.00  0.00     0.089 C 
HETATM    4  C3  UNL     1      23.588   7.384  49.182  1.00  0.00     0.065 C 
HETATM    5  C4  UNL     1      23.130   6.392  50.181  1.00  0.00    -0.008 C 
HETATM    6  C5  UNL     1      23.810   5.377  50.664  1.00  0.00     0.040 C 
HETATM    7  C6  UNL     1      25.171   4.938  50.375  1.00  0.00     0.034 C 
HETATM    8  C11 UNL     1      25.981   5.583  49.582  1.00  0.00     0.023 C 
HETATM    9  C12 UNL     1      26.039   6.789  48.728  1.00  0.00     0.159 C 
HETATM   10  N4  UNL     1      24.724   7.256  48.342  1.00  0.00    -0.342 N 
HETATM   11  C19 UNL     1      21.789   6.492  50.799  1.00  0.00     0.189 C 
HETATM   12  N5  UNL     1      21.179   7.754  50.459  1.00  0.00    -0.295 NA
HETATM   13  C20 UNL     1      21.658   8.635  49.654  1.00  0.00     0.135 C 
ENDROOT
BRANCH  10  14
HETATM   14  C13 UNL     1      24.499   7.601  46.946  1.00  0.00     0.036 A 
HETATM   15  C14 UNL     1      25.575   8.253  46.305  1.00  0.00     0.030 A 
HETATM   16  C15 UNL     1      25.526   8.561  44.959  1.00  0.00     0.004 A 
HETATM   17  C16 UNL     1      24.407   8.227  44.224  1.00  0.00     0.019 A 
HETATM   18  C17 UNL     1      23.364   7.594  44.847  1.00  0.00     0.013 A 
HETATM   19 BR1  UNL     1      21.762   7.079  43.943  1.00  0.00    -0.051 Br
HETATM   20  C18 UNL     1      23.360   7.265  46.183  1.00  0.00     0.048 A 
ENDBRANCH  10  14
BRANCH   7  21
HETATM   21  N2  UNL     1      25.504   3.743  51.048  1.00  0.00    -0.317 N 
HETATM   22  C7  UNL     1      26.310   2.643  50.750  1.00  0.00     0.301 C 
HETATM   23  O1  UNL     1      26.901   2.657  49.650  1.00  0.00    -0.258 OA
HETATM   24  H2  UNL     1      25.087   3.563  52.008  1.00  0.00     0.170 HD
BRANCH  22  25
HETATM   25  C8  UNL     1      26.542   1.492  51.563  1.00  0.00    -0.004 C 
HETATM   26  C9  UNL     1      26.759   0.525  52.246  1.00  0.00    -0.081 C 
BRANCH  26  27
HETATM   27  C10 UNL     1      27.034  -0.643  53.060  1.00  0.00     0.199 C 
BRANCH  27  28
HETATM   28  N3  UNL     1      27.793  -0.311  54.268  1.00  0.00    -0.226 NA
HETATM   29 CL1  UNL     1      29.419   0.051  53.731  1.00  0.00    -0.024 Cl
HETATM   30  H5  UNL     1      27.378   0.598  54.619  1.00  0.00     0.141 HD
ENDBRANCH  27  28
ENDBRANCH  26  27
ENDBRANCH  22  25
ENDBRANCH   7  21
TORSDOF 5
ENDMDL
MODEL 8
REMARK VINA RESULT:      -6.9      4.803      7.458
REMARK  5 active torsions:
REMARK  status: ('A' for Active; 'I' for Inactive)
REMARK    1  A    between atoms: C6_7  and  N2_8 
REMARK       I    between atoms: N2_8  and  C7_9 
REMARK    2  A    between atoms: C7_9  and  C8_11 
REMARK    3  A    between atoms: C9_12  and  C10_13 
REMARK    4  A    between atoms: C10_13  and  N3_14 
REMARK    5  A    between atoms: N4_18  and  C13_19 
ROOT
HETATM    1  N1  UNL     1      21.916   1.265  48.637  1.00  0.00    -0.191 NA
HETATM    2  C1  UNL     1      22.215   2.375  48.394  1.00  0.00     0.103 C 
HETATM    3  C2  UNL     1      22.573   3.721  48.072  1.00  0.00     0.089 C 
HETATM    4  C3  UNL     1      23.590   4.368  48.598  1.00  0.00     0.065 C 
HETATM    5  C4  UNL     1      23.924   5.758  48.214  1.00  0.00    -0.008 C 
HETATM    6  C5  UNL     1      25.026   6.417  48.490  1.00  0.00     0.040 C 
HETATM    7  C6  UNL     1      26.211   5.994  49.229  1.00  0.00     0.034 C 
HETATM    8  C11 UNL     1      26.373   4.788  49.698  1.00  0.00     0.023 C 
HETATM    9  C12 UNL     1      25.689   3.479  49.771  1.00  0.00     0.159 C 
HETATM   10  N4  UNL     1      24.258   3.593  49.582  1.00  0.00    -0.342 N 
HETATM   11  C19 UNL     1      22.999   6.566  47.388  1.00  0.00     0.189 C 
HETATM   12  N5  UNL     1      21.936   5.735  46.877  1.00  0.00    -0.295 NA
HETATM   13  C20 UNL     1      21.735   4.499  47.165  1.00  0.00     0.135 C 
ENDROOT
BRANCH  10  14
HETATM   14  C13 UNL     1      23.384   2.883  50.504  1.00  0.00     0.036 A 
HETATM   15  C14 UNL     1      23.937   1.721  51.085  1.00  0.00     0.030 A 
HETATM   16  C15 UNL     1      23.247   1.001  52.040  1.00  0.00     0.004 A 
HETATM   17  C16 UNL     1      21.993   1.420  52.436  1.00  0.00     0.019 A 
HETATM   18  C17 UNL     1      21.458   2.548  51.872  1.00  0.00     0.013 A 
HETATM   19 BR1  UNL     1      19.735   3.232  52.332  1.00  0.00    -0.051 Br
HETATM   20  C18 UNL     1      22.100   3.302  50.918  1.00  0.00     0.048 A 
ENDBRANCH  10  14
BRANCH   7  21
HETATM   21  N2  UNL     1      27.152   7.036  49.376  1.00  0.00    -0.317 N 
HETATM   22  C7  UNL     1      28.165   7.561  48.571  1.00  0.00     0.301 C 
HETATM   23  O1  UNL     1      28.327   7.034  47.451  1.00  0.00    -0.258 OA
HETATM   24  H2  UNL     1      27.158   7.597  50.277  1.00  0.00     0.170 HD
BRANCH  22  25
HETATM   25  C8  UNL     1      29.045   8.643  48.879  1.00  0.00    -0.004 C 
HETATM   26  C9  UNL     1      29.770   9.566  49.141  1.00  0.00    -0.081 C 
BRANCH  26  27
HETATM   27  C10 UNL     1      30.633  10.691  49.449  1.00  0.00     0.199 C 
BRANCH  27  28
HETATM   28  N3  UNL     1      29.934  11.973  49.332  1.00  0.00    -0.226 NA
HETATM   29 CL1  UNL     1      29.411  12.086  47.665  1.00  0.00    -0.024 Cl
HETATM   30  H5  UNL     1      29.061  11.873  49.920  1.00  0.00     0.141 HD
ENDBRANCH  27  28
ENDBRANCH  26  27
ENDBRANCH  22  25
ENDBRANCH   7  21
TORSDOF 5
ENDMDL
MODEL 9
REMARK VINA RESULT:      -6.8      5.449      8.120
REMARK  5 active torsions:
REMARK  status: ('A' for Active; 'I' for Inactive)
REMARK    1  A    between atoms: C6_7  and  N2_8 
REMARK       I    between atoms: N2_8  and  C7_9 
REMARK    2  A    between atoms: C7_9  and  C8_11 
REMARK    3  A    between atoms: C9_12  and  C10_13 
REMARK    4  A    between atoms: C10_13  and  N3_14 
REMARK    5  A    between atoms: N4_18  and  C13_19 
ROOT
HETATM    1  N1  UNL     1      23.783   4.795  53.449  1.00  0.00    -0.191 NA
HETATM    2  C1  UNL     1      22.930   4.751  52.642  1.00  0.00     0.103 C 
HETATM    3  C2  UNL     1      21.881   4.719  51.672  1.00  0.00     0.089 C 
HETATM    4  C3  UNL     1      21.309   3.620  51.228  1.00  0.00     0.065 C 
HETATM    5  C4  UNL     1      20.214   3.648  50.233  1.00  0.00    -0.008 C 
HETATM    6  C5  UNL     1      19.422   2.657  49.892  1.00  0.00     0.040 C 
HETATM    7  C6  UNL     1      19.384   1.280  50.373  1.00  0.00     0.034 C 
HETATM    8  C11 UNL     1      20.150   0.831  51.328  1.00  0.00     0.023 C 
HETATM    9  C12 UNL     1      21.218   1.272  52.253  1.00  0.00     0.159 C 
HETATM   10  N4  UNL     1      21.905   2.455  51.777  1.00  0.00    -0.342 N 
HETATM   11  C19 UNL     1      19.860   4.897  49.520  1.00  0.00     0.189 C 
HETATM   12  N5  UNL     1      20.554   6.017  50.107  1.00  0.00    -0.295 NA
HETATM   13  C20 UNL     1      21.437   5.957  51.041  1.00  0.00     0.135 C 
ENDROOT
BRANCH  10  14
HETATM   14  C13 UNL     1      23.360   2.467  51.817  1.00  0.00     0.036 A 
HETATM   15  C14 UNL     1      23.937   1.838  52.941  1.00  0.00     0.030 A 
HETATM   16  C15 UNL     1      25.307   1.705  53.062  1.00  0.00     0.004 A 
HETATM   17  C16 UNL     1      26.130   2.196  52.068  1.00  0.00     0.019 A 
HETATM   18  C17 UNL     1      25.567   2.805  50.978  1.00  0.00     0.013 A 
HETATM   19 BR1  UNL     1      26.593   3.524  49.535  1.00  0.00    -0.051 Br
HETATM   20  C18 UNL     1      24.212   2.965  50.807  1.00  0.00     0.048 A 
ENDBRANCH  10  14
BRANCH   7  21
HETATM   21  N2  UNL     1      18.429   0.499  49.689  1.00  0.00    -0.317 N 
HETATM   22  C7  UNL     1      17.172  -0.016  50.012  1.00  0.00     0.301 C 
HETATM   23  O1  UNL     1      16.735   0.236  51.153  1.00  0.00    -0.258 OA
HETATM   24  H2  UNL     1      18.637   0.190  48.695  1.00  0.00     0.170 HD
BRANCH  22  25
HETATM   25  C8  UNL     1      16.318  -0.805  49.182  1.00  0.00    -0.004 C 
HETATM   26  C9  UNL     1      15.583  -1.463  48.494  1.00  0.00    -0.081 C 
BRANCH  26  27
HETATM   27  C10 UNL     1      14.685  -2.259  47.678  1.00  0.00     0.199 C 
BRANCH  27  28
HETATM   28  N3  UNL     1      15.400  -3.260  46.884  1.00  0.00    -0.226 NA
HETATM   29 CL1  UNL     1      14.440  -3.508  45.442  1.00  0.00    -0.024 Cl
HETATM   30  H5  UNL     1      16.297  -2.788  46.576  1.00  0.00     0.141 HD
ENDBRANCH  27  28
ENDBRANCH  26  27
ENDBRANCH  22  25
ENDBRANCH   7  21
TORSDOF 5
ENDMDL
