MODEL 1
REMARK VINA RESULT:      -7.9      0.000      0.000
REMARK  4 active torsions:
REMARK  status: ('A' for Active; 'I' for Inactive)
REMARK    1  A    between atoms: O1_1  and  C1_2 
REMARK    2  A    between atoms: C2_4  and  N2_5 
REMARK    3  A    between atoms: C3_7  and  C4_8 
REMARK    4  A    between atoms: C11_16  and  C12_17 
ROOT
HETATM    1  N2  UNL     1      21.811   2.216  50.457  1.00  0.00    -0.237 N 
HETATM    2  N3  UNL     1      23.045   1.563  50.539  1.00  0.00    -0.173 NA
HETATM    3  C3  UNL     1      23.551   1.606  51.714  1.00  0.00     0.067 C 
HETATM    4  C10 UNL     1      22.593   2.370  52.590  1.00  0.00     0.094 C 
HETATM    5  C11 UNL     1      21.297   2.392  51.816  1.00  0.00     0.151 C 
ENDROOT
BRANCH   3   6
HETATM    6  C4  UNL     1      24.818   1.036  52.171  1.00  0.00    -0.010 A 
HETATM    7  C5  UNL     1      24.827  -0.050  53.046  1.00  0.00     0.015 A 
HETATM    8  C6  UNL     1      26.081  -0.531  53.432  1.00  0.00     0.020 A 
HETATM    9  C7  UNL     1      27.302  -0.010  53.010  1.00  0.00     0.011 A 
HETATM   10 BR1  UNL     1      28.946  -0.732  53.590  1.00  0.00    -0.051 Br
HETATM   11  C8  UNL     1      27.178   1.059  52.148  1.00  0.00     0.020 A 
HETATM   12  C9  UNL     1      25.992   1.606  51.709  1.00  0.00     0.015 A 
ENDBRANCH   3   6
BRANCH   1  13
HETATM   13  C2  UNL     1      21.173   2.637  49.231  1.00  0.00     0.188 A 
HETATM   14  N1  UNL     1      21.074   2.076  48.173  1.00  0.00    -0.223 NA
HETATM   15  C1  UNL     1      20.356   3.057  47.500  1.00  0.00     0.316 A 
HETATM   16  S1  UNL     1      20.350   4.097  48.931  1.00  0.00    -0.036 SA
BRANCH  15  17
HETATM   17  O1  UNL     1      19.053   2.645  47.076  1.00  0.00    -0.365 OA
HETATM   18  H1  UNL     1      19.190   1.880  46.454  1.00  0.00     0.213 HD
ENDBRANCH  15  17
ENDBRANCH   1  13
BRANCH   5  19
HETATM   19  C12 UNL     1      20.481   1.240  52.269  1.00  0.00    -0.033 A 
HETATM   20  C13 UNL     1      19.359   0.843  51.571  1.00  0.00     0.011 A 
HETATM   21  C14 UNL     1      18.565  -0.234  51.964  1.00  0.00     0.019 A 
HETATM   22  C15 UNL     1      18.946  -0.922  53.118  1.00  0.00     0.011 A 
HETATM   23 BR2  UNL     1      17.801  -2.384  53.582  1.00  0.00    -0.051 Br
HETATM   24  C16 UNL     1      20.055  -0.553  53.836  1.00  0.00     0.019 A 
HETATM   25  C17 UNL     1      20.820   0.518  53.420  1.00  0.00     0.011 A 
ENDBRANCH   5  19
TORSDOF 4
ENDMDL
MODEL 2
REMARK VINA RESULT:      -7.9      3.664      6.225
REMARK  4 active torsions:
REMARK  status: ('A' for Active; 'I' for Inactive)
REMARK    1  A    between atoms: O1_1  and  C1_2 
REMARK    2  A    between atoms: C2_4  and  N2_5 
REMARK    3  A    between atoms: C3_7  and  C4_8 
REMARK    4  A    between atoms: C11_16  and  C12_17 
ROOT
HETATM    1  N2  UNL     1      23.648   1.919  51.643  1.00  0.00    -0.237 N 
HETATM    2  N3  UNL     1      24.176   2.629  50.560  1.00  0.00    -0.173 NA
HETATM    3  C3  UNL     1      24.990   3.549  50.920  1.00  0.00     0.067 C 
HETATM    4  C10 UNL     1      25.071   3.516  52.424  1.00  0.00     0.094 C 
HETATM    5  C11 UNL     1      24.490   2.177  52.812  1.00  0.00     0.151 C 
ENDROOT
BRANCH   3   6
HETATM    6  C4  UNL     1      25.727   4.483  50.071  1.00  0.00    -0.010 A 
HETATM    7  C5  UNL     1      26.861   4.060  49.376  1.00  0.00     0.015 A 
HETATM    8  C6  UNL     1      27.504   5.018  48.588  1.00  0.00     0.020 A 
HETATM    9  C7  UNL     1      27.099   6.343  48.450  1.00  0.00     0.011 A 
HETATM   10 BR1  UNL     1      28.039   7.562  47.358  1.00  0.00    -0.051 Br
HETATM   11  C8  UNL     1      25.971   6.655  49.178  1.00  0.00     0.020 A 
HETATM   12  C9  UNL     1      25.266   5.786  49.982  1.00  0.00     0.015 A 
ENDBRANCH   3   6
BRANCH   1  13
HETATM   13  C2  UNL     1      22.472   1.082  51.595  1.00  0.00     0.188 A 
HETATM   14  N1  UNL     1      21.969   0.396  52.445  1.00  0.00    -0.223 NA
HETATM   15  C1  UNL     1      20.907  -0.093  51.695  1.00  0.00     0.316 A 
HETATM   16  S1  UNL     1      21.428   0.823  50.274  1.00  0.00    -0.036 SA
BRANCH  15  17
HETATM   17  O1  UNL     1      19.616   0.284  52.187  1.00  0.00    -0.365 OA
HETATM   18  H1  UNL     1      19.673   0.244  53.180  1.00  0.00     0.213 HD
ENDBRANCH  15  17
ENDBRANCH   1  13
BRANCH   5  19
HETATM   19  C12 UNL     1      25.612   1.215  52.929  1.00  0.00    -0.033 A 
HETATM   20  C13 UNL     1      26.851   1.616  53.382  1.00  0.00     0.011 A 
HETATM   21  C14 UNL     1      27.930   0.742  53.506  1.00  0.00     0.019 A 
HETATM   22  C15 UNL     1      27.719  -0.590  53.147  1.00  0.00     0.011 A 
HETATM   23 BR2  UNL     1      29.254  -1.717  53.349  1.00  0.00    -0.051 Br
HETATM   24  C16 UNL     1      26.500  -1.022  52.692  1.00  0.00     0.019 A 
HETATM   25  C17 UNL     1      25.451  -0.132  52.582  1.00  0.00     0.011 A 
ENDBRANCH   5  19
TORSDOF 4
ENDMDL
MODEL 3
REMARK VINA RESULT:      -7.9      3.956      5.696
REMARK  4 active torsions:
REMARK  status: ('A' for Active; 'I' for Inactive)
REMARK    1  A    between atoms: O1_1  and  C1_2 
REMARK    2  A    between atoms: C2_4  and  N2_5 
REMARK    3  A    between atoms: C3_7  and  C4_8 
REMARK    4  A    between atoms: C11_16  and  C12_17 
ROOT
HETATM    1  N2  UNL     1      23.081   3.384  49.835  1.00  0.00    -0.237 N 
HETATM    2  N3  UNL     1      24.047   3.897  48.961  1.00  0.00    -0.173 NA
HETATM    3  C3  UNL     1      24.910   4.633  49.553  1.00  0.00     0.067 C 
HETATM    4  C10 UNL     1      24.545   4.670  51.015  1.00  0.00     0.094 C 
HETATM    5  C11 UNL     1      23.587   3.517  51.202  1.00  0.00     0.151 C 
ENDROOT
BRANCH   3   6
HETATM    6  C4  UNL     1      26.053   5.330  48.968  1.00  0.00    -0.010 A 
HETATM    7  C5  UNL     1      25.911   6.628  48.475  1.00  0.00     0.015 A 
HETATM    8  C6  UNL     1      27.055   7.219  47.933  1.00  0.00     0.020 A 
HETATM    9  C7  UNL     1      28.306   6.614  47.851  1.00  0.00     0.011 A 
HETATM   10 BR1  UNL     1      29.793   7.499  47.099  1.00  0.00    -0.051 Br
HETATM   11  C8  UNL     1      28.336   5.335  48.366  1.00  0.00     0.020 A 
HETATM   12  C9  UNL     1      27.267   4.666  48.920  1.00  0.00     0.015 A 
ENDBRANCH   3   6
BRANCH   1  13
HETATM   13  C2  UNL     1      21.810   2.826  49.435  1.00  0.00     0.188 A 
HETATM   14  N1  UNL     1      20.721   3.331  49.384  1.00  0.00    -0.223 NA
HETATM   15  C1  UNL     1      20.016   2.225  48.925  1.00  0.00     0.316 A 
HETATM   16  S1  UNL     1      21.487   1.242  48.902  1.00  0.00    -0.036 SA
BRANCH  15  17
HETATM   17  O1  UNL     1      19.417   2.403  47.637  1.00  0.00    -0.365 OA
HETATM   18  H1  UNL     1      18.941   3.276  47.668  1.00  0.00     0.213 HD
ENDBRANCH  15  17
ENDBRANCH   1  13
BRANCH   5  19
HETATM   19  C12 UNL     1      24.377   2.339  51.633  1.00  0.00    -0.033 A 
HETATM   20  C13 UNL     1      25.738   2.273  51.413  1.00  0.00     0.011 A 
HETATM   21  C14 UNL     1      26.515   1.183  51.803  1.00  0.00     0.019 A 
HETATM   22  C15 UNL     1      25.862   0.127  52.440  1.00  0.00     0.011 A 
HETATM   23 BR2  UNL     1      27.006  -1.325  52.939  1.00  0.00    -0.051 Br
HETATM   24  C16 UNL     1      24.511   0.159  52.673  1.00  0.00     0.019 A 
HETATM   25  C17 UNL     1      23.769   1.253  52.276  1.00  0.00     0.011 A 
ENDBRANCH   5  19
TORSDOF 4
ENDMDL
MODEL 4
REMARK VINA RESULT:      -7.6      2.656      6.457
REMARK  4 active torsions:
REMARK  status: ('A' for Active; 'I' for Inactive)
REMARK    1  A    between atoms: O1_1  and  C1_2 
REMARK    2  A    between atoms: C2_4  and  N2_5 
REMARK    3  A    between atoms: C3_7  and  C4_8 
REMARK    4  A    between atoms: C11_16  and  C12_17 
ROOT
HETATM    1  N2  UNL     1      23.218   3.601  51.164  1.00  0.00    -0.237 N 
HETATM    2  N3  UNL     1      22.099   3.053  51.799  1.00  0.00    -0.173 NA
HETATM    3  C3  UNL     1      21.853   1.855  51.423  1.00  0.00     0.067 C 
HETATM    4  C10 UNL     1      22.897   1.478  50.405  1.00  0.00     0.094 C 
HETATM    5  C11 UNL     1      23.991   2.505  50.577  1.00  0.00     0.151 C 
ENDROOT
BRANCH   3   6
HETATM    6  C4  UNL     1      20.773   0.974  51.867  1.00  0.00    -0.010 A 
HETATM    7  C5  UNL     1      19.612   0.843  51.104  1.00  0.00     0.015 A 
HETATM    8  C6  UNL     1      18.632  -0.020  51.602  1.00  0.00     0.020 A 
HETATM    9  C7  UNL     1      18.732  -0.745  52.787  1.00  0.00     0.011 A 
HETATM   10 BR1  UNL     1      17.349  -1.887  53.375  1.00  0.00    -0.051 Br
HETATM   11  C8  UNL     1      19.917  -0.543  53.460  1.00  0.00     0.020 A 
HETATM   12  C9  UNL     1      20.943   0.283  53.055  1.00  0.00     0.015 A 
ENDBRANCH   3   6
BRANCH   1  13
HETATM   13  C2  UNL     1      23.537   5.008  51.109  1.00  0.00     0.188 A 
HETATM   14  N1  UNL     1      23.815   5.778  51.989  1.00  0.00    -0.223 NA
HETATM   15  C1  UNL     1      23.989   6.913  51.206  1.00  0.00     0.316 A 
HETATM   16  S1  UNL     1      23.614   6.008  49.733  1.00  0.00    -0.036 SA
BRANCH  15  17
HETATM   17  O1  UNL     1      25.315   7.451  51.236  1.00  0.00    -0.365 OA
HETATM   18  H1  UNL     1      25.920   6.721  50.931  1.00  0.00     0.213 HD
ENDBRANCH  15  17
ENDBRANCH   1  13
BRANCH   5  19
HETATM   19  C12 UNL     1      24.991   1.947  51.518  1.00  0.00    -0.033 A 
HETATM   20  C13 UNL     1      26.263   2.475  51.603  1.00  0.00     0.011 A 
HETATM   21  C14 UNL     1      27.232   1.978  52.474  1.00  0.00     0.019 A 
HETATM   22  C15 UNL     1      26.872   0.898  53.282  1.00  0.00     0.011 A 
HETATM   23 BR2  UNL     1      28.262   0.283  54.445  1.00  0.00    -0.051 Br
HETATM   24  C16 UNL     1      25.617   0.349  53.222  1.00  0.00     0.019 A 
HETATM   25  C17 UNL     1      24.680   0.864  52.350  1.00  0.00     0.011 A 
ENDBRANCH   5  19
TORSDOF 4
ENDMDL
MODEL 5
REMARK VINA RESULT:      -7.5      1.811      2.215
REMARK  4 active torsions:
REMARK  status: ('A' for Active; 'I' for Inactive)
REMARK    1  A    between atoms: O1_1  and  C1_2 
REMARK    2  A    between atoms: C2_4  and  N2_5 
REMARK    3  A    between atoms: C3_7  and  C4_8 
REMARK    4  A    between atoms: C11_16  and  C12_17 
ROOT
HETATM    1  N2  UNL     1      23.562   3.398  50.797  1.00  0.00    -0.237 N 
HETATM    2  N3  UNL     1      24.680   2.557  50.825  1.00  0.00    -0.173 NA
HETATM    3  C3  UNL     1      25.117   2.353  52.010  1.00  0.00     0.067 C 
HETATM    4  C10 UNL     1      24.232   3.123  52.956  1.00  0.00     0.094 C 
HETATM    5  C11 UNL     1      23.000   3.455  52.147  1.00  0.00     0.151 C 
ENDROOT
BRANCH   3   6
HETATM    6  C4  UNL     1      26.257   1.537  52.423  1.00  0.00    -0.010 A 
HETATM    7  C5  UNL     1      27.404   2.138  52.942  1.00  0.00     0.015 A 
HETATM    8  C6  UNL     1      28.445   1.282  53.311  1.00  0.00     0.020 A 
HETATM    9  C7  UNL     1      28.418  -0.106  53.198  1.00  0.00     0.011 A 
HETATM   10 BR1  UNL     1      29.881  -1.175  53.726  1.00  0.00    -0.051 Br
HETATM   11  C8  UNL     1      27.241  -0.595  52.675  1.00  0.00     0.020 A 
HETATM   12  C9  UNL     1      26.159   0.162  52.282  1.00  0.00     0.015 A 
ENDBRANCH   3   6
BRANCH   1  13
HETATM   13  C2  UNL     1      23.065   4.082  49.626  1.00  0.00     0.188 A 
HETATM   14  N1  UNL     1      22.265   3.732  48.801  1.00  0.00    -0.223 NA
HETATM   15  C1  UNL     1      22.293   4.872  48.007  1.00  0.00     0.316 A 
HETATM   16  S1  UNL     1      23.488   5.634  49.066  1.00  0.00    -0.036 SA
BRANCH  15  17
HETATM   17  O1  UNL     1      21.047   5.573  47.939  1.00  0.00    -0.365 OA
HETATM   18  H1  UNL     1      21.155   6.270  47.237  1.00  0.00     0.213 HD
ENDBRANCH  15  17
ENDBRANCH   1  13
BRANCH   5  19
HETATM   19  C12 UNL     1      21.999   2.389  52.392  1.00  0.00    -0.033 A 
HETATM   20  C13 UNL     1      20.698   2.519  51.951  1.00  0.00     0.011 A 
HETATM   21  C14 UNL     1      19.727   1.540  52.162  1.00  0.00     0.019 A 
HETATM   22  C15 UNL     1      20.116   0.391  52.853  1.00  0.00     0.011 A 
HETATM   23 BR2  UNL     1      18.721  -0.896  53.095  1.00  0.00    -0.051 Br
HETATM   24  C16 UNL     1      21.401   0.231  53.306  1.00  0.00     0.019 A 
HETATM   25  C17 UNL     1      22.339   1.218  53.080  1.00  0.00     0.011 A 
ENDBRANCH   5  19
TORSDOF 4
ENDMDL
MODEL 6
REMARK VINA RESULT:      -7.3      9.637     12.585
REMARK  4 active torsions:
REMARK  status: ('A' for Active; 'I' for Inactive)
REMARK    1  A    between atoms: O1_1  and  C1_2 
REMARK    2  A    between atoms: C2_4  and  N2_5 
REMARK    3  A    between atoms: C3_7  and  C4_8 
REMARK    4  A    between atoms: C11_16  and  C12_17 
ROOT
HETATM    1  N2  UNL     1      31.576   5.490  47.828  1.00  0.00    -0.237 N 
HETATM    2  N3  UNL     1      30.254   5.034  47.866  1.00  0.00    -0.173 NA
HETATM    3  C3  UNL     1      29.436   5.922  48.289  1.00  0.00     0.067 C 
HETATM    4  C10 UNL     1      30.235   7.162  48.597  1.00  0.00     0.094 C 
HETATM    5  C11 UNL     1      31.557   6.952  47.897  1.00  0.00     0.151 C 
ENDROOT
BRANCH   3   6
HETATM    6  C4  UNL     1      27.989   5.806  48.461  1.00  0.00    -0.010 A 
HETATM    7  C5  UNL     1      27.427   4.615  48.922  1.00  0.00     0.015 A 
HETATM    8  C6  UNL     1      26.036   4.592  49.057  1.00  0.00     0.020 A 
HETATM    9  C7  UNL     1      25.187   5.657  48.768  1.00  0.00     0.011 A 
HETATM   10 BR1  UNL     1      23.316   5.525  48.985  1.00  0.00    -0.051 Br
HETATM   11  C8  UNL     1      25.844   6.783  48.321  1.00  0.00     0.020 A 
HETATM   12  C9  UNL     1      27.206   6.907  48.154  1.00  0.00     0.015 A 
ENDBRANCH   3   6
BRANCH   1  13
HETATM   13  C2  UNL     1      32.745   4.645  47.737  1.00  0.00     0.188 A 
HETATM   14  N1  UNL     1      33.892   4.871  48.017  1.00  0.00    -0.223 NA
HETATM   15  C1  UNL     1      34.421   3.632  47.677  1.00  0.00     0.316 A 
HETATM   16  S1  UNL     1      32.828   3.034  47.191  1.00  0.00    -0.036 SA
BRANCH  15  17
HETATM   17  O1  UNL     1      34.999   2.919  48.776  1.00  0.00    -0.365 OA
HETATM   18  H1  UNL     1      34.906   3.508  49.572  1.00  0.00     0.213 HD
ENDBRANCH  15  17
ENDBRANCH   1  13
BRANCH   5  19
HETATM   19  C12 UNL     1      31.466   7.583  46.559  1.00  0.00    -0.033 A 
HETATM   20  C13 UNL     1      30.787   8.770  46.376  1.00  0.00     0.011 A 
HETATM   21  C14 UNL     1      30.678   9.395  45.135  1.00  0.00     0.019 A 
HETATM   22  C15 UNL     1      31.292   8.770  44.048  1.00  0.00     0.011 A 
HETATM   23 BR2  UNL     1      31.091   9.698  42.385  1.00  0.00    -0.051 Br
HETATM   24  C16 UNL     1      31.973   7.590  44.195  1.00  0.00     0.019 A 
HETATM   25  C17 UNL     1      32.064   6.996  45.437  1.00  0.00     0.011 A 
ENDBRANCH   5  19
TORSDOF 4
ENDMDL
MODEL 7
REMARK VINA RESULT:      -7.2      4.734      6.608
REMARK  4 active torsions:
REMARK  status: ('A' for Active; 'I' for Inactive)
REMARK    1  A    between atoms: O1_1  and  C1_2 
REMARK    2  A    between atoms: C2_4  and  N2_5 
REMARK    3  A    between atoms: C3_7  and  C4_8 
REMARK    4  A    between atoms: C11_16  and  C12_17 
ROOT
HETATM    1  N2  UNL     1      24.743   2.956  51.350  1.00  0.00    -0.237 N 
HETATM    2  N3  UNL     1      24.144   4.216  51.456  1.00  0.00    -0.173 NA
HETATM    3  C3  UNL     1      23.269   4.427  50.547  1.00  0.00     0.067 C 
HETATM    4  C10 UNL     1      23.215   3.197  49.678  1.00  0.00     0.094 C 
HETATM    5  C11 UNL     1      23.903   2.124  50.487  1.00  0.00     0.151 C 
ENDROOT
BRANCH   3   6
HETATM    6  C4  UNL     1      22.448   5.620  50.345  1.00  0.00    -0.010 A 
HETATM    7  C5  UNL     1      21.121   5.501  49.932  1.00  0.00     0.015 A 
HETATM    8  C6  UNL     1      20.410   6.693  49.764  1.00  0.00     0.020 A 
HETATM    9  C7  UNL     1      20.925   7.969  49.977  1.00  0.00     0.011 A 
HETATM   10 BR1  UNL     1      19.881   9.519  49.721  1.00  0.00    -0.051 Br
HETATM   11  C8  UNL     1      22.243   7.972  50.382  1.00  0.00     0.020 A 
HETATM   12  C9  UNL     1      23.028   6.856  50.576  1.00  0.00     0.015 A 
ENDBRANCH   3   6
BRANCH   1  13
HETATM   13  C2  UNL     1      25.978   2.566  51.988  1.00  0.00     0.188 A 
HETATM   14  N1  UNL     1      27.077   2.411  51.527  1.00  0.00    -0.223 NA
HETATM   15  C1  UNL     1      27.730   2.050  52.699  1.00  0.00     0.316 A 
HETATM   16  S1  UNL     1      26.235   2.205  53.632  1.00  0.00    -0.036 SA
BRANCH  15  17
HETATM   17  O1  UNL     1      28.763   2.957  53.100  1.00  0.00    -0.365 OA
HETATM   18  H1  UNL     1      29.484   2.880  52.419  1.00  0.00     0.213 HD
ENDBRANCH  15  17
ENDBRANCH   1  13
BRANCH   5  19
HETATM   19  C12 UNL     1      22.860   1.391  51.245  1.00  0.00    -0.033 A 
HETATM   20  C13 UNL     1      21.679   1.008  50.644  1.00  0.00     0.011 A 
HETATM   21  C14 UNL     1      20.674   0.319  51.322  1.00  0.00     0.019 A 
HETATM   22  C15 UNL     1      20.900   0.018  52.666  1.00  0.00     0.011 A 
HETATM   23 BR2  UNL     1      19.469  -0.928  53.516  1.00  0.00    -0.051 Br
HETATM   24  C16 UNL     1      22.062   0.385  53.294  1.00  0.00     0.019 A 
HETATM   25  C17 UNL     1      23.038   1.066  52.595  1.00  0.00     0.011 A 
ENDBRANCH   5  19
TORSDOF 4
ENDMDL
MODEL 8
REMARK VINA RESULT:      -7.2      8.888     11.858
REMARK  4 active torsions:
REMARK  status: ('A' for Active; 'I' for Inactive)
REMARK    1  A    between atoms: O1_1  and  C1_2 
REMARK    2  A    between atoms: C2_4  and  N2_5 
REMARK    3  A    between atoms: C3_7  and  C4_8 
REMARK    4  A    between atoms: C11_16  and  C12_17 
ROOT
HETATM    1  N2  UNL     1      29.213   9.173  48.234  1.00  0.00    -0.237 N 
HETATM    2  N3  UNL     1      28.323   8.348  48.929  1.00  0.00    -0.173 NA
HETATM    3  C3  UNL     1      27.992   7.306  48.265  1.00  0.00     0.067 C 
HETATM    4  C10 UNL     1      28.710   7.366  46.942  1.00  0.00     0.094 C 
HETATM    5  C11 UNL     1      29.799   8.393  47.142  1.00  0.00     0.151 C 
ENDROOT
BRANCH   3   6
HETATM    6  C4  UNL     1      27.089   6.229  48.669  1.00  0.00    -0.010 A 
HETATM    7  C5  UNL     1      27.570   4.929  48.830  1.00  0.00     0.015 A 
HETATM    8  C6  UNL     1      26.639   3.962  49.218  1.00  0.00     0.020 A 
HETATM    9  C7  UNL     1      25.287   4.202  49.451  1.00  0.00     0.011 A 
HETATM   10 BR1  UNL     1      24.107   2.824  49.973  1.00  0.00    -0.051 Br
HETATM   11  C8  UNL     1      24.918   5.517  49.264  1.00  0.00     0.020 A 
HETATM   12  C9  UNL     1      25.757   6.541  48.884  1.00  0.00     0.015 A 
ENDBRANCH   3   6
BRANCH   1  13
HETATM   13  C2  UNL     1      29.491  10.554  48.554  1.00  0.00     0.188 A 
HETATM   14  N1  UNL     1      30.527  11.094  48.837  1.00  0.00    -0.223 NA
HETATM   15  C1  UNL     1      30.034  12.381  49.007  1.00  0.00     0.316 A 
HETATM   16  S1  UNL     1      28.391  11.852  48.621  1.00  0.00    -0.036 SA
BRANCH  15  17
HETATM   17  O1  UNL     1      30.566  13.341  48.088  1.00  0.00    -0.365 OA
HETATM   18  H1  UNL     1      30.938  12.821  47.325  1.00  0.00     0.213 HD
ENDBRANCH  15  17
ENDBRANCH   1  13
BRANCH   5  19
HETATM   19  C12 UNL     1      31.029   7.675  47.552  1.00  0.00    -0.033 A 
HETATM   20  C13 UNL     1      32.189   8.360  47.849  1.00  0.00     0.011 A 
HETATM   21  C14 UNL     1      33.366   7.721  48.238  1.00  0.00     0.019 A 
HETATM   22  C15 UNL     1      33.340   6.327  48.321  1.00  0.00     0.011 A 
HETATM   23 BR2  UNL     1      34.997   5.537  48.861  1.00  0.00    -0.051 Br
HETATM   24  C16 UNL     1      32.204   5.616  48.032  1.00  0.00     0.019 A 
HETATM   25  C17 UNL     1      31.054   6.278  47.651  1.00  0.00     0.011 A 
ENDBRANCH   5  19
TORSDOF 4
ENDMDL
MODEL 9
REMARK VINA RESULT:      -7.2      4.186      5.296
REMARK  4 active torsions:
REMARK  status: ('A' for Active; 'I' for Inactive)
REMARK    1  A    between atoms: O1_1  and  C1_2 
REMARK    2  A    between atoms: C2_4  and  N2_5 
REMARK    3  A    between atoms: C3_7  and  C4_8 
REMARK    4  A    between atoms: C11_16  and  C12_17 
ROOT
HETATM    1  N2  UNL     1      22.152   0.566  52.164  1.00  0.00    -0.237 N 
HETATM    2  N3  UNL     1      23.114   1.571  52.011  1.00  0.00    -0.173 NA
HETATM    3  C3  UNL     1      23.209   1.986  50.805  1.00  0.00     0.067 C 
HETATM    4  C10 UNL     1      22.216   1.209  49.980  1.00  0.00     0.094 C 
HETATM    5  C11 UNL     1      21.279   0.589  50.989  1.00  0.00     0.151 C 
ENDROOT
BRANCH   3   6
HETATM    6  C4  UNL     1      24.098   3.018  50.274  1.00  0.00    -0.010 A 
HETATM    7  C5  UNL     1      25.478   2.926  50.464  1.00  0.00     0.015 A 
HETATM    8  C6  UNL     1      26.253   3.955  49.923  1.00  0.00     0.020 A 
HETATM    9  C7  UNL     1      25.753   5.049  49.220  1.00  0.00     0.011 A 
HETATM   10 BR1  UNL     1      26.886   6.390  48.528  1.00  0.00    -0.051 Br
HETATM   11  C8  UNL     1      24.380   5.041  49.090  1.00  0.00     0.020 A 
HETATM   12  C9  UNL     1      23.530   4.076  49.585  1.00  0.00     0.015 A 
ENDBRANCH   3   6
BRANCH   1  13
HETATM   13  C2  UNL     1      22.056  -0.328  53.294  1.00  0.00     0.188 A 
HETATM   14  N1  UNL     1      22.580  -1.392  53.491  1.00  0.00    -0.223 NA
HETATM   15  C1  UNL     1      22.035  -1.647  54.744  1.00  0.00     0.316 A 
HETATM   16  S1  UNL     1      21.143  -0.119  54.716  1.00  0.00    -0.036 SA
BRANCH  15  17
HETATM   17  O1  UNL     1      23.000  -1.737  55.797  1.00  0.00    -0.365 OA
HETATM   18  H1  UNL     1      23.449  -0.850  55.842  1.00  0.00     0.213 HD
ENDBRANCH  15  17
ENDBRANCH   1  13
BRANCH   5  19
HETATM   19  C12 UNL     1      20.125   1.504  51.156  1.00  0.00    -0.033 A 
HETATM   20  C13 UNL     1      18.840   1.016  51.278  1.00  0.00     0.011 A 
HETATM   21  C14 UNL     1      17.729   1.843  51.435  1.00  0.00     0.019 A 
HETATM   22  C15 UNL     1      17.955   3.220  51.467  1.00  0.00     0.011 A 
HETATM   23 BR2  UNL     1      16.375   4.277  51.686  1.00  0.00    -0.051 Br
HETATM   24  C16 UNL     1      19.219   3.738  51.347  1.00  0.00     0.019 A 
HETATM   25  C17 UNL     1      20.299   2.893  51.194  1.00  0.00     0.011 A 
ENDBRANCH   5  19
TORSDOF 4
ENDMDL
