MODEL 1
REMARK VINA RESULT:      -8.9      0.000      0.000
REMARK  3 active torsions:
REMARK  status: ('A' for Active; 'I' for Inactive)
REMARK    1  A    between atoms: C2_2  and  N1_3 
REMARK    2  A    between atoms: C7_10  and  C8_11 
REMARK    3  A    between atoms: C8_11  and  C9_12 
ROOT
HETATM    1  N1  UNL     1      17.666   0.178  51.417  1.00  0.00    -0.411 N 
HETATM    2  C3  UNL     1      17.272  -0.095  52.711  1.00  0.00     0.136 C 
HETATM    3  C4  UNL     1      17.808  -1.291  53.453  1.00  0.00     0.142 C 
HETATM    4  N2  UNL     1      19.285  -1.119  53.545  1.00  0.00    -0.356 N 
HETATM    5  C5  UNL     1      20.678  -0.958  53.634  1.00  0.00     0.241 C 
HETATM    6  O1  UNL     1      20.668  -1.881  54.456  1.00  0.00    -0.269 OA
HETATM    7  C6  UNL     1      21.731  -0.113  53.027  1.00  0.00     0.077 C 
HETATM    8  C7  UNL     1      21.991   0.771  52.090  1.00  0.00    -0.070 C 
HETATM    9  C17 UNL     1      21.219   1.263  50.900  1.00  0.00     0.012 C 
HETATM   10  C18 UNL     1      22.017   1.257  49.618  1.00  0.00     0.015 C 
HETATM   11  C19 UNL     1      19.921   0.621  50.660  1.00  0.00     0.028 C 
HETATM   12  C20 UNL     1      18.687   1.189  51.255  1.00  0.00     0.117 C 
HETATM   13  H10 UNL     1      19.422  -0.245  53.067  1.00  0.00     0.162 HD
ENDROOT
BRANCH   8  14
HETATM   14  C8  UNL     1      23.327   1.363  51.910  1.00  0.00     0.053 C 
BRANCH  14  15
HETATM   15  C9  UNL     1      24.252   1.426  53.053  1.00  0.00     0.117 C 
HETATM   16  C10 UNL     1      24.770   2.715  53.481  1.00  0.00     0.231 C 
HETATM   17  O2  UNL     1      24.208   3.840  53.524  1.00  0.00    -0.272 OA
HETATM   18  N3  UNL     1      26.145   2.539  53.895  1.00  0.00    -0.326 N 
HETATM   19  C11 UNL     1      26.502   1.179  53.587  1.00  0.00     0.042 A 
HETATM   20  H15 UNL     1      26.750   3.269  54.332  1.00  0.00     0.169 HD
HETATM   21  C12 UNL     1      27.746   0.585  53.755  1.00  0.00     0.033 A 
HETATM   22  C16 UNL     1      25.419   0.518  53.015  1.00  0.00    -0.015 A 
HETATM   23  C13 UNL     1      27.931  -0.715  53.340  1.00  0.00     0.044 A 
HETATM   24  C14 UNL     1      26.874  -1.395  52.766  1.00  0.00     0.117 A 
HETATM   25  F1  UNL     1      27.123  -2.670  52.378  1.00  0.00    -0.206 F 
HETATM   26  C15 UNL     1      25.645  -0.764  52.617  1.00  0.00     0.052 A 
ENDBRANCH  14  15
ENDBRANCH   8  14
BRANCH   1  27
HETATM   27  C2  UNL     1      17.192  -0.488  50.294  1.00  0.00     0.112 C 
HETATM   28  C1  UNL     1      15.726  -0.880  50.366  1.00  0.00     0.026 C 
ENDBRANCH   1  27
TORSDOF 3
ENDMDL
MODEL 2
REMARK VINA RESULT:      -8.5      7.791      9.728
REMARK  3 active torsions:
REMARK  status: ('A' for Active; 'I' for Inactive)
REMARK    1  A    between atoms: C2_2  and  N1_3 
REMARK    2  A    between atoms: C7_10  and  C8_11 
REMARK    3  A    between atoms: C8_11  and  C9_12 
ROOT
HETATM    1  N1  UNL     1      24.787   7.614  49.849  1.00  0.00    -0.411 N 
HETATM    2  C3  UNL     1      24.559   6.696  50.854  1.00  0.00     0.136 C 
HETATM    3  C4  UNL     1      24.351   5.236  50.543  1.00  0.00     0.142 C 
HETATM    4  N2  UNL     1      25.593   4.754  49.877  1.00  0.00    -0.356 N 
HETATM    5  C5  UNL     1      26.764   4.296  49.249  1.00  0.00     0.241 C 
HETATM    6  O1  UNL     1      26.330   3.150  49.416  1.00  0.00    -0.269 OA
HETATM    7  C6  UNL     1      27.977   4.869  48.625  1.00  0.00     0.077 C 
HETATM    8  C7  UNL     1      28.555   5.979  48.222  1.00  0.00    -0.070 C 
HETATM    9  C17 UNL     1      28.059   7.383  48.029  1.00  0.00     0.012 C 
HETATM   10  C18 UNL     1      28.421   7.972  46.685  1.00  0.00     0.015 C 
HETATM   11  C19 UNL     1      26.629   7.606  48.281  1.00  0.00     0.028 C 
HETATM   12  C20 UNL     1      26.164   8.000  49.632  1.00  0.00     0.117 C 
HETATM   13  H10 UNL     1      26.156   5.586  49.859  1.00  0.00     0.162 HD
ENDROOT
BRANCH   8  14
HETATM   14  C8  UNL     1      29.902   6.000  47.631  1.00  0.00     0.053 C 
BRANCH  14  15
HETATM   15  C9  UNL     1      31.080   5.881  48.506  1.00  0.00     0.117 C 
HETATM   16  C10 UNL     1      31.756   7.085  48.960  1.00  0.00     0.231 C 
HETATM   17  O2  UNL     1      31.283   8.203  49.291  1.00  0.00    -0.272 OA
HETATM   18  N3  UNL     1      33.179   6.825  48.992  1.00  0.00    -0.326 N 
HETATM   19  C11 UNL     1      33.376   5.517  48.427  1.00  0.00     0.042 A 
HETATM   20  H15 UNL     1      33.910   7.473  49.359  1.00  0.00     0.169 HD
HETATM   21  C12 UNL     1      34.590   4.880  48.200  1.00  0.00     0.033 A 
HETATM   22  C16 UNL     1      32.152   4.965  48.058  1.00  0.00    -0.015 A 
HETATM   23  C13 UNL     1      34.596   3.649  47.582  1.00  0.00     0.044 A 
HETATM   24  C14 UNL     1      33.397   3.079  47.203  1.00  0.00     0.117 A 
HETATM   25  F1  UNL     1      33.474   1.867  46.599  1.00  0.00    -0.206 F 
HETATM   26  C15 UNL     1      32.205   3.748  47.450  1.00  0.00     0.052 A 
ENDBRANCH  14  15
ENDBRANCH   8  14
BRANCH   1  27
HETATM   27  C2  UNL     1      23.803   8.131  49.017  1.00  0.00     0.112 C 
HETATM   28  C1  UNL     1      22.457   8.342  49.689  1.00  0.00     0.026 C 
ENDBRANCH   1  27
TORSDOF 3
ENDMDL
MODEL 3
REMARK VINA RESULT:      -8.5      4.059      5.021
REMARK  3 active torsions:
REMARK  status: ('A' for Active; 'I' for Inactive)
REMARK    1  A    between atoms: C2_2  and  N1_3 
REMARK    2  A    between atoms: C7_10  and  C8_11 
REMARK    3  A    between atoms: C8_11  and  C9_12 
ROOT
HETATM    1  N1  UNL     1      20.498   0.161  53.216  1.00  0.00    -0.411 N 
HETATM    2  C3  UNL     1      21.114   0.079  54.448  1.00  0.00     0.136 C 
HETATM    3  C4  UNL     1      22.380  -0.716  54.636  1.00  0.00     0.142 C 
HETATM    4  N2  UNL     1      23.410  -0.108  53.748  1.00  0.00    -0.356 N 
HETATM    5  C5  UNL     1      24.384   0.465  52.912  1.00  0.00     0.241 C 
HETATM    6  O1  UNL     1      25.216  -0.216  53.522  1.00  0.00    -0.269 OA
HETATM    7  C6  UNL     1      24.444   1.422  51.785  1.00  0.00     0.077 C 
HETATM    8  C7  UNL     1      23.731   2.114  50.925  1.00  0.00    -0.070 C 
HETATM    9  C17 UNL     1      22.281   2.087  50.535  1.00  0.00     0.012 C 
HETATM   10  C18 UNL     1      22.058   2.028  49.042  1.00  0.00     0.015 C 
HETATM   11  C19 UNL     1      21.456   1.059  51.184  1.00  0.00     0.028 C 
HETATM   12  C20 UNL     1      20.749   1.363  52.451  1.00  0.00     0.117 C 
HETATM   13  H10 UNL     1      22.895   0.640  53.316  1.00  0.00     0.162 HD
ENDROOT
BRANCH   8  14
HETATM   14  C8  UNL     1      24.343   3.012  49.932  1.00  0.00     0.053 C 
BRANCH  14  15
HETATM   15  C9  UNL     1      24.841   4.330  50.356  1.00  0.00     0.117 C 
HETATM   16  C10 UNL     1      23.904   5.433  50.507  1.00  0.00     0.231 C 
HETATM   17  O2  UNL     1      22.722   5.437  50.937  1.00  0.00    -0.272 OA
HETATM   18  N3  UNL     1      24.553   6.646  50.061  1.00  0.00    -0.326 N 
HETATM   19  C11 UNL     1      25.826   6.261  49.512  1.00  0.00     0.042 A 
HETATM   20  H15 UNL     1      24.159   7.611  50.131  1.00  0.00     0.169 HD
HETATM   21  C12 UNL     1      26.761   7.093  48.909  1.00  0.00     0.033 A 
HETATM   22  C16 UNL     1      25.989   4.882  49.605  1.00  0.00    -0.015 A 
HETATM   23  C13 UNL     1      27.903   6.541  48.373  1.00  0.00     0.044 A 
HETATM   24  C14 UNL     1      28.090   5.175  48.448  1.00  0.00     0.117 A 
HETATM   25  F1  UNL     1      29.235   4.696  47.900  1.00  0.00    -0.206 F 
HETATM   26  C15 UNL     1      27.132   4.378  49.061  1.00  0.00     0.052 A 
ENDBRANCH  14  15
ENDBRANCH   8  14
BRANCH   1  27
HETATM   27  C2  UNL     1      19.720  -0.844  52.658  1.00  0.00     0.112 C 
HETATM   28  C1  UNL     1      18.424  -1.123  53.400  1.00  0.00     0.026 C 
ENDBRANCH   1  27
TORSDOF 3
ENDMDL
MODEL 4
REMARK VINA RESULT:      -8.4      2.803      7.891
REMARK  3 active torsions:
REMARK  status: ('A' for Active; 'I' for Inactive)
REMARK    1  A    between atoms: C2_2  and  N1_3 
REMARK    2  A    between atoms: C7_10  and  C8_11 
REMARK    3  A    between atoms: C8_11  and  C9_12 
ROOT
HETATM    1  N1  UNL     1      26.696   0.276  53.459  1.00  0.00    -0.411 N 
HETATM    2  C3  UNL     1      27.132   1.499  52.990  1.00  0.00     0.136 C 
HETATM    3  C4  UNL     1      26.834   1.946  51.583  1.00  0.00     0.142 C 
HETATM    4  N2  UNL     1      25.351   2.008  51.452  1.00  0.00    -0.356 N 
HETATM    5  C5  UNL     1      23.953   2.067  51.327  1.00  0.00     0.241 C 
HETATM    6  O1  UNL     1      24.138   2.674  50.265  1.00  0.00    -0.269 OA
HETATM    7  C6  UNL     1      22.759   1.608  52.070  1.00  0.00     0.077 C 
HETATM    8  C7  UNL     1      22.336   0.870  53.072  1.00  0.00    -0.070 C 
HETATM    9  C17 UNL     1      23.002  -0.153  53.947  1.00  0.00     0.012 C 
HETATM   10  C18 UNL     1      22.222  -1.441  54.069  1.00  0.00     0.015 C 
HETATM   11  C19 UNL     1      24.400  -0.467  53.626  1.00  0.00     0.028 C 
HETATM   12  C20 UNL     1      25.500   0.289  54.271  1.00  0.00     0.117 C 
HETATM   13  H10 UNL     1      25.050   1.720  52.367  1.00  0.00     0.162 HD
ENDROOT
BRANCH   8  14
HETATM   14  C8  UNL     1      20.912   0.761  53.429  1.00  0.00     0.053 C 
BRANCH  14  15
HETATM   15  C9  UNL     1      19.917   0.517  52.373  1.00  0.00     0.117 C 
HETATM   16  C10 UNL     1      19.249   1.646  51.746  1.00  0.00     0.231 C 
HETATM   17  O2  UNL     1      19.695   2.783  51.442  1.00  0.00    -0.272 OA
HETATM   18  N3  UNL     1      17.875   1.276  51.484  1.00  0.00    -0.326 N 
HETATM   19  C11 UNL     1      17.673  -0.020  52.076  1.00  0.00     0.042 A 
HETATM   20  H15 UNL     1      17.176   1.851  50.964  1.00  0.00     0.169 HD
HETATM   21  C12 UNL     1      16.485  -0.738  52.125  1.00  0.00     0.033 A 
HETATM   22  C16 UNL     1      18.849  -0.460  52.677  1.00  0.00    -0.015 A 
HETATM   23  C13 UNL     1      16.455  -1.940  52.797  1.00  0.00     0.044 A 
HETATM   24  C14 UNL     1      17.607  -2.400  53.405  1.00  0.00     0.117 A 
HETATM   25  F1  UNL     1      17.508  -3.589  54.051  1.00  0.00    -0.206 F 
HETATM   26  C15 UNL     1      18.774  -1.652  53.332  1.00  0.00     0.052 A 
ENDBRANCH  14  15
ENDBRANCH   8  14
BRANCH   1  27
HETATM   27  C2  UNL     1      27.292  -0.940  53.153  1.00  0.00     0.112 C 
HETATM   28  C1  UNL     1      28.799  -0.968  53.336  1.00  0.00     0.026 C 
ENDBRANCH   1  27
TORSDOF 3
ENDMDL
MODEL 5
REMARK VINA RESULT:      -8.3      2.997      7.720
REMARK  3 active torsions:
REMARK  status: ('A' for Active; 'I' for Inactive)
REMARK    1  A    between atoms: C2_2  and  N1_3 
REMARK    2  A    between atoms: C7_10  and  C8_11 
REMARK    3  A    between atoms: C8_11  and  C9_12 
ROOT
HETATM    1  N1  UNL     1      25.668   1.080  53.056  1.00  0.00    -0.411 N 
HETATM    2  C3  UNL     1      25.886  -0.259  53.307  1.00  0.00     0.136 C 
HETATM    3  C4  UNL     1      25.328  -0.923  54.539  1.00  0.00     0.142 C 
HETATM    4  N2  UNL     1      23.845  -0.797  54.465  1.00  0.00    -0.356 N 
HETATM    5  C5  UNL     1      22.446  -0.681  54.397  1.00  0.00     0.241 C 
HETATM    6  O1  UNL     1      22.397  -1.501  55.321  1.00  0.00    -0.269 OA
HETATM    7  C6  UNL     1      21.439   0.078  53.622  1.00  0.00     0.077 C 
HETATM    8  C7  UNL     1      21.261   1.048  52.754  1.00  0.00    -0.070 C 
HETATM    9  C17 UNL     1      22.164   2.116  52.207  1.00  0.00     0.012 C 
HETATM   10  C18 UNL     1      21.564   3.501  52.262  1.00  0.00     0.015 C 
HETATM   11  C19 UNL     1      23.523   2.161  52.761  1.00  0.00     0.028 C 
HETATM   12  C20 UNL     1      24.616   1.395  52.115  1.00  0.00     0.117 C 
HETATM   13  H10 UNL     1      23.722  -0.298  53.601  1.00  0.00     0.162 HD
ENDROOT
BRANCH   8  14
HETATM   14  C8  UNL     1      19.930   1.425  52.251  1.00  0.00     0.053 C 
BRANCH  14  15
HETATM   15  C9  UNL     1      19.383   0.744  51.067  1.00  0.00     0.117 C 
HETATM   16  C10 UNL     1      19.217   1.487  49.828  1.00  0.00     0.231 C 
HETATM   17  O2  UNL     1      19.941   2.380  49.318  1.00  0.00    -0.272 OA
HETATM   18  N3  UNL     1      18.002   1.036  49.185  1.00  0.00    -0.326 N 
HETATM   19  C11 UNL     1      17.361   0.125  50.097  1.00  0.00     0.042 A 
HETATM   20  H15 UNL     1      17.668   1.326  48.240  1.00  0.00     0.169 HD
HETATM   21  C12 UNL     1      16.135  -0.504  49.922  1.00  0.00     0.033 A 
HETATM   22  C16 UNL     1      18.122  -0.007  51.255  1.00  0.00    -0.015 A 
HETATM   23  C13 UNL     1      15.637  -1.295  50.935  1.00  0.00     0.044 A 
HETATM   24  C14 UNL     1      16.370  -1.442  52.096  1.00  0.00     0.117 A 
HETATM   25  F1  UNL     1      15.822  -2.233  53.053  1.00  0.00    -0.206 F 
HETATM   26  C15 UNL     1      17.592  -0.796  52.230  1.00  0.00     0.052 A 
ENDBRANCH  14  15
ENDBRANCH   8  14
BRANCH   1  27
HETATM   27  C2  UNL     1      26.344   2.118  53.685  1.00  0.00     0.112 C 
HETATM   28  C1  UNL     1      27.842   2.136  53.437  1.00  0.00     0.026 C 
ENDBRANCH   1  27
TORSDOF 3
ENDMDL
MODEL 6
REMARK VINA RESULT:      -8.0      3.336      5.108
REMARK  3 active torsions:
REMARK  status: ('A' for Active; 'I' for Inactive)
REMARK    1  A    between atoms: C2_2  and  N1_3 
REMARK    2  A    between atoms: C7_10  and  C8_11 
REMARK    3  A    between atoms: C8_11  and  C9_12 
ROOT
HETATM    1  N1  UNL     1      21.196   3.612  48.275  1.00  0.00    -0.411 N 
HETATM    2  C3  UNL     1      22.204   4.191  47.530  1.00  0.00     0.136 C 
HETATM    3  C4  UNL     1      22.889   5.451  47.990  1.00  0.00     0.142 C 
HETATM    4  N2  UNL     1      23.528   5.144  49.300  1.00  0.00    -0.356 N 
HETATM    5  C5  UNL     1      24.133   4.856  50.535  1.00  0.00     0.241 C 
HETATM    6  O1  UNL     1      24.740   5.927  50.415  1.00  0.00    -0.269 OA
HETATM    7  C6  UNL     1      24.085   3.796  51.566  1.00  0.00     0.077 C 
HETATM    8  C7  UNL     1      23.456   2.712  51.963  1.00  0.00    -0.070 C 
HETATM    9  C17 UNL     1      22.163   2.067  51.554  1.00  0.00     0.012 C 
HETATM   10  C18 UNL     1      21.267   1.719  52.719  1.00  0.00     0.015 C 
HETATM   11  C19 UNL     1      21.376   2.781  50.540  1.00  0.00     0.028 C 
HETATM   12  C20 UNL     1      21.573   2.486  49.101  1.00  0.00     0.117 C 
HETATM   13  H10 UNL     1      23.275   4.180  49.433  1.00  0.00     0.162 HD
ENDROOT
BRANCH   8  14
HETATM   14  C8  UNL     1      23.861   1.955  53.159  1.00  0.00     0.053 C 
BRANCH  14  15
HETATM   15  C9  UNL     1      24.805   0.835  53.022  1.00  0.00     0.117 C 
HETATM   16  C10 UNL     1      24.495  -0.441  53.647  1.00  0.00     0.231 C 
HETATM   17  O2  UNL     1      23.391  -1.030  53.779  1.00  0.00    -0.272 OA
HETATM   18  N3  UNL     1      25.725  -1.013  54.150  1.00  0.00    -0.326 N 
HETATM   19  C11 UNL     1      26.753  -0.026  53.957  1.00  0.00     0.042 A 
HETATM   20  H15 UNL     1      25.829  -1.963  54.571  1.00  0.00     0.169 HD
HETATM   21  C12 UNL     1      28.083  -0.119  54.349  1.00  0.00     0.033 A 
HETATM   22  C16 UNL     1      26.219   1.112  53.359  1.00  0.00    -0.015 A 
HETATM   23  C13 UNL     1      28.919   0.957  54.145  1.00  0.00     0.044 A 
HETATM   24  C14 UNL     1      28.415   2.099  53.556  1.00  0.00     0.117 A 
HETATM   25  F1  UNL     1      29.291   3.121  53.385  1.00  0.00    -0.206 F 
HETATM   26  C15 UNL     1      27.080   2.151  53.177  1.00  0.00     0.052 A 
ENDBRANCH  14  15
ENDBRANCH   8  14
BRANCH   1  27
HETATM   27  C2  UNL     1      19.888   4.076  48.322  1.00  0.00     0.112 C 
HETATM   28  C1  UNL     1      18.839   3.036  47.967  1.00  0.00     0.026 C 
ENDBRANCH   1  27
TORSDOF 3
ENDMDL
MODEL 7
REMARK VINA RESULT:      -8.0      5.251      7.716
REMARK  3 active torsions:
REMARK  status: ('A' for Active; 'I' for Inactive)
REMARK    1  A    between atoms: C2_2  and  N1_3 
REMARK    2  A    between atoms: C7_10  and  C8_11 
REMARK    3  A    between atoms: C8_11  and  C9_12 
ROOT
HETATM    1  N1  UNL     1      24.787   8.475  48.427  1.00  0.00    -0.411 N 
HETATM    2  C3  UNL     1      23.462   8.719  48.725  1.00  0.00     0.136 C 
HETATM    3  C4  UNL     1      22.355   8.004  47.995  1.00  0.00     0.142 C 
HETATM    4  N2  UNL     1      22.530   6.548  48.260  1.00  0.00    -0.356 N 
HETATM    5  C5  UNL     1      22.693   5.175  48.509  1.00  0.00     0.241 C 
HETATM    6  O1  UNL     1      21.563   5.019  48.034  1.00  0.00    -0.269 OA
HETATM    7  C6  UNL     1      23.728   4.269  49.056  1.00  0.00     0.077 C 
HETATM    8  C7  UNL     1      24.977   4.183  49.458  1.00  0.00    -0.070 C 
HETATM    9  C17 UNL     1      26.156   5.106  49.349  1.00  0.00     0.012 C 
HETATM   10  C18 UNL     1      27.403   4.433  48.825  1.00  0.00     0.015 C 
HETATM   11  C19 UNL     1      25.936   6.353  48.605  1.00  0.00     0.028 C 
HETATM   12  C20 UNL     1      25.489   7.575  49.316  1.00  0.00     0.117 C 
HETATM   13  H10 UNL     1      23.348   6.541  48.845  1.00  0.00     0.162 HD
ENDROOT
BRANCH   8  14
HETATM   14  C8  UNL     1      25.557   2.934  49.976  1.00  0.00     0.053 C 
BRANCH  14  15
HETATM   15  C9  UNL     1      25.418   2.607  51.404  1.00  0.00     0.117 C 
HETATM   16  C10 UNL     1      26.589   2.191  52.159  1.00  0.00     0.231 C 
HETATM   17  O2  UNL     1      27.782   2.585  52.084  1.00  0.00    -0.272 OA
HETATM   18  N3  UNL     1      26.186   1.169  53.100  1.00  0.00    -0.326 N 
HETATM   19  C11 UNL     1      24.807   0.867  52.821  1.00  0.00     0.042 A 
HETATM   20  H15 UNL     1      26.792   0.742  53.835  1.00  0.00     0.169 HD
HETATM   21  C12 UNL     1      24.024  -0.101  53.438  1.00  0.00     0.033 A 
HETATM   22  C16 UNL     1      24.348   1.652  51.767  1.00  0.00    -0.015 A 
HETATM   23  C13 UNL     1      22.735  -0.303  52.996  1.00  0.00     0.044 A 
HETATM   24  C14 UNL     1      22.255   0.460  51.950  1.00  0.00     0.117 A 
HETATM   25  F1  UNL     1      20.979   0.209  51.562  1.00  0.00    -0.206 F 
HETATM   26  C15 UNL     1      23.070   1.418  51.361  1.00  0.00     0.052 A 
ENDBRANCH  14  15
ENDBRANCH   8  14
BRANCH   1  27
HETATM   27  C2  UNL     1      25.451   8.984  47.319  1.00  0.00     0.112 C 
HETATM   28  C1  UNL     1      26.200  10.281  47.574  1.00  0.00     0.026 C 
ENDBRANCH   1  27
TORSDOF 3
ENDMDL
MODEL 8
REMARK VINA RESULT:      -7.9      4.180      6.027
REMARK  3 active torsions:
REMARK  status: ('A' for Active; 'I' for Inactive)
REMARK    1  A    between atoms: C2_2  and  N1_3 
REMARK    2  A    between atoms: C7_10  and  C8_11 
REMARK    3  A    between atoms: C8_11  and  C9_12 
ROOT
HETATM    1  N1  UNL     1      23.131   7.061  49.433  1.00  0.00    -0.411 N 
HETATM    2  C3  UNL     1      21.887   7.031  50.030  1.00  0.00     0.136 C 
HETATM    3  C4  UNL     1      20.870   5.983  49.661  1.00  0.00     0.142 C 
HETATM    4  N2  UNL     1      21.470   4.661  49.991  1.00  0.00    -0.356 N 
HETATM    5  C5  UNL     1      22.034   3.412  50.303  1.00  0.00     0.241 C 
HETATM    6  O1  UNL     1      20.906   2.933  50.139  1.00  0.00    -0.269 OA
HETATM    7  C6  UNL     1      23.361   2.856  50.646  1.00  0.00     0.077 C 
HETATM    8  C7  UNL     1      24.647   3.120  50.730  1.00  0.00    -0.070 C 
HETATM    9  C17 UNL     1      25.493   4.266  50.256  1.00  0.00     0.012 C 
HETATM   10  C18 UNL     1      26.724   3.832  49.495  1.00  0.00     0.015 C 
HETATM   11  C19 UNL     1      24.799   5.310  49.491  1.00  0.00     0.028 C 
HETATM   12  C20 UNL     1      24.220   6.483  50.189  1.00  0.00     0.117 C 
HETATM   13  H10 UNL     1      22.370   4.926  50.352  1.00  0.00     0.162 HD
ENDROOT
BRANCH   8  14
HETATM   14  C8  UNL     1      25.630   2.124  51.187  1.00  0.00     0.053 C 
BRANCH  14  15
HETATM   15  C9  UNL     1      25.928   2.007  52.623  1.00  0.00     0.117 C 
HETATM   16  C10 UNL     1      27.314   1.978  53.064  1.00  0.00     0.231 C 
HETATM   17  O2  UNL     1      28.315   2.603  52.629  1.00  0.00    -0.272 OA
HETATM   18  N3  UNL     1      27.420   1.056  54.174  1.00  0.00    -0.326 N 
HETATM   19  C11 UNL     1      26.135   0.424  54.315  1.00  0.00     0.042 A 
HETATM   20  H15 UNL     1      28.273   0.892  54.753  1.00  0.00     0.169 HD
HETATM   21  C12 UNL     1      25.793  -0.579  55.214  1.00  0.00     0.033 A 
HETATM   22  C16 UNL     1      25.253   0.914  53.357  1.00  0.00    -0.015 A 
HETATM   23  C13 UNL     1      24.528  -1.122  55.163  1.00  0.00     0.044 A 
HETATM   24  C14 UNL     1      23.632  -0.656  54.220  1.00  0.00     0.117 A 
HETATM   25  F1  UNL     1      22.405  -1.234  54.224  1.00  0.00    -0.206 F 
HETATM   26  C15 UNL     1      24.014   0.349  53.341  1.00  0.00     0.052 A 
ENDBRANCH  14  15
ENDBRANCH   8  14
BRANCH   1  27
HETATM   27  C2  UNL     1      23.379   7.549  48.157  1.00  0.00     0.112 C 
HETATM   28  C1  UNL     1      24.171   8.845  48.120  1.00  0.00     0.026 C 
ENDBRANCH   1  27
TORSDOF 3
ENDMDL
MODEL 9
REMARK VINA RESULT:      -7.9      3.520      4.613
REMARK  3 active torsions:
REMARK  status: ('A' for Active; 'I' for Inactive)
REMARK    1  A    between atoms: C2_2  and  N1_3 
REMARK    2  A    between atoms: C7_10  and  C8_11 
REMARK    3  A    between atoms: C8_11  and  C9_12 
ROOT
HETATM    1  N1  UNL     1      20.030   4.921  49.580  1.00  0.00    -0.411 N 
HETATM    2  C3  UNL     1      19.234   3.947  49.011  1.00  0.00     0.136 C 
HETATM    3  C4  UNL     1      19.813   2.910  48.084  1.00  0.00     0.142 C 
HETATM    4  N2  UNL     1      20.827   2.148  48.865  1.00  0.00    -0.356 N 
HETATM    5  C5  UNL     1      21.783   1.427  49.599  1.00  0.00     0.241 C 
HETATM    6  O1  UNL     1      21.788   0.611  48.671  1.00  0.00    -0.269 OA
HETATM    7  C6  UNL     1      22.511   1.551  50.882  1.00  0.00     0.077 C 
HETATM    8  C7  UNL     1      22.770   2.345  51.897  1.00  0.00    -0.070 C 
HETATM    9  C17 UNL     1      22.527   3.805  52.147  1.00  0.00     0.012 C 
HETATM   10  C18 UNL     1      23.749   4.545  52.640  1.00  0.00     0.015 C 
HETATM   11  C19 UNL     1      21.924   4.560  51.041  1.00  0.00     0.028 C 
HETATM   12  C20 UNL     1      20.451   4.689  50.944  1.00  0.00     0.117 C 
HETATM   13  H10 UNL     1      20.779   2.599  49.762  1.00  0.00     0.162 HD
ENDROOT
BRANCH   8  14
HETATM   14  C8  UNL     1      23.622   1.934  53.025  1.00  0.00     0.053 C 
BRANCH  14  15
HETATM   15  C9  UNL     1      24.570   0.822  52.850  1.00  0.00     0.117 C 
HETATM   16  C10 UNL     1      24.257  -0.479  53.420  1.00  0.00     0.231 C 
HETATM   17  O2  UNL     1      23.153  -1.075  53.520  1.00  0.00    -0.272 OA
HETATM   18  N3  UNL     1      25.484  -1.070  53.909  1.00  0.00    -0.326 N 
HETATM   19  C11 UNL     1      26.513  -0.074  53.763  1.00  0.00     0.042 A 
HETATM   20  H15 UNL     1      25.587  -2.035  54.292  1.00  0.00     0.169 HD
HETATM   21  C12 UNL     1      27.839  -0.181  54.161  1.00  0.00     0.033 A 
HETATM   22  C16 UNL     1      25.981   1.086  53.207  1.00  0.00    -0.015 A 
HETATM   23  C13 UNL     1      28.676   0.903  54.006  1.00  0.00     0.044 A 
HETATM   24  C14 UNL     1      28.174   2.068  53.460  1.00  0.00     0.117 A 
HETATM   25  F1  UNL     1      29.049   3.097  53.337  1.00  0.00    -0.206 F 
HETATM   26  C15 UNL     1      26.841   2.133  53.074  1.00  0.00     0.052 A 
ENDBRANCH  14  15
ENDBRANCH   8  14
BRANCH   1  27
HETATM   27  C2  UNL     1      20.486   6.051  48.915  1.00  0.00     0.112 C 
HETATM   28  C1  UNL     1      21.480   5.769  47.802  1.00  0.00     0.026 C 
ENDBRANCH   1  27
TORSDOF 3
ENDMDL
