MODEL 1
REMARK VINA RESULT:      -8.7      0.000      0.000
REMARK  4 active torsions:
REMARK  status: ('A' for Active; 'I' for Inactive)
REMARK    1  A    between atoms: C2_2  and  C3_3 
REMARK    2  A    between atoms: C4_4  and  C6_6 
REMARK    3  A    between atoms: C7_7  and  C8_8 
REMARK    4  A    between atoms: C9_9  and  O1_10 
ROOT
HETATM    1  C8  UNL     1      24.507   0.184  53.063  1.00  0.00     0.030 A 
HETATM    2  C9  UNL     1      25.535  -0.247  53.893  1.00  0.00     0.114 A 
HETATM    3  C10 UNL     1      26.805   0.246  53.884  1.00  0.00     0.137 A 
HETATM    4  C11 UNL     1      27.084   1.248  52.981  1.00  0.00     0.119 A 
HETATM    5  C12 UNL     1      26.120   1.731  52.123  1.00  0.00     0.059 A 
HETATM    6  C13 UNL     1      24.857   1.181  52.192  1.00  0.00     0.085 A 
HETATM    7  N1  UNL     1      24.091   1.864  51.210  1.00  0.00    -0.257 NA
HETATM    8  C14 UNL     1      24.783   2.748  50.584  1.00  0.00     0.149 A 
HETATM    9  C15 UNL     1      26.147   2.759  51.097  1.00  0.00     0.081 A 
HETATM   10  N2  UNL     1      27.125   3.509  50.716  1.00  0.00    -0.298 NA
HETATM   11  O2  UNL     1      28.372   1.774  52.944  1.00  0.00    -0.345 OA
HETATM   12  C16 UNL     1      29.399   0.954  53.520  1.00  0.00     0.202 C 
HETATM   13  C17 UNL     1      28.950   0.577  54.896  1.00  0.00     0.202 C 
HETATM   14  O3  UNL     1      27.778  -0.240  54.748  1.00  0.00    -0.344 OA
HETATM   15  H12 UNL     1      28.054   3.427  51.157  1.00  0.00     0.187 HD
ENDROOT
BRANCH   1  16
HETATM   16  C7  UNL     1      23.205  -0.424  53.177  1.00  0.00     0.017 C 
HETATM   17  C6  UNL     1      22.042   0.183  53.293  1.00  0.00     0.007 C 
BRANCH  17  18
HETATM   18  C4  UNL     1      20.751  -0.482  53.405  1.00  0.00    -0.062 C 
HETATM   19  C3  UNL     1      19.685  -0.091  52.760  1.00  0.00     0.006 C 
HETATM   20  C5  UNL     1      20.424  -1.669  54.232  1.00  0.00     0.048 C 
BRANCH  19  21
HETATM   21  C2  UNL     1      18.410  -0.764  52.883  1.00  0.00    -0.010 C 
HETATM   22  C1  UNL     1      17.468  -0.573  51.946  1.00  0.00     0.011 C 
ENDBRANCH  19  21
ENDBRANCH  17  18
ENDBRANCH   1  16
BRANCH   2  23
HETATM   23  O1  UNL     1      25.273  -1.269  54.823  1.00  0.00    -0.357 OA
HETATM   24  H10 UNL     1      24.838  -2.116  54.487  1.00  0.00     0.217 HD
ENDBRANCH   2  23
TORSDOF 4
ENDMDL
MODEL 2
REMARK VINA RESULT:      -8.1      2.478      4.855
REMARK  4 active torsions:
REMARK  status: ('A' for Active; 'I' for Inactive)
REMARK    1  A    between atoms: C2_2  and  C3_3 
REMARK    2  A    between atoms: C4_4  and  C6_6 
REMARK    3  A    between atoms: C7_7  and  C8_8 
REMARK    4  A    between atoms: C9_9  and  O1_10 
ROOT
HETATM    1  C8  UNL     1      25.183   1.990  52.014  1.00  0.00     0.030 A 
HETATM    2  C9  UNL     1      26.562   2.117  52.129  1.00  0.00     0.114 A 
HETATM    3  C10 UNL     1      27.347   1.388  52.970  1.00  0.00     0.137 A 
HETATM    4  C11 UNL     1      26.720   0.454  53.765  1.00  0.00     0.119 A 
HETATM    5  C12 UNL     1      25.356   0.266  53.711  1.00  0.00     0.059 A 
HETATM    6  C13 UNL     1      24.628   1.043  52.834  1.00  0.00     0.085 A 
HETATM    7  N1  UNL     1      23.277   0.635  52.994  1.00  0.00    -0.257 NA
HETATM    8  C14 UNL     1      23.153  -0.295  53.873  1.00  0.00     0.149 A 
HETATM    9  C15 UNL     1      24.461  -0.629  54.423  1.00  0.00     0.081 A 
HETATM   10  N2  UNL     1      24.733  -1.512  55.323  1.00  0.00    -0.298 NA
HETATM   11  O2  UNL     1      27.491  -0.308  54.636  1.00  0.00    -0.345 OA
HETATM   12  C16 UNL     1      28.783   0.226  54.957  1.00  0.00     0.202 C 
HETATM   13  C17 UNL     1      29.473   0.534  53.666  1.00  0.00     0.202 C 
HETATM   14  O3  UNL     1      28.723   1.577  53.025  1.00  0.00    -0.344 OA
HETATM   15  H12 UNL     1      25.705  -1.663  55.636  1.00  0.00     0.187 HD
ENDROOT
BRANCH   1  16
HETATM   16  C7  UNL     1      24.471   2.827  51.082  1.00  0.00     0.017 C 
HETATM   17  C6  UNL     1      23.933   2.472  49.933  1.00  0.00     0.007 C 
BRANCH  17  18
HETATM   18  C4  UNL     1      23.221   3.361  49.025  1.00  0.00    -0.062 C 
HETATM   19  C3  UNL     1      22.515   2.937  48.012  1.00  0.00     0.006 C 
HETATM   20  C5  UNL     1      23.169   4.843  49.080  1.00  0.00     0.048 C 
BRANCH  19  21
HETATM   21  C2  UNL     1      21.814   3.835  47.120  1.00  0.00    -0.010 C 
HETATM   22  C1  UNL     1      21.899   3.649  45.793  1.00  0.00     0.011 C 
ENDBRANCH  19  21
ENDBRANCH  17  18
ENDBRANCH   1  16
BRANCH   2  23
HETATM   23  O1  UNL     1      27.224   3.065  51.327  1.00  0.00    -0.357 OA
HETATM   24  H10 UNL     1      27.311   4.006  51.679  1.00  0.00     0.217 HD
ENDBRANCH   2  23
TORSDOF 4
ENDMDL
MODEL 3
REMARK VINA RESULT:      -8.0      3.240      7.407
REMARK  4 active torsions:
REMARK  status: ('A' for Active; 'I' for Inactive)
REMARK    1  A    between atoms: C2_2  and  C3_3 
REMARK    2  A    between atoms: C4_4  and  C6_6 
REMARK    3  A    between atoms: C7_7  and  C8_8 
REMARK    4  A    between atoms: C9_9  and  O1_10 
ROOT
HETATM    1  C8  UNL     1      23.888   1.210  52.769  1.00  0.00     0.030 A 
HETATM    2  C9  UNL     1      23.330   2.295  52.105  1.00  0.00     0.114 A 
HETATM    3  C10 UNL     1      21.996   2.549  52.006  1.00  0.00     0.137 A 
HETATM    4  C11 UNL     1      21.139   1.659  52.614  1.00  0.00     0.119 A 
HETATM    5  C12 UNL     1      21.613   0.557  53.293  1.00  0.00     0.059 A 
HETATM    6  C13 UNL     1      22.978   0.367  53.349  1.00  0.00     0.085 A 
HETATM    7  N1  UNL     1      23.166  -0.824  54.099  1.00  0.00    -0.257 NA
HETATM    8  C14 UNL     1      22.051  -1.338  54.480  1.00  0.00     0.149 A 
HETATM    9  C15 UNL     1      20.944  -0.516  54.008  1.00  0.00     0.081 A 
HETATM   10  N2  UNL     1      19.683  -0.713  54.194  1.00  0.00    -0.298 NA
HETATM   11  O2  UNL     1      19.769   1.887  52.533  1.00  0.00    -0.345 OA
HETATM   12  C16 UNL     1      19.343   2.759  51.476  1.00  0.00     0.202 C 
HETATM   13  C17 UNL     1      20.150   4.014  51.581  1.00  0.00     0.202 C 
HETATM   14  O3  UNL     1      21.517   3.660  51.321  1.00  0.00    -0.344 OA
HETATM   15  H12 UNL     1      18.985  -0.058  53.809  1.00  0.00     0.187 HD
ENDROOT
BRANCH   1  16
HETATM   16  C7  UNL     1      25.321   1.059  52.798  1.00  0.00     0.017 C 
HETATM   17  C6  UNL     1      26.167   1.582  53.662  1.00  0.00     0.007 C 
BRANCH  17  18
HETATM   18  C4  UNL     1      27.612   1.397  53.645  1.00  0.00    -0.062 C 
HETATM   19  C3  UNL     1      28.185   0.226  53.580  1.00  0.00     0.006 C 
HETATM   20  C5  UNL     1      28.651   2.455  53.695  1.00  0.00     0.048 C 
BRANCH  19  21
HETATM   21  C2  UNL     1      29.622   0.061  53.565  1.00  0.00    -0.010 C 
HETATM   22  C1  UNL     1      30.150  -1.162  53.736  1.00  0.00     0.011 C 
ENDBRANCH  19  21
ENDBRANCH  17  18
ENDBRANCH   1  16
BRANCH   2  23
HETATM   23  O1  UNL     1      24.186   3.218  51.476  1.00  0.00    -0.357 OA
HETATM   24  H10 UNL     1      25.131   2.929  51.276  1.00  0.00     0.217 HD
ENDBRANCH   2  23
TORSDOF 4
ENDMDL
MODEL 4
REMARK VINA RESULT:      -7.9      3.251      7.373
REMARK  4 active torsions:
REMARK  status: ('A' for Active; 'I' for Inactive)
REMARK    1  A    between atoms: C2_2  and  C3_3 
REMARK    2  A    between atoms: C4_4  and  C6_6 
REMARK    3  A    between atoms: C7_7  and  C8_8 
REMARK    4  A    between atoms: C9_9  and  O1_10 
ROOT
HETATM    1  C8  UNL     1      25.384   2.760  51.284  1.00  0.00     0.030 A 
HETATM    2  C9  UNL     1      24.042   2.403  51.244  1.00  0.00     0.114 A 
HETATM    3  C10 UNL     1      23.495   1.343  51.901  1.00  0.00     0.137 A 
HETATM    4  C11 UNL     1      24.343   0.568  52.660  1.00  0.00     0.119 A 
HETATM    5  C12 UNL     1      25.688   0.854  52.752  1.00  0.00     0.059 A 
HETATM    6  C13 UNL     1      26.167   1.945  52.058  1.00  0.00     0.085 A 
HETATM    7  N1  UNL     1      27.559   1.993  52.336  1.00  0.00    -0.257 NA
HETATM    8  C14 UNL     1      27.930   1.041  53.117  1.00  0.00     0.149 A 
HETATM    9  C15 UNL     1      26.780   0.216  53.466  1.00  0.00     0.081 A 
HETATM   10  N2  UNL     1      26.761  -0.826  54.227  1.00  0.00    -0.298 NA
HETATM   11  O2  UNL     1      23.819  -0.524  53.344  1.00  0.00    -0.345 OA
HETATM   12  C16 UNL     1      22.557  -1.013  52.867  1.00  0.00     0.202 C 
HETATM   13  C17 UNL     1      21.622   0.153  52.802  1.00  0.00     0.202 C 
HETATM   14  O3  UNL     1      22.139   1.053  51.809  1.00  0.00    -0.344 OA
HETATM   15  H12 UNL     1      25.880  -1.334  54.402  1.00  0.00     0.187 HD
ENDROOT
BRANCH   1  16
HETATM   16  C7  UNL     1      25.833   3.910  50.540  1.00  0.00     0.017 C 
HETATM   17  C6  UNL     1      26.627   3.927  49.489  1.00  0.00     0.007 C 
BRANCH  17  18
HETATM   18  C4  UNL     1      27.050   5.121  48.772  1.00  0.00    -0.062 C 
HETATM   19  C3  UNL     1      28.289   5.350  48.427  1.00  0.00     0.006 C 
HETATM   20  C5  UNL     1      26.194   6.246  48.319  1.00  0.00     0.048 C 
BRANCH  19  21
HETATM   21  C2  UNL     1      28.692   6.544  47.715  1.00  0.00    -0.010 C 
HETATM   22  C1  UNL     1      29.965   6.673  47.308  1.00  0.00     0.011 C 
ENDBRANCH  19  21
ENDBRANCH  17  18
ENDBRANCH   1  16
BRANCH   2  23
HETATM   23  O1  UNL     1      23.156   3.181  50.475  1.00  0.00    -0.357 OA
HETATM   24  H10 UNL     1      23.513   4.021  50.046  1.00  0.00     0.217 HD
ENDBRANCH   2  23
TORSDOF 4
ENDMDL
MODEL 5
REMARK VINA RESULT:      -7.8      2.916      7.170
REMARK  4 active torsions:
REMARK  status: ('A' for Active; 'I' for Inactive)
REMARK    1  A    between atoms: C2_2  and  C3_3 
REMARK    2  A    between atoms: C4_4  and  C6_6 
REMARK    3  A    between atoms: C7_7  and  C8_8 
REMARK    4  A    between atoms: C9_9  and  O1_10 
ROOT
HETATM    1  C8  UNL     1      22.355   0.005  52.990  1.00  0.00     0.030 A 
HETATM    2  C9  UNL     1      21.329  -0.651  53.659  1.00  0.00     0.114 A 
HETATM    3  C10 UNL     1      20.046  -0.755  53.215  1.00  0.00     0.137 A 
HETATM    4  C11 UNL     1      19.749  -0.160  52.008  1.00  0.00     0.119 A 
HETATM    5  C12 UNL     1      20.709   0.511  51.282  1.00  0.00     0.059 A 
HETATM    6  C13 UNL     1      21.986   0.572  51.798  1.00  0.00     0.085 A 
HETATM    7  N1  UNL     1      22.745   1.310  50.851  1.00  0.00    -0.257 NA
HETATM    8  C14 UNL     1      22.036   1.680  49.845  1.00  0.00     0.149 A 
HETATM    9  C15 UNL     1      20.665   1.211  50.011  1.00  0.00     0.081 A 
HETATM   10  N2  UNL     1      19.671   1.387  49.208  1.00  0.00    -0.298 NA
HETATM   11  O2  UNL     1      18.448  -0.246  51.524  1.00  0.00    -0.345 OA
HETATM   12  C16 UNL     1      17.438  -0.550  52.497  1.00  0.00     0.202 C 
HETATM   13  C17 UNL     1      17.881  -1.776  53.231  1.00  0.00     0.202 C 
HETATM   14  O3  UNL     1      19.077  -1.430  53.946  1.00  0.00    -0.344 OA
HETATM   15  H12 UNL     1      18.739   1.005  49.432  1.00  0.00     0.187 HD
ENDROOT
BRANCH   1  16
HETATM   16  C7  UNL     1      23.672   0.040  53.574  1.00  0.00     0.017 C 
HETATM   17  C6  UNL     1      24.809  -0.320  53.014  1.00  0.00     0.007 C 
BRANCH  17  18
HETATM   18  C4  UNL     1      26.117  -0.265  53.650  1.00  0.00    -0.062 C 
HETATM   19  C3  UNL     1      27.226  -0.590  53.042  1.00  0.00     0.006 C 
HETATM   20  C5  UNL     1      26.419   0.152  55.042  1.00  0.00     0.048 C 
BRANCH  19  21
HETATM   21  C2  UNL     1      28.518  -0.529  53.691  1.00  0.00    -0.010 C 
HETATM   22  C1  UNL     1      29.439  -1.467  53.419  1.00  0.00     0.011 C 
ENDBRANCH  19  21
ENDBRANCH  17  18
ENDBRANCH   1  16
BRANCH   2  23
HETATM   23  O1  UNL     1      21.610  -1.265  54.894  1.00  0.00    -0.357 OA
HETATM   24  H10 UNL     1      21.325  -2.225  55.021  1.00  0.00     0.217 HD
ENDBRANCH   2  23
TORSDOF 4
ENDMDL
MODEL 6
REMARK VINA RESULT:      -7.6      3.028      4.918
REMARK  4 active torsions:
REMARK  status: ('A' for Active; 'I' for Inactive)
REMARK    1  A    between atoms: C2_2  and  C3_3 
REMARK    2  A    between atoms: C4_4  and  C6_6 
REMARK    3  A    between atoms: C7_7  and  C8_8 
REMARK    4  A    between atoms: C9_9  and  O1_10 
ROOT
HETATM    1  C8  UNL     1      23.464   1.188  51.905  1.00  0.00     0.030 A 
HETATM    2  C9  UNL     1      24.843   1.337  51.987  1.00  0.00     0.114 A 
HETATM    3  C10 UNL     1      25.638   0.749  52.923  1.00  0.00     0.137 A 
HETATM    4  C11 UNL     1      25.021  -0.053  53.858  1.00  0.00     0.119 A 
HETATM    5  C12 UNL     1      23.658  -0.252  53.846  1.00  0.00     0.059 A 
HETATM    6  C13 UNL     1      22.920   0.378  52.866  1.00  0.00     0.085 A 
HETATM    7  N1  UNL     1      21.572  -0.005  53.098  1.00  0.00    -0.257 NA
HETATM    8  C14 UNL     1      21.459  -0.789  54.111  1.00  0.00     0.149 A 
HETATM    9  C15 UNL     1      22.773  -1.030  54.695  1.00  0.00     0.081 A 
HETATM   10  N2  UNL     1      23.057  -1.762  55.719  1.00  0.00    -0.298 NA
HETATM   11  O2  UNL     1      25.803  -0.669  54.830  1.00  0.00    -0.345 OA
HETATM   12  C16 UNL     1      27.095  -0.086  55.054  1.00  0.00     0.202 C 
HETATM   13  C17 UNL     1      27.773   0.021  53.726  1.00  0.00     0.202 C 
HETATM   14  O3  UNL     1      27.013   0.950  52.937  1.00  0.00    -0.344 OA
HETATM   15  H12 UNL     1      24.031  -1.859  56.043  1.00  0.00     0.187 HD
ENDROOT
BRANCH   1  16
HETATM   16  C7  UNL     1      22.740   1.869  50.860  1.00  0.00     0.017 C 
HETATM   17  C6  UNL     1      22.146   1.333  49.814  1.00  0.00     0.007 C 
BRANCH  17  18
HETATM   18  C4  UNL     1      21.426   2.068  48.784  1.00  0.00    -0.062 C 
HETATM   19  C3  UNL     1      22.006   2.594  47.739  1.00  0.00     0.006 C 
HETATM   20  C5  UNL     1      19.969   2.345  48.734  1.00  0.00     0.048 C 
BRANCH  19  21
HETATM   21  C2  UNL     1      21.273   3.322  46.725  1.00  0.00    -0.010 C 
HETATM   22  C1  UNL     1      21.911   4.238  45.978  1.00  0.00     0.011 C 
ENDBRANCH  19  21
ENDBRANCH  17  18
ENDBRANCH   1  16
BRANCH   2  23
HETATM   23  O1  UNL     1      25.494   2.152  51.043  1.00  0.00    -0.357 OA
HETATM   24  H10 UNL     1      25.823   3.057  51.344  1.00  0.00     0.217 HD
ENDBRANCH   2  23
TORSDOF 4
ENDMDL
MODEL 7
REMARK VINA RESULT:      -7.5      2.169      3.056
REMARK  4 active torsions:
REMARK  status: ('A' for Active; 'I' for Inactive)
REMARK    1  A    between atoms: C2_2  and  C3_3 
REMARK    2  A    between atoms: C4_4  and  C6_6 
REMARK    3  A    between atoms: C7_7  and  C8_8 
REMARK    4  A    between atoms: C9_9  and  O1_10 
ROOT
HETATM    1  C8  UNL     1      21.866   0.663  52.693  1.00  0.00     0.030 A 
HETATM    2  C9  UNL     1      23.020  -0.006  53.083  1.00  0.00     0.114 A 
HETATM    3  C10 UNL     1      24.232   0.581  53.287  1.00  0.00     0.137 A 
HETATM    4  C11 UNL     1      24.314   1.941  53.089  1.00  0.00     0.119 A 
HETATM    5  C12 UNL     1      23.215   2.678  52.701  1.00  0.00     0.059 A 
HETATM    6  C13 UNL     1      22.022   2.012  52.515  1.00  0.00     0.085 A 
HETATM    7  N1  UNL     1      21.086   3.007  52.126  1.00  0.00    -0.257 NA
HETATM    8  C14 UNL     1      21.619   4.176  52.069  1.00  0.00     0.149 A 
HETATM    9  C15 UNL     1      23.029   4.092  52.428  1.00  0.00     0.081 A 
HETATM   10  N2  UNL     1      23.885   5.055  52.484  1.00  0.00    -0.298 NA
HETATM   11  O2  UNL     1      25.537   2.574  53.287  1.00  0.00    -0.345 OA
HETATM   12  C16 UNL     1      26.693   1.724  53.249  1.00  0.00     0.202 C 
HETATM   13  C17 UNL     1      26.447   0.594  54.198  1.00  0.00     0.202 C 
HETATM   14  O3  UNL     1      25.341  -0.160  53.678  1.00  0.00    -0.344 OA
HETATM   15  H12 UNL     1      24.865   4.874  52.753  1.00  0.00     0.187 HD
ENDROOT
BRANCH   1  16
HETATM   16  C7  UNL     1      20.645  -0.082  52.513  1.00  0.00     0.017 C 
HETATM   17  C6  UNL     1      19.662  -0.233  53.377  1.00  0.00     0.007 C 
BRANCH  17  18
HETATM   18  C4  UNL     1      18.445  -0.998  53.143  1.00  0.00    -0.062 C 
HETATM   19  C3  UNL     1      18.284  -2.231  53.543  1.00  0.00     0.006 C 
HETATM   20  C5  UNL     1      17.220  -0.542  52.441  1.00  0.00     0.048 C 
BRANCH  19  21
HETATM   21  C2  UNL     1      17.067  -2.976  53.302  1.00  0.00    -0.010 C 
HETATM   22  C1  UNL     1      16.972  -4.244  53.732  1.00  0.00     0.011 C 
ENDBRANCH  19  21
ENDBRANCH  17  18
ENDBRANCH   1  16
BRANCH   2  23
HETATM   23  O1  UNL     1      22.961  -1.396  53.292  1.00  0.00    -0.357 OA
HETATM   24  H10 UNL     1      22.086  -1.865  53.114  1.00  0.00     0.217 HD
ENDBRANCH   2  23
TORSDOF 4
ENDMDL
MODEL 8
REMARK VINA RESULT:      -7.5      2.785      6.290
REMARK  4 active torsions:
REMARK  status: ('A' for Active; 'I' for Inactive)
REMARK    1  A    between atoms: C2_2  and  C3_3 
REMARK    2  A    between atoms: C4_4  and  C6_6 
REMARK    3  A    between atoms: C7_7  and  C8_8 
REMARK    4  A    between atoms: C9_9  and  O1_10 
ROOT
HETATM    1  C8  UNL     1      25.629   2.646  51.120  1.00  0.00     0.030 A 
HETATM    2  C9  UNL     1      26.604   2.294  52.045  1.00  0.00     0.114 A 
HETATM    3  C10 UNL     1      26.442   1.384  53.044  1.00  0.00     0.137 A 
HETATM    4  C11 UNL     1      25.213   0.769  53.142  1.00  0.00     0.119 A 
HETATM    5  C12 UNL     1      24.192   1.063  52.264  1.00  0.00     0.059 A 
HETATM    6  C13 UNL     1      24.433   1.996  51.278  1.00  0.00     0.085 A 
HETATM    7  N1  UNL     1      23.224   2.090  50.539  1.00  0.00    -0.257 NA
HETATM    8  C14 UNL     1      22.313   1.309  50.999  1.00  0.00     0.149 A 
HETATM    9  C15 UNL     1      22.830   0.572  52.145  1.00  0.00     0.081 A 
HETATM   10  N2  UNL     1      22.209  -0.301  52.864  1.00  0.00    -0.298 NA
HETATM   11  O2  UNL     1      25.011  -0.166  54.152  1.00  0.00    -0.345 OA
HETATM   12  C16 UNL     1      25.922  -0.095  55.259  1.00  0.00     0.202 C 
HETATM   13  C17 UNL     1      27.308  -0.116  54.698  1.00  0.00     0.202 C 
HETATM   14  O3  UNL     1      27.470   1.087  53.930  1.00  0.00    -0.344 OA
HETATM   15  H12 UNL     1      22.682  -0.762  53.657  1.00  0.00     0.187 HD
ENDROOT
BRANCH   1  16
HETATM   16  C7  UNL     1      25.934   3.627  50.109  1.00  0.00     0.017 C 
HETATM   17  C6  UNL     1      25.581   4.896  50.089  1.00  0.00     0.007 C 
BRANCH  17  18
HETATM   18  C4  UNL     1      25.917   5.847  49.039  1.00  0.00    -0.062 C 
HETATM   19  C3  UNL     1      25.054   6.682  48.524  1.00  0.00     0.006 C 
HETATM   20  C5  UNL     1      27.238   6.037  48.391  1.00  0.00     0.048 C 
BRANCH  19  21
HETATM   21  C2  UNL     1      25.406   7.621  47.480  1.00  0.00    -0.010 C 
HETATM   22  C1  UNL     1      24.533   7.868  46.491  1.00  0.00     0.011 C 
ENDBRANCH  19  21
ENDBRANCH  17  18
ENDBRANCH   1  16
BRANCH   2  23
HETATM   23  O1  UNL     1      27.867   2.909  51.965  1.00  0.00    -0.357 OA
HETATM   24  H10 UNL     1      28.053   3.691  52.574  1.00  0.00     0.217 HD
ENDBRANCH   2  23
TORSDOF 4
ENDMDL
MODEL 9
REMARK VINA RESULT:      -7.3      1.459      1.972
REMARK  4 active torsions:
REMARK  status: ('A' for Active; 'I' for Inactive)
REMARK    1  A    between atoms: C2_2  and  C3_3 
REMARK    2  A    between atoms: C4_4  and  C6_6 
REMARK    3  A    between atoms: C7_7  and  C8_8 
REMARK    4  A    between atoms: C9_9  and  O1_10 
ROOT
HETATM    1  C8  UNL     1      23.033   1.220  52.364  1.00  0.00     0.030 A 
HETATM    2  C9  UNL     1      23.741   0.440  53.270  1.00  0.00     0.114 A 
HETATM    3  C10 UNL     1      25.092   0.471  53.440  1.00  0.00     0.137 A 
HETATM    4  C11 UNL     1      25.805   1.343  52.648  1.00  0.00     0.119 A 
HETATM    5  C12 UNL     1      25.179   2.152  51.725  1.00  0.00     0.059 A 
HETATM    6  C13 UNL     1      23.807   2.063  51.612  1.00  0.00     0.085 A 
HETATM    7  N1  UNL     1      23.447   2.995  50.602  1.00  0.00    -0.257 NA
HETATM    8  C14 UNL     1      24.470   3.609  50.122  1.00  0.00     0.149 A 
HETATM    9  C15 UNL     1      25.680   3.138  50.785  1.00  0.00     0.081 A 
HETATM   10  N2  UNL     1      26.894   3.521  50.571  1.00  0.00    -0.298 NA
HETATM   11  O2  UNL     1      27.188   1.400  52.794  1.00  0.00    -0.345 OA
HETATM   12  C16 UNL     1      27.797   0.262  53.421  1.00  0.00     0.202 C 
HETATM   13  C17 UNL     1      27.073   0.020  54.707  1.00  0.00     0.202 C 
HETATM   14  O3  UNL     1      25.725  -0.344  54.370  1.00  0.00    -0.344 OA
HETATM   15  H12 UNL     1      27.676   3.114  51.106  1.00  0.00     0.187 HD
ENDROOT
BRANCH   1  16
HETATM   16  C7  UNL     1      21.600   1.089  52.286  1.00  0.00     0.017 C 
HETATM   17  C6  UNL     1      20.910   0.219  51.578  1.00  0.00     0.007 C 
BRANCH  17  18
HETATM   18  C4  UNL     1      19.458   0.128  51.535  1.00  0.00    -0.062 C 
HETATM   19  C3  UNL     1      18.734   0.643  50.577  1.00  0.00     0.006 C 
HETATM   20  C5  UNL     1      18.571  -0.533  52.524  1.00  0.00     0.048 C 
BRANCH  19  21
HETATM   21  C2  UNL     1      17.291   0.544  50.551  1.00  0.00    -0.010 C 
HETATM   22  C1  UNL     1      16.633   0.758  49.401  1.00  0.00     0.011 C 
ENDBRANCH  19  21
ENDBRANCH  17  18
ENDBRANCH   1  16
BRANCH   2  23
HETATM   23  O1  UNL     1      23.033  -0.459  54.089  1.00  0.00    -0.357 OA
HETATM   24  H10 UNL     1      23.366  -1.409  54.149  1.00  0.00     0.217 HD
ENDBRANCH   2  23
TORSDOF 4
ENDMDL
