MODEL 1
REMARK VINA RESULT:      -8.0      0.000      0.000
REMARK  3 active torsions:
REMARK  status: ('A' for Active; 'I' for Inactive)
REMARK    1  A    between atoms: O1_2  and  C2_3 
REMARK    2  A    between atoms: N2_15  and  C12_16 
REMARK    3  A    between atoms: C13_18  and  O2_19 
ROOT
HETATM    1  C2  UNL     1      21.821   5.026  48.798  1.00  0.00     0.064 C 
HETATM    2  C3  UNL     1      22.737   5.731  48.101  1.00  0.00     0.011 C 
HETATM    3  C4  UNL     1      24.003   6.454  47.846  1.00  0.00     0.049 C 
HETATM    4  C5  UNL     1      24.921   6.402  49.077  1.00  0.00     0.083 C 
HETATM    5 BR1  UNL     1      26.501   7.417  48.560  1.00  0.00    -0.087 Br
HETATM    6  C6  UNL     1      25.228   5.000  49.429  1.00  0.00    -0.015 C 
HETATM    7  C7  UNL     1      25.415   3.712  49.649  1.00  0.00    -0.027 C 
HETATM    8  C8  UNL     1      26.218   2.850  50.529  1.00  0.00     0.054 C 
HETATM    9  C9  UNL     1      25.429   1.966  51.425  1.00  0.00     0.121 C 
HETATM   10  C10 UNL     1      24.003   2.335  51.661  1.00  0.00     0.084 C 
HETATM   11  C11 UNL     1      24.127   3.414  52.676  1.00  0.00     0.038 C 
HETATM   12  N1  UNL     1      24.843   2.678  53.459  1.00  0.00    -0.179 NA
HETATM   13  N2  UNL     1      25.928   2.097  52.783  1.00  0.00    -0.241 N 
HETATM   14  C15 UNL     1      23.407   4.676  52.267  1.00  0.00     0.083 C 
HETATM   15  C16 UNL     1      22.257   4.358  51.398  1.00  0.00    -0.018 C 
HETATM   16  C17 UNL     1      21.729   4.499  50.179  1.00  0.00     0.032 C 
ENDROOT
BRANCH  13  17
HETATM   17  C12 UNL     1      27.162   1.780  53.462  1.00  0.00     0.192 A 
HETATM   18  N3  UNL     1      28.105   2.237  53.927  1.00  0.00    -0.198 NA
HETATM   19  C13 UNL     1      29.120   1.634  54.513  1.00  0.00     0.171 A 
HETATM   20  C14 UNL     1      29.026   0.218  54.574  1.00  0.00     0.111 A 
HETATM   21  S1  UNL     1      27.375  -0.087  53.723  1.00  0.00    -0.058 SA
BRANCH  19  22
HETATM   22  O2  UNL     1      30.135   2.487  54.984  1.00  0.00    -0.344 OA
HETATM   23  H15 UNL     1      30.020   3.451  55.191  1.00  0.00     0.219 HD
ENDBRANCH  19  22
ENDBRANCH  13  17
BRANCH   1  24
HETATM   24  O1  UNL     1      20.656   4.701  48.052  1.00  0.00    -0.356 OA
HETATM   25  C1  UNL     1      20.218   3.385  47.857  1.00  0.00     0.210 C 
ENDBRANCH   1  24
TORSDOF 3
ENDMDL
MODEL 2
REMARK VINA RESULT:      -7.9      4.528      6.512
REMARK  3 active torsions:
REMARK  status: ('A' for Active; 'I' for Inactive)
REMARK    1  A    between atoms: O1_2  and  C2_3 
REMARK    2  A    between atoms: N2_15  and  C12_16 
REMARK    3  A    between atoms: C13_18  and  O2_19 
ROOT
HETATM    1  C2  UNL     1      20.974  -0.218  52.882  1.00  0.00     0.064 C 
HETATM    2  C3  UNL     1      22.060  -0.600  53.588  1.00  0.00     0.011 C 
HETATM    3  C4  UNL     1      23.493  -0.720  53.936  1.00  0.00     0.049 C 
HETATM    4  C5  UNL     1      24.365   0.070  52.947  1.00  0.00     0.083 C 
HETATM    5 BR1  UNL     1      26.192  -0.230  53.548  1.00  0.00    -0.087 Br
HETATM    6  C6  UNL     1      23.984   1.498  52.955  1.00  0.00    -0.015 C 
HETATM    7  C7  UNL     1      23.543   2.739  53.043  1.00  0.00    -0.027 C 
HETATM    8  C8  UNL     1      23.896   4.072  52.534  1.00  0.00     0.054 C 
HETATM    9  C9  UNL     1      22.850   4.717  51.699  1.00  0.00     0.121 C 
HETATM   10  C10 UNL     1      21.803   3.830  51.115  1.00  0.00     0.084 C 
HETATM   11  C11 UNL     1      22.509   3.243  49.947  1.00  0.00     0.038 C 
HETATM   12  N1  UNL     1      22.840   4.403  49.488  1.00  0.00    -0.179 NA
HETATM   13  N2  UNL     1      23.455   5.199  50.468  1.00  0.00    -0.241 N 
HETATM   14  C15 UNL     1      22.458   1.735  49.941  1.00  0.00     0.083 C 
HETATM   15  C16 UNL     1      21.234   1.255  50.612  1.00  0.00    -0.018 C 
HETATM   16  C17 UNL     1      20.747   0.567  51.647  1.00  0.00     0.032 C 
ENDROOT
BRANCH  13  17
HETATM   17  C12 UNL     1      24.431   6.205  50.125  1.00  0.00     0.192 A 
HETATM   18  N3  UNL     1      25.251   6.882  50.553  1.00  0.00    -0.198 NA
HETATM   19  C13 UNL     1      26.019   7.756  49.932  1.00  0.00     0.171 A 
HETATM   20  C14 UNL     1      25.793   7.869  48.534  1.00  0.00     0.111 A 
HETATM   21  S1  UNL     1      24.409   6.619  48.274  1.00  0.00    -0.058 SA
BRANCH  19  22
HETATM   22  O2  UNL     1      26.939   8.435  50.750  1.00  0.00    -0.344 OA
HETATM   23  H15 UNL     1      26.871   9.390  51.015  1.00  0.00     0.219 HD
ENDBRANCH  19  22
ENDBRANCH  13  17
BRANCH   1  24
HETATM   24  O1  UNL     1      19.743  -0.665  53.434  1.00  0.00    -0.356 OA
HETATM   25  C1  UNL     1      18.530  -0.608  52.736  1.00  0.00     0.210 C 
ENDBRANCH   1  24
TORSDOF 3
ENDMDL
MODEL 3
REMARK VINA RESULT:      -7.6      2.003      2.704
REMARK  3 active torsions:
REMARK  status: ('A' for Active; 'I' for Inactive)
REMARK    1  A    between atoms: O1_2  and  C2_3 
REMARK    2  A    between atoms: N2_15  and  C12_16 
REMARK    3  A    between atoms: C13_18  and  O2_19 
ROOT
HETATM    1  C2  UNL     1      23.775   7.259  47.067  1.00  0.00     0.064 C 
HETATM    2  C3  UNL     1      24.876   8.038  47.011  1.00  0.00     0.011 C 
HETATM    3  C4  UNL     1      26.138   8.659  47.473  1.00  0.00     0.049 C 
HETATM    4  C5  UNL     1      26.534   8.128  48.860  1.00  0.00     0.083 C 
HETATM    5 BR1  UNL     1      28.181   9.071  49.298  1.00  0.00    -0.087 Br
HETATM    6  C6  UNL     1      26.705   6.661  48.818  1.00  0.00    -0.015 C 
HETATM    7  C7  UNL     1      26.812   5.355  48.655  1.00  0.00    -0.027 C 
HETATM    8  C8  UNL     1      27.241   4.181  49.428  1.00  0.00     0.054 C 
HETATM    9  C9  UNL     1      26.186   3.157  49.644  1.00  0.00     0.121 C 
HETATM   10  C10 UNL     1      24.770   3.593  49.467  1.00  0.00     0.084 C 
HETATM   11  C11 UNL     1      24.496   4.285  50.753  1.00  0.00     0.038 C 
HETATM   12  N1  UNL     1      24.879   3.269  51.451  1.00  0.00    -0.179 NA
HETATM   13  N2  UNL     1      26.144   2.807  51.054  1.00  0.00    -0.241 N 
HETATM   14  C15 UNL     1      23.965   5.683  50.553  1.00  0.00     0.083 C 
HETATM   15  C16 UNL     1      23.223   5.779  49.280  1.00  0.00    -0.018 C 
HETATM   16  C17 UNL     1      23.183   6.346  48.072  1.00  0.00     0.032 C 
ENDROOT
BRANCH  13  17
HETATM   17  C12 UNL     1      27.041   2.162  51.982  1.00  0.00     0.192 A 
HETATM   18  N3  UNL     1      27.927   2.340  52.688  1.00  0.00    -0.198 NA
HETATM   19  C13 UNL     1      28.567   1.479  53.454  1.00  0.00     0.171 A 
HETATM   20  C14 UNL     1      28.087   0.144  53.392  1.00  0.00     0.111 A 
HETATM   21  S1  UNL     1      26.678   0.308  52.154  1.00  0.00    -0.058 SA
BRANCH  19  22
HETATM   22  O2  UNL     1      29.623   2.019  54.211  1.00  0.00    -0.344 OA
HETATM   23  H15 UNL     1      29.834   2.986  54.288  1.00  0.00     0.219 HD
ENDBRANCH  19  22
ENDBRANCH  13  17
BRANCH   1  24
HETATM   24  O1  UNL     1      22.974   7.312  45.894  1.00  0.00    -0.356 OA
HETATM   25  C1  UNL     1      23.181   8.245  44.871  1.00  0.00     0.210 C 
ENDBRANCH   1  24
TORSDOF 3
ENDMDL
MODEL 4
REMARK VINA RESULT:      -7.4      3.937      5.438
REMARK  3 active torsions:
REMARK  status: ('A' for Active; 'I' for Inactive)
REMARK    1  A    between atoms: O1_2  and  C2_3 
REMARK    2  A    between atoms: N2_15  and  C12_16 
REMARK    3  A    between atoms: C13_18  and  O2_19 
ROOT
HETATM    1  C2  UNL     1      25.816   7.140  49.577  1.00  0.00     0.064 C 
HETATM    2  C3  UNL     1      24.742   7.948  49.709  1.00  0.00     0.011 C 
HETATM    3  C4  UNL     1      23.314   8.318  49.823  1.00  0.00     0.049 C 
HETATM    4  C5  UNL     1      22.422   7.066  49.830  1.00  0.00     0.083 C 
HETATM    5 BR1  UNL     1      20.605   7.753  49.958  1.00  0.00    -0.087 Br
HETATM    6  C6  UNL     1      22.785   6.184  50.958  1.00  0.00    -0.015 C 
HETATM    7  C7  UNL     1      23.210   5.479  51.990  1.00  0.00    -0.027 C 
HETATM    8  C8  UNL     1      22.835   4.261  52.722  1.00  0.00     0.054 C 
HETATM    9  C9  UNL     1      23.864   3.189  52.717  1.00  0.00     0.121 C 
HETATM   10  C10 UNL     1      24.917   3.262  51.663  1.00  0.00     0.084 C 
HETATM   11  C11 UNL     1      24.207   2.718  50.477  1.00  0.00     0.038 C 
HETATM   12  N1  UNL     1      23.856   1.645  51.103  1.00  0.00    -0.179 NA
HETATM   13  N2  UNL     1      23.241   1.934  52.332  1.00  0.00    -0.241 N 
HETATM   14  C15 UNL     1      24.277   3.644  49.287  1.00  0.00     0.083 C 
HETATM   15  C16 UNL     1      25.514   4.449  49.330  1.00  0.00    -0.018 C 
HETATM   16  C17 UNL     1      26.020   5.680  49.431  1.00  0.00     0.032 C 
ENDROOT
BRANCH  13  17
HETATM   17  C12 UNL     1      22.248   1.057  52.907  1.00  0.00     0.192 A 
HETATM   18  N3  UNL     1      22.078   0.247  53.700  1.00  0.00    -0.198 NA
HETATM   19  C13 UNL     1      20.972  -0.406  53.999  1.00  0.00     0.171 A 
HETATM   20  C14 UNL     1      19.834  -0.049  53.226  1.00  0.00     0.111 A 
HETATM   21  S1  UNL     1      20.550   1.270  52.089  1.00  0.00    -0.058 SA
BRANCH  19  22
HETATM   22  O2  UNL     1      21.094  -1.349  55.034  1.00  0.00    -0.344 OA
HETATM   23  H15 UNL     1      21.652  -2.170  54.997  1.00  0.00     0.219 HD
ENDBRANCH  19  22
ENDBRANCH  13  17
BRANCH   1  24
HETATM   24  O1  UNL     1      27.057   7.830  49.571  1.00  0.00    -0.356 OA
HETATM   25  C1  UNL     1      27.225   9.101  50.134  1.00  0.00     0.210 C 
ENDBRANCH   1  24
TORSDOF 3
ENDMDL
MODEL 5
REMARK VINA RESULT:      -7.3      4.570      7.225
REMARK  3 active torsions:
REMARK  status: ('A' for Active; 'I' for Inactive)
REMARK    1  A    between atoms: O1_2  and  C2_3 
REMARK    2  A    between atoms: N2_15  and  C12_16 
REMARK    3  A    between atoms: C13_18  and  O2_19 
ROOT
HETATM    1  C2  UNL     1      22.812  -0.599  53.162  1.00  0.00     0.064 C 
HETATM    2  C3  UNL     1      24.080  -0.398  53.581  1.00  0.00     0.011 C 
HETATM    3  C4  UNL     1      25.443   0.179  53.590  1.00  0.00     0.049 C 
HETATM    4  C5  UNL     1      25.599   1.234  52.483  1.00  0.00     0.083 C 
HETATM    5 BR1  UNL     1      27.441   1.846  52.640  1.00  0.00    -0.087 Br
HETATM    6  C6  UNL     1      24.614   2.319  52.667  1.00  0.00    -0.015 C 
HETATM    7  C7  UNL     1      23.682   3.216  52.931  1.00  0.00    -0.027 C 
HETATM    8  C8  UNL     1      23.252   4.534  52.440  1.00  0.00     0.054 C 
HETATM    9  C9  UNL     1      21.867   4.578  51.903  1.00  0.00     0.121 C 
HETATM   10  C10 UNL     1      21.248   3.278  51.514  1.00  0.00     0.084 C 
HETATM   11  C11 UNL     1      21.859   3.029  50.182  1.00  0.00     0.038 C 
HETATM   12  N1  UNL     1      21.501   4.186  49.735  1.00  0.00    -0.179 NA
HETATM   13  N2  UNL     1      21.882   5.224  50.602  1.00  0.00    -0.241 N 
HETATM   14  C15 UNL     1      22.511   1.672  50.092  1.00  0.00     0.083 C 
HETATM   15  C16 UNL     1      21.837   0.712  50.989  1.00  0.00    -0.018 C 
HETATM   16  C17 UNL     1      21.974  -0.072  52.061  1.00  0.00     0.032 C 
ENDROOT
BRANCH  13  17
HETATM   17  C12 UNL     1      22.175   6.550  50.112  1.00  0.00     0.192 A 
HETATM   18  N3  UNL     1      23.027   7.272  49.851  1.00  0.00    -0.198 NA
HETATM   19  C13 UNL     1      22.960   8.506  49.393  1.00  0.00     0.171 A 
HETATM   20  C14 UNL     1      21.645   9.007  49.199  1.00  0.00     0.111 A 
HETATM   21  S1  UNL     1      20.599   7.537  49.737  1.00  0.00    -0.058 SA
BRANCH  19  22
HETATM   22  O2  UNL     1      24.200   9.131  49.169  1.00  0.00    -0.344 OA
HETATM   23  H15 UNL     1      24.812   9.457  49.880  1.00  0.00     0.219 HD
ENDBRANCH  19  22
ENDBRANCH  13  17
BRANCH   1  24
HETATM   24  O1  UNL     1      22.090  -1.539  53.946  1.00  0.00    -0.356 OA
HETATM   25  C1  UNL     1      20.758  -1.346  54.330  1.00  0.00     0.210 C 
ENDBRANCH   1  24
TORSDOF 3
ENDMDL
MODEL 6
REMARK VINA RESULT:      -7.3      4.262      7.902
REMARK  3 active torsions:
REMARK  status: ('A' for Active; 'I' for Inactive)
REMARK    1  A    between atoms: O1_2  and  C2_3 
REMARK    2  A    between atoms: N2_15  and  C12_16 
REMARK    3  A    between atoms: C13_18  and  O2_19 
ROOT
HETATM    1  C2  UNL     1      25.076  -0.125  53.670  1.00  0.00     0.064 C 
HETATM    2  C3  UNL     1      23.908  -0.798  53.723  1.00  0.00     0.011 C 
HETATM    3  C4  UNL     1      22.443  -1.004  53.674  1.00  0.00     0.049 C 
HETATM    4  C5  UNL     1      21.717   0.306  53.327  1.00  0.00     0.083 C 
HETATM    5 BR1  UNL     1      19.826  -0.158  53.337  1.00  0.00    -0.087 Br
HETATM    6  C6  UNL     1      22.178   0.817  52.020  1.00  0.00    -0.015 C 
HETATM    7  C7  UNL     1      22.680   1.175  50.852  1.00  0.00    -0.027 C 
HETATM    8  C8  UNL     1      22.455   2.203  49.826  1.00  0.00     0.054 C 
HETATM    9  C9  UNL     1      23.611   3.103  49.581  1.00  0.00     0.121 C 
HETATM   10  C10 UNL     1      24.656   3.171  50.643  1.00  0.00     0.084 C 
HETATM   11  C11 UNL     1      24.033   4.085  51.634  1.00  0.00     0.038 C 
HETATM   12  N1  UNL     1      23.815   4.997  50.747  1.00  0.00    -0.179 NA
HETATM   13  N2  UNL     1      23.156   4.482  49.618  1.00  0.00    -0.241 N 
HETATM   14  C15 UNL     1      23.996   3.493  53.022  1.00  0.00     0.083 C 
HETATM   15  C16 UNL     1      25.120   2.556  53.215  1.00  0.00    -0.018 C 
HETATM   16  C17 UNL     1      25.466   1.286  53.443  1.00  0.00     0.032 C 
ENDROOT
BRANCH  13  17
HETATM   17  C12 UNL     1      22.277   5.299  48.816  1.00  0.00     0.192 A 
HETATM   18  N3  UNL     1      22.075   5.669  47.749  1.00  0.00    -0.198 NA
HETATM   19  C13 UNL     1      21.121   6.466  47.312  1.00  0.00     0.171 A 
HETATM   20  C14 UNL     1      20.220   6.930  48.307  1.00  0.00     0.111 A 
HETATM   21  S1  UNL     1      20.907   6.103  49.852  1.00  0.00    -0.058 SA
BRANCH  19  22
HETATM   22  O2  UNL     1      21.147   6.731  45.931  1.00  0.00    -0.344 OA
HETATM   23  H15 UNL     1      21.110   7.636  45.521  1.00  0.00     0.219 HD
ENDBRANCH  19  22
ENDBRANCH  13  17
BRANCH   1  24
HETATM   24  O1  UNL     1      26.221  -0.940  53.880  1.00  0.00    -0.356 OA
HETATM   25  C1  UNL     1      27.417  -0.771  53.172  1.00  0.00     0.210 C 
ENDBRANCH   1  24
TORSDOF 3
ENDMDL
MODEL 7
REMARK VINA RESULT:      -7.3      4.763      6.653
REMARK  3 active torsions:
REMARK  status: ('A' for Active; 'I' for Inactive)
REMARK    1  A    between atoms: O1_2  and  C2_3 
REMARK    2  A    between atoms: N2_15  and  C12_16 
REMARK    3  A    between atoms: C13_18  and  O2_19 
ROOT
HETATM    1  C2  UNL     1      24.464   5.333  49.678  1.00  0.00     0.064 C 
HETATM    2  C3  UNL     1      25.443   4.410  49.785  1.00  0.00     0.011 C 
HETATM    3  C4  UNL     1      26.151   3.220  50.307  1.00  0.00     0.049 C 
HETATM    4  C5  UNL     1      25.316   2.516  51.388  1.00  0.00     0.083 C 
HETATM    5 BR1  UNL     1      26.413   1.012  51.960  1.00  0.00    -0.087 Br
HETATM    6  C6  UNL     1      24.010   2.099  50.837  1.00  0.00    -0.015 C 
HETATM    7  C7  UNL     1      22.877   1.791  50.233  1.00  0.00    -0.027 C 
HETATM    8  C8  UNL     1      21.644   1.042  50.520  1.00  0.00     0.054 C 
HETATM    9  C9  UNL     1      20.399   1.851  50.476  1.00  0.00     0.121 C 
HETATM   10  C10 UNL     1      20.546   3.331  50.593  1.00  0.00     0.084 C 
HETATM   11  C11 UNL     1      20.725   3.511  52.057  1.00  0.00     0.038 C 
HETATM   12  N1  UNL     1      19.653   2.847  52.331  1.00  0.00    -0.179 NA
HETATM   13  N2  UNL     1      19.628   1.601  51.682  1.00  0.00    -0.241 N 
HETATM   14  C15 UNL     1      21.964   4.305  52.392  1.00  0.00     0.083 C 
HETATM   15  C16 UNL     1      22.285   5.248  51.303  1.00  0.00    -0.018 C 
HETATM   16  C17 UNL     1      23.177   5.583  50.367  1.00  0.00     0.032 C 
ENDROOT
BRANCH  13  17
HETATM   17  C12 UNL     1      18.939   0.466  52.248  1.00  0.00     0.192 A 
HETATM   18  N3  UNL     1      19.053  -0.422  52.964  1.00  0.00    -0.198 NA
HETATM   19  C13 UNL     1      18.173  -1.347  53.291  1.00  0.00     0.171 A 
HETATM   20  C14 UNL     1      16.903  -1.218  52.665  1.00  0.00     0.111 A 
HETATM   21  S1  UNL     1      17.157   0.322  51.613  1.00  0.00    -0.058 SA
BRANCH  19  22
HETATM   22  O2  UNL     1      18.627  -2.312  54.207  1.00  0.00    -0.344 OA
HETATM   23  H15 UNL     1      19.578  -2.471  54.445  1.00  0.00     0.219 HD
ENDBRANCH  19  22
ENDBRANCH  13  17
BRANCH   1  24
HETATM   24  O1  UNL     1      24.701   6.310  48.674  1.00  0.00    -0.356 OA
HETATM   25  C1  UNL     1      25.941   6.938  48.501  1.00  0.00     0.210 C 
ENDBRANCH   1  24
TORSDOF 3
ENDMDL
MODEL 8
REMARK VINA RESULT:      -7.2      5.229      8.355
REMARK  3 active torsions:
REMARK  status: ('A' for Active; 'I' for Inactive)
REMARK    1  A    between atoms: O1_2  and  C2_3 
REMARK    2  A    between atoms: N2_15  and  C12_16 
REMARK    3  A    between atoms: C13_18  and  O2_19 
ROOT
HETATM    1  C2  UNL     1      22.497   0.316  53.502  1.00  0.00     0.064 C 
HETATM    2  C3  UNL     1      21.309  -0.307  53.358  1.00  0.00     0.011 C 
HETATM    3  C4  UNL     1      19.923  -0.519  52.883  1.00  0.00     0.049 C 
HETATM    4  C5  UNL     1      19.487   0.616  51.942  1.00  0.00     0.083 C 
HETATM    5 BR1  UNL     1      17.654   0.177  51.454  1.00  0.00    -0.087 Br
HETATM    6  C6  UNL     1      20.391   0.691  50.777  1.00  0.00    -0.015 C 
HETATM    7  C7  UNL     1      21.273   0.665  49.795  1.00  0.00    -0.027 C 
HETATM    8  C8  UNL     1      21.496   1.319  48.497  1.00  0.00     0.054 C 
HETATM    9  C9  UNL     1      22.758   2.097  48.400  1.00  0.00     0.121 C 
HETATM   10  C10 UNL     1      23.411   2.496  49.680  1.00  0.00     0.084 C 
HETATM   11  C11 UNL     1      22.603   3.675  50.087  1.00  0.00     0.038 C 
HETATM   12  N1  UNL     1      22.777   4.262  48.951  1.00  0.00    -0.179 NA
HETATM   13  N2  UNL     1      22.462   3.419  47.872  1.00  0.00    -0.241 N 
HETATM   14  C15 UNL     1      22.065   3.547  51.491  1.00  0.00     0.083 C 
HETATM   15  C16 UNL     1      22.964   2.719  52.318  1.00  0.00    -0.018 C 
HETATM   16  C17 UNL     1      23.084   1.585  53.013  1.00  0.00     0.032 C 
ENDROOT
BRANCH  13  17
HETATM   17  C12 UNL     1      21.975   3.943  46.618  1.00  0.00     0.192 A 
HETATM   18  N3  UNL     1      21.632   3.649  45.564  1.00  0.00    -0.198 NA
HETATM   19  C13 UNL     1      21.217   4.421  44.579  1.00  0.00     0.171 A 
HETATM   20  C14 UNL     1      21.192   5.811  44.872  1.00  0.00     0.111 A 
HETATM   21  S1  UNL     1      21.812   5.832  46.649  1.00  0.00    -0.058 SA
BRANCH  19  22
HETATM   22  O2  UNL     1      20.864   3.746  43.396  1.00  0.00    -0.344 OA
HETATM   23  H15 UNL     1      21.342   2.960  43.023  1.00  0.00     0.219 HD
ENDBRANCH  19  22
ENDBRANCH  13  17
BRANCH   1  24
HETATM   24  O1  UNL     1      23.423  -0.391  54.316  1.00  0.00    -0.356 OA
HETATM   25  C1  UNL     1      23.027  -1.279  55.324  1.00  0.00     0.210 C 
ENDBRANCH   1  24
TORSDOF 3
ENDMDL
MODEL 9
REMARK VINA RESULT:      -6.9      3.070      4.081
REMARK  3 active torsions:
REMARK  status: ('A' for Active; 'I' for Inactive)
REMARK    1  A    between atoms: O1_2  and  C2_3 
REMARK    2  A    between atoms: N2_15  and  C12_16 
REMARK    3  A    between atoms: C13_18  and  O2_19 
ROOT
HETATM    1  C2  UNL     1      20.826   5.280  50.120  1.00  0.00     0.064 C 
HETATM    2  C3  UNL     1      19.895   4.412  50.569  1.00  0.00     0.011 C 
HETATM    3  C4  UNL     1      19.311   3.106  50.949  1.00  0.00     0.049 C 
HETATM    4  C5  UNL     1      20.344   1.978  50.793  1.00  0.00     0.083 C 
HETATM    5 BR1  UNL     1      19.391   0.360  51.308  1.00  0.00    -0.087 Br
HETATM    6  C6  UNL     1      21.525   2.244  51.639  1.00  0.00    -0.015 C 
HETATM    7  C7  UNL     1      22.526   2.601  52.423  1.00  0.00    -0.027 C 
HETATM    8  C8  UNL     1      23.798   2.044  52.907  1.00  0.00     0.054 C 
HETATM    9  C9  UNL     1      25.004   2.825  52.528  1.00  0.00     0.121 C 
HETATM   10  C10 UNL     1      24.867   3.777  51.388  1.00  0.00     0.084 C 
HETATM   11  C11 UNL     1      24.967   2.872  50.214  1.00  0.00     0.038 C 
HETATM   12  N1  UNL     1      26.079   2.361  50.626  1.00  0.00    -0.179 NA
HETATM   13  N2  UNL     1      25.993   1.925  51.958  1.00  0.00    -0.241 N 
HETATM   14  C15 UNL     1      23.807   3.032  49.263  1.00  0.00     0.083 C 
HETATM   15  C16 UNL     1      23.275   4.407  49.321  1.00  0.00    -0.018 C 
HETATM   16  C17 UNL     1      22.218   5.164  49.627  1.00  0.00     0.032 C 
ENDROOT
BRANCH  13  17
HETATM   17  C12 UNL     1      26.788   0.824  52.448  1.00  0.00     0.192 A 
HETATM   18  N3  UNL     1      26.848  -0.319  52.508  1.00  0.00    -0.198 NA
HETATM   19  C13 UNL     1      27.771  -1.077  53.065  1.00  0.00     0.171 A 
HETATM   20  C14 UNL     1      28.842  -0.370  53.676  1.00  0.00     0.111 A 
HETATM   21  S1  UNL     1      28.349   1.417  53.349  1.00  0.00    -0.058 SA
BRANCH  19  22
HETATM   22  O2  UNL     1      27.551  -2.462  52.966  1.00  0.00    -0.344 OA
HETATM   23  H15 UNL     1      28.247  -3.161  53.087  1.00  0.00     0.219 HD
ENDBRANCH  19  22
ENDBRANCH  13  17
BRANCH   1  24
HETATM   24  O1  UNL     1      20.392   6.632  50.106  1.00  0.00    -0.356 OA
HETATM   25  C1  UNL     1      20.791   7.550  49.126  1.00  0.00     0.210 C 
ENDBRANCH   1  24
TORSDOF 3
ENDMDL
