MODEL 1
REMARK VINA RESULT:      -7.7      0.000      0.000
REMARK  4 active torsions:
REMARK  status: ('A' for Active; 'I' for Inactive)
REMARK    1  A    between atoms: C3_3  and  N1_4 
REMARK    2  A    between atoms: N1_4  and  O1_5 
REMARK    3  A    between atoms: N1_4  and  C4_6 
REMARK    4  A    between atoms: C9_13  and  N4_14 
ROOT
HETATM    1  C1  UNL     1      30.144  -1.492  53.821  1.00  0.00     0.113 C 
HETATM    2  C2  UNL     1      29.255  -0.323  53.630  1.00  0.00    -0.086 C 
HETATM    3  C3  UNL     1      28.532   0.596  53.475  1.00  0.00     0.040 C 
ENDROOT
BRANCH   3   4
HETATM    4  N1  UNL     1      27.667   1.669  53.273  1.00  0.00    -0.181 N 
BRANCH   4   5
HETATM    5  O1  UNL     1      27.858   2.841  53.902  1.00  0.00    -0.275 OA
HETATM    6  H4  UNL     1      28.627   2.741  54.500  1.00  0.00     0.246 HD
ENDBRANCH   4   5
BRANCH   4   7
HETATM    7  C4  UNL     1      26.506   1.859  52.497  1.00  0.00     0.073 A 
HETATM    8  C5  UNL     1      25.492   0.975  52.868  1.00  0.00     0.035 A 
HETATM    9  C6  UNL     1      24.245   1.005  52.250  1.00  0.00     0.035 A 
HETATM   10  C7  UNL     1      23.976   1.906  51.254  1.00  0.00     0.072 A 
HETATM   11  N2  UNL     1      22.798   2.036  50.580  1.00  0.00    -0.241 NA
HETATM   12  C15 UNL     1      24.960   2.788  50.872  1.00  0.00     0.041 A 
HETATM   13  C8  UNL     1      22.667   2.968  49.631  1.00  0.00     0.236 A 
HETATM   14  N3  UNL     1      23.655   3.823  49.276  1.00  0.00    -0.223 NA
HETATM   15  C9  UNL     1      24.864   3.756  49.903  1.00  0.00     0.147 A 
HETATM   16  C16 UNL     1      26.229   2.782  51.476  1.00  0.00     0.050 A 
BRANCH  15  17
HETATM   17  N4  UNL     1      25.856   4.676  49.486  1.00  0.00    -0.316 N 
HETATM   18  C10 UNL     1      27.074   4.346  48.841  1.00  0.00     0.094 A 
HETATM   19  C11 UNL     1      27.867   5.365  48.516  1.00  0.00    -0.004 A 
HETATM   20  C12 UNL     1      27.628   6.807  48.747  1.00  0.00     0.076 A 
HETATM   21  C13 UNL     1      26.318   6.999  49.425  1.00  0.00     0.008 A 
HETATM   22 BR1  UNL     1      25.932   8.862  49.749  1.00  0.00    -0.054 Br
HETATM   23  C14 UNL     1      25.482   6.038  49.778  1.00  0.00     0.113 A 
ENDBRANCH  15  17
ENDBRANCH   4   7
ENDBRANCH   3   4
TORSDOF 4
ENDMDL
MODEL 2
REMARK VINA RESULT:      -7.7      3.363      6.089
REMARK  4 active torsions:
REMARK  status: ('A' for Active; 'I' for Inactive)
REMARK    1  A    between atoms: C3_3  and  N1_4 
REMARK    2  A    between atoms: N1_4  and  O1_5 
REMARK    3  A    between atoms: N1_4  and  C4_6 
REMARK    4  A    between atoms: C9_13  and  N4_14 
ROOT
HETATM    1  C1  UNL     1      18.429   0.357  51.264  1.00  0.00     0.113 C 
HETATM    2  C2  UNL     1      19.432  -0.104  52.252  1.00  0.00    -0.086 C 
HETATM    3  C3  UNL     1      20.241  -0.455  53.035  1.00  0.00     0.040 C 
ENDROOT
BRANCH   3   4
HETATM    4  N1  UNL     1      21.214  -0.860  53.946  1.00  0.00    -0.181 N 
BRANCH   4   5
HETATM    5  O1  UNL     1      20.903  -1.650  54.987  1.00  0.00    -0.275 OA
HETATM    6  H4  UNL     1      20.244  -2.307  54.681  1.00  0.00     0.246 HD
ENDBRANCH   4   5
BRANCH   4   7
HETATM    7  C4  UNL     1      22.596  -0.618  54.075  1.00  0.00     0.073 A 
HETATM    8  C5  UNL     1      23.141  -1.320  55.151  1.00  0.00     0.035 A 
HETATM    9  C6  UNL     1      24.500  -1.249  55.447  1.00  0.00     0.035 A 
HETATM   10  C7  UNL     1      25.345  -0.484  54.689  1.00  0.00     0.072 A 
HETATM   11  N2  UNL     1      26.687  -0.339  54.874  1.00  0.00    -0.241 NA
HETATM   12  C15 UNL     1      24.832   0.217  53.622  1.00  0.00     0.041 A 
HETATM   13  C8  UNL     1      27.400   0.436  54.051  1.00  0.00     0.236 A 
HETATM   14  N3  UNL     1      26.865   1.115  53.009  1.00  0.00    -0.223 NA
HETATM   15  C9  UNL     1      25.529   1.023  52.757  1.00  0.00     0.147 A 
HETATM   16  C16 UNL     1      23.465   0.167  53.298  1.00  0.00     0.050 A 
BRANCH  15  17
HETATM   17  N4  UNL     1      25.030   1.757  51.653  1.00  0.00    -0.316 N 
HETATM   18  C10 UNL     1      23.692   1.744  51.186  1.00  0.00     0.094 A 
HETATM   19  C11 UNL     1      23.424   2.522  50.139  1.00  0.00    -0.004 A 
HETATM   20  C12 UNL     1      24.358   3.402  49.402  1.00  0.00     0.076 A 
HETATM   21  C13 UNL     1      25.715   3.315  50.005  1.00  0.00     0.008 A 
HETATM   22 BR1  UNL     1      26.987   4.449  49.101  1.00  0.00    -0.054 Br
HETATM   23  C14 UNL     1      26.054   2.566  51.040  1.00  0.00     0.113 A 
ENDBRANCH  15  17
ENDBRANCH   4   7
ENDBRANCH   3   4
TORSDOF 4
ENDMDL
MODEL 3
REMARK VINA RESULT:      -7.6      3.686      4.832
REMARK  4 active torsions:
REMARK  status: ('A' for Active; 'I' for Inactive)
REMARK    1  A    between atoms: C3_3  and  N1_4 
REMARK    2  A    between atoms: N1_4  and  O1_5 
REMARK    3  A    between atoms: N1_4  and  C4_6 
REMARK    4  A    between atoms: C9_13  and  N4_14 
ROOT
HETATM    1  C1  UNL     1      29.992  -1.243  53.491  1.00  0.00     0.113 C 
HETATM    2  C2  UNL     1      28.666  -0.630  53.736  1.00  0.00    -0.086 C 
HETATM    3  C3  UNL     1      27.613  -0.129  53.917  1.00  0.00     0.040 C 
ENDROOT
BRANCH   3   4
HETATM    4  N1  UNL     1      26.380   0.483  54.124  1.00  0.00    -0.181 N 
BRANCH   4   5
HETATM    5  O1  UNL     1      26.292   1.804  54.354  1.00  0.00    -0.275 OA
HETATM    6  H4  UNL     1      27.058   2.237  53.923  1.00  0.00     0.246 HD
ENDBRANCH   4   5
BRANCH   4   7
HETATM    7  C4  UNL     1      25.051   0.018  54.168  1.00  0.00     0.073 A 
HETATM    8  C5  UNL     1      24.855  -0.877  55.221  1.00  0.00     0.035 A 
HETATM    9  C6  UNL     1      23.606  -1.440  55.468  1.00  0.00     0.035 A 
HETATM   10  C7  UNL     1      22.528  -1.132  54.682  1.00  0.00     0.072 A 
HETATM   11  N2  UNL     1      21.261  -1.612  54.827  1.00  0.00    -0.241 NA
HETATM   12  C15 UNL     1      22.696  -0.252  53.639  1.00  0.00     0.041 A 
HETATM   13  C8  UNL     1      20.295  -1.221  53.990  1.00  0.00     0.236 A 
HETATM   14  N3  UNL     1      20.490  -0.352  52.970  1.00  0.00    -0.223 NA
HETATM   15  C9  UNL     1      21.730   0.173  52.759  1.00  0.00     0.147 A 
HETATM   16  C16 UNL     1      23.944   0.333  53.362  1.00  0.00     0.050 A 
BRANCH  15  17
HETATM   17  N4  UNL     1      21.872   1.075  51.676  1.00  0.00    -0.316 N 
HETATM   18  C10 UNL     1      21.800   0.738  50.302  1.00  0.00     0.094 A 
HETATM   19  C11 UNL     1      21.944   1.742  49.439  1.00  0.00    -0.004 A 
HETATM   20  C12 UNL     1      22.169   3.172  49.743  1.00  0.00     0.076 A 
HETATM   21  C13 UNL     1      22.218   3.373  51.216  1.00  0.00     0.008 A 
HETATM   22 BR1  UNL     1      22.497   5.222  51.690  1.00  0.00    -0.054 Br
HETATM   23  C14 UNL     1      22.085   2.427  52.130  1.00  0.00     0.113 A 
ENDBRANCH  15  17
ENDBRANCH   4   7
ENDBRANCH   3   4
TORSDOF 4
ENDMDL
MODEL 4
REMARK VINA RESULT:      -7.5      1.726      2.372
REMARK  4 active torsions:
REMARK  status: ('A' for Active; 'I' for Inactive)
REMARK    1  A    between atoms: C3_3  and  N1_4 
REMARK    2  A    between atoms: N1_4  and  O1_5 
REMARK    3  A    between atoms: N1_4  and  C4_6 
REMARK    4  A    between atoms: C9_13  and  N4_14 
ROOT
HETATM    1  C1  UNL     1      30.149  -1.394  53.823  1.00  0.00     0.113 C 
HETATM    2  C2  UNL     1      29.106  -0.343  53.810  1.00  0.00    -0.086 C 
HETATM    3  C3  UNL     1      28.269   0.488  53.782  1.00  0.00     0.040 C 
ENDROOT
BRANCH   3   4
HETATM    4  N1  UNL     1      27.286   1.473  53.725  1.00  0.00    -0.181 N 
BRANCH   4   5
HETATM    5  O1  UNL     1      27.538   2.729  54.128  1.00  0.00    -0.275 OA
HETATM    6  H4  UNL     1      27.911   3.221  53.368  1.00  0.00     0.246 HD
ENDBRANCH   4   5
BRANCH   4   7
HETATM    7  C4  UNL     1      25.938   1.488  53.314  1.00  0.00     0.073 A 
HETATM    8  C5  UNL     1      25.264   0.335  53.723  1.00  0.00     0.035 A 
HETATM    9  C6  UNL     1      23.912   0.153  53.448  1.00  0.00     0.035 A 
HETATM   10  C7  UNL     1      23.199   1.101  52.765  1.00  0.00     0.072 A 
HETATM   11  N2  UNL     1      21.876   1.040  52.442  1.00  0.00    -0.241 NA
HETATM   12  C15 UNL     1      23.840   2.246  52.353  1.00  0.00     0.041 A 
HETATM   13  C8  UNL     1      21.300   2.045  51.777  1.00  0.00     0.236 A 
HETATM   14  N3  UNL     1      21.958   3.161  51.383  1.00  0.00    -0.223 NA
HETATM   15  C9  UNL     1      23.284   3.298  51.667  1.00  0.00     0.147 A 
HETATM   16  C16 UNL     1      25.205   2.460  52.614  1.00  0.00     0.050 A 
BRANCH  15  17
HETATM   17  N4  UNL     1      23.917   4.487  51.228  1.00  0.00    -0.316 N 
HETATM   18  C10 UNL     1      23.537   5.806  51.579  1.00  0.00     0.094 A 
HETATM   19  C11 UNL     1      24.276   6.789  51.069  1.00  0.00    -0.004 A 
HETATM   20  C12 UNL     1      25.452   6.670  50.179  1.00  0.00     0.076 A 
HETATM   21  C13 UNL     1      25.732   5.235  49.903  1.00  0.00     0.008 A 
HETATM   22 BR1  UNL     1      27.265   5.001  48.755  1.00  0.00    -0.054 Br
HETATM   23  C14 UNL     1      25.042   4.209  50.371  1.00  0.00     0.113 A 
ENDBRANCH  15  17
ENDBRANCH   4   7
ENDBRANCH   3   4
TORSDOF 4
ENDMDL
MODEL 5
REMARK VINA RESULT:      -7.3      3.927      6.706
REMARK  4 active torsions:
REMARK  status: ('A' for Active; 'I' for Inactive)
REMARK    1  A    between atoms: C3_3  and  N1_4 
REMARK    2  A    between atoms: N1_4  and  O1_5 
REMARK    3  A    between atoms: N1_4  and  C4_6 
REMARK    4  A    between atoms: C9_13  and  N4_14 
ROOT
HETATM    1  C1  UNL     1      21.668   3.391  46.122  1.00  0.00     0.113 C 
HETATM    2  C2  UNL     1      22.297   3.182  47.447  1.00  0.00    -0.086 C 
HETATM    3  C3  UNL     1      22.810   3.032  48.498  1.00  0.00     0.040 C 
ENDROOT
BRANCH   3   4
HETATM    4  N1  UNL     1      23.435   2.863  49.731  1.00  0.00    -0.181 N 
BRANCH   4   5
HETATM    5  O1  UNL     1      24.451   3.659  50.108  1.00  0.00    -0.275 OA
HETATM    6  H4  UNL     1      24.094   4.332  50.723  1.00  0.00     0.246 HD
ENDBRANCH   4   5
BRANCH   4   7
HETATM    7  C4  UNL     1      23.264   1.963  50.802  1.00  0.00     0.073 A 
HETATM    8  C5  UNL     1      21.960   1.466  50.849  1.00  0.00     0.035 A 
HETATM    9  C6  UNL     1      21.575   0.539  51.814  1.00  0.00     0.035 A 
HETATM   10  C7  UNL     1      22.467   0.085  52.748  1.00  0.00     0.072 A 
HETATM   11  N2  UNL     1      22.213  -0.821  53.734  1.00  0.00    -0.241 NA
HETATM   12  C15 UNL     1      23.758   0.560  52.721  1.00  0.00     0.041 A 
HETATM   13  C8  UNL     1      23.182  -1.185  54.579  1.00  0.00     0.236 A 
HETATM   14  N3  UNL     1      24.445  -0.699  54.527  1.00  0.00    -0.223 NA
HETATM   15  C9  UNL     1      24.779   0.212  53.571  1.00  0.00     0.147 A 
HETATM   16  C16 UNL     1      24.177   1.497  51.761  1.00  0.00     0.050 A 
BRANCH  15  17
HETATM   17  N4  UNL     1      26.115   0.683  53.569  1.00  0.00    -0.316 N 
HETATM   18  C10 UNL     1      26.515   2.042  53.608  1.00  0.00     0.094 A 
HETATM   19  C11 UNL     1      27.826   2.273  53.615  1.00  0.00    -0.004 A 
HETATM   20  C12 UNL     1      28.920   1.278  53.590  1.00  0.00     0.076 A 
HETATM   21  C13 UNL     1      28.352  -0.096  53.554  1.00  0.00     0.008 A 
HETATM   22 BR1  UNL     1      29.725  -1.452  53.532  1.00  0.00    -0.054 Br
HETATM   23  C14 UNL     1      27.065  -0.401  53.543  1.00  0.00     0.113 A 
ENDBRANCH  15  17
ENDBRANCH   4   7
ENDBRANCH   3   4
TORSDOF 4
ENDMDL
MODEL 6
REMARK VINA RESULT:      -7.3      3.088      6.396
REMARK  4 active torsions:
REMARK  status: ('A' for Active; 'I' for Inactive)
REMARK    1  A    between atoms: C3_3  and  N1_4 
REMARK    2  A    between atoms: N1_4  and  O1_5 
REMARK    3  A    between atoms: N1_4  and  C4_6 
REMARK    4  A    between atoms: C9_13  and  N4_14 
ROOT
HETATM    1  C1  UNL     1      25.736   8.212  47.462  1.00  0.00     0.113 C 
HETATM    2  C2  UNL     1      25.948   6.920  48.154  1.00  0.00    -0.086 C 
HETATM    3  C3  UNL     1      26.135   5.897  48.711  1.00  0.00     0.040 C 
ENDROOT
BRANCH   3   4
HETATM    4  N1  UNL     1      26.379   4.690  49.361  1.00  0.00    -0.181 N 
BRANCH   4   5
HETATM    5  O1  UNL     1      27.610   4.151  49.383  1.00  0.00    -0.275 OA
HETATM    6  H4  UNL     1      28.073   4.489  50.177  1.00  0.00     0.246 HD
ENDBRANCH   4   5
BRANCH   4   7
HETATM    7  C4  UNL     1      25.572   3.781  50.075  1.00  0.00     0.073 A 
HETATM    8  C5  UNL     1      24.235   3.866  49.684  1.00  0.00     0.035 A 
HETATM    9  C6  UNL     1      23.265   3.038  50.242  1.00  0.00     0.035 A 
HETATM   10  C7  UNL     1      23.595   2.111  51.195  1.00  0.00     0.072 A 
HETATM   11  N2  UNL     1      22.740   1.245  51.808  1.00  0.00    -0.241 NA
HETATM   12  C15 UNL     1      24.906   2.008  51.595  1.00  0.00     0.041 A 
HETATM   13  C8  UNL     1      23.198   0.382  52.720  1.00  0.00     0.236 A 
HETATM   14  N3  UNL     1      24.497   0.304  53.094  1.00  0.00    -0.223 NA
HETATM   15  C9  UNL     1      25.414   1.137  52.528  1.00  0.00     0.147 A 
HETATM   16  C16 UNL     1      25.909   2.830  51.052  1.00  0.00     0.050 A 
BRANCH  15  17
HETATM   17  N4  UNL     1      26.756   1.008  52.962  1.00  0.00    -0.316 N 
HETATM   18  C10 UNL     1      27.583   2.061  53.426  1.00  0.00     0.094 A 
HETATM   19  C11 UNL     1      28.814   1.724  53.804  1.00  0.00    -0.004 A 
HETATM   20  C12 UNL     1      29.426   0.377  53.799  1.00  0.00     0.076 A 
HETATM   21  C13 UNL     1      28.445  -0.621  53.293  1.00  0.00     0.008 A 
HETATM   22 BR1  UNL     1      29.171  -2.408  53.270  1.00  0.00    -0.054 Br
HETATM   23  C14 UNL     1      27.210  -0.359  52.900  1.00  0.00     0.113 A 
ENDBRANCH  15  17
ENDBRANCH   4   7
ENDBRANCH   3   4
TORSDOF 4
ENDMDL
MODEL 7
REMARK VINA RESULT:      -7.2      3.868      6.204
REMARK  4 active torsions:
REMARK  status: ('A' for Active; 'I' for Inactive)
REMARK    1  A    between atoms: C3_3  and  N1_4 
REMARK    2  A    between atoms: N1_4  and  O1_5 
REMARK    3  A    between atoms: N1_4  and  C4_6 
REMARK    4  A    between atoms: C9_13  and  N4_14 
ROOT
HETATM    1  C1  UNL     1      17.378  -0.387  51.975  1.00  0.00     0.113 C 
HETATM    2  C2  UNL     1      18.667  -0.513  52.693  1.00  0.00    -0.086 C 
HETATM    3  C3  UNL     1      19.702  -0.600  53.254  1.00  0.00     0.040 C 
ENDROOT
BRANCH   3   4
HETATM    4  N1  UNL     1      20.934  -0.700  53.894  1.00  0.00    -0.181 N 
BRANCH   4   5
HETATM    5  O1  UNL     1      21.077  -1.429  55.014  1.00  0.00    -0.275 OA
HETATM    6  H4  UNL     1      21.900  -1.953  54.930  1.00  0.00     0.246 HD
ENDBRANCH   4   5
BRANCH   4   7
HETATM    7  C4  UNL     1      22.213  -0.163  53.646  1.00  0.00     0.073 A 
HETATM    8  C5  UNL     1      23.213  -0.910  54.272  1.00  0.00     0.035 A 
HETATM    9  C6  UNL     1      24.557  -0.573  54.138  1.00  0.00     0.035 A 
HETATM   10  C7  UNL     1      24.941   0.504  53.385  1.00  0.00     0.072 A 
HETATM   11  N2  UNL     1      26.219   0.928  53.175  1.00  0.00    -0.241 NA
HETATM   12  C15 UNL     1      23.974   1.255  52.757  1.00  0.00     0.041 A 
HETATM   13  C8  UNL     1      26.455   1.996  52.407  1.00  0.00     0.236 A 
HETATM   14  N3  UNL     1      25.481   2.716  51.802  1.00  0.00    -0.223 NA
HETATM   15  C9  UNL     1      24.176   2.357  51.964  1.00  0.00     0.147 A 
HETATM   16  C16 UNL     1      22.608   0.942  52.874  1.00  0.00     0.050 A 
BRANCH  15  17
HETATM   17  N4  UNL     1      23.204   3.150  51.307  1.00  0.00    -0.316 N 
HETATM   18  C10 UNL     1      22.445   4.191  51.898  1.00  0.00     0.094 A 
HETATM   19  C11 UNL     1      21.591   4.828  51.099  1.00  0.00    -0.004 A 
HETATM   20  C12 UNL     1      21.338   4.579  49.663  1.00  0.00     0.076 A 
HETATM   21  C13 UNL     1      22.203   3.468  49.183  1.00  0.00     0.008 A 
HETATM   22 BR1  UNL     1      21.936   3.095  47.309  1.00  0.00    -0.054 Br
HETATM   23  C14 UNL     1      23.070   2.791  49.917  1.00  0.00     0.113 A 
ENDBRANCH  15  17
ENDBRANCH   4   7
ENDBRANCH   3   4
TORSDOF 4
ENDMDL
MODEL 8
REMARK VINA RESULT:      -7.1      2.107      2.815
REMARK  4 active torsions:
REMARK  status: ('A' for Active; 'I' for Inactive)
REMARK    1  A    between atoms: C3_3  and  N1_4 
REMARK    2  A    between atoms: N1_4  and  O1_5 
REMARK    3  A    between atoms: N1_4  and  C4_6 
REMARK    4  A    between atoms: C9_13  and  N4_14 
ROOT
HETATM    1  C1  UNL     1      29.480   0.740  53.845  1.00  0.00     0.113 C 
HETATM    2  C2  UNL     1      28.041   0.403  53.952  1.00  0.00    -0.086 C 
HETATM    3  C3  UNL     1      26.900   0.118  54.044  1.00  0.00     0.040 C 
ENDROOT
BRANCH   3   4
HETATM    4  N1  UNL     1      25.559  -0.242  54.147  1.00  0.00    -0.181 N 
BRANCH   4   5
HETATM    5  O1  UNL     1      25.135  -1.065  55.121  1.00  0.00    -0.275 OA
HETATM    6  H4  UNL     1      25.221  -1.985  54.797  1.00  0.00     0.246 HD
ENDBRANCH   4   5
BRANCH   4   7
HETATM    7  C4  UNL     1      24.403   0.064  53.401  1.00  0.00     0.073 A 
HETATM    8  C5  UNL     1      23.339  -0.775  53.739  1.00  0.00     0.035 A 
HETATM    9  C6  UNL     1      22.089  -0.633  53.142  1.00  0.00     0.035 A 
HETATM   10  C7  UNL     1      21.865   0.338  52.203  1.00  0.00     0.072 A 
HETATM   11  N2  UNL     1      20.690   0.579  51.556  1.00  0.00    -0.241 NA
HETATM   12  C15 UNL     1      22.897   1.178  51.855  1.00  0.00     0.041 A 
HETATM   13  C8  UNL     1      20.606   1.570  50.663  1.00  0.00     0.236 A 
HETATM   14  N3  UNL     1      21.641   2.381  50.341  1.00  0.00    -0.223 NA
HETATM   15  C9  UNL     1      22.850   2.204  50.944  1.00  0.00     0.147 A 
HETATM   16  C16 UNL     1      24.171   1.059  52.438  1.00  0.00     0.050 A 
BRANCH  15  17
HETATM   17  N4  UNL     1      23.894   3.083  50.564  1.00  0.00    -0.316 N 
HETATM   18  C10 UNL     1      25.121   2.703  49.965  1.00  0.00     0.094 A 
HETATM   19  C11 UNL     1      25.965   3.689  49.669  1.00  0.00    -0.004 A 
HETATM   20  C12 UNL     1      25.775   5.140  49.889  1.00  0.00     0.076 A 
HETATM   21  C13 UNL     1      24.449   5.386  50.518  1.00  0.00     0.008 A 
HETATM   22 BR1  UNL     1      24.125   7.263  50.825  1.00  0.00    -0.054 Br
HETATM   23  C14 UNL     1      23.563   4.459  50.840  1.00  0.00     0.113 A 
ENDBRANCH  15  17
ENDBRANCH   4   7
ENDBRANCH   3   4
TORSDOF 4
ENDMDL
MODEL 9
REMARK VINA RESULT:      -7.1      4.012      6.812
REMARK  4 active torsions:
REMARK  status: ('A' for Active; 'I' for Inactive)
REMARK    1  A    between atoms: C3_3  and  N1_4 
REMARK    2  A    between atoms: N1_4  and  O1_5 
REMARK    3  A    between atoms: N1_4  and  C4_6 
REMARK    4  A    between atoms: C9_13  and  N4_14 
ROOT
HETATM    1  C1  UNL     1      16.865   0.736  49.850  1.00  0.00     0.113 C 
HETATM    2  C2  UNL     1      17.697   0.281  50.988  1.00  0.00    -0.086 C 
HETATM    3  C3  UNL     1      18.371  -0.091  51.882  1.00  0.00     0.040 C 
ENDROOT
BRANCH   3   4
HETATM    4  N1  UNL     1      19.170  -0.552  52.925  1.00  0.00    -0.181 N 
BRANCH   4   5
HETATM    5  O1  UNL     1      18.642  -1.242  53.950  1.00  0.00    -0.275 OA
HETATM    6  H4  UNL     1      18.014  -0.654  54.418  1.00  0.00     0.246 HD
ENDBRANCH   4   5
BRANCH   4   7
HETATM    7  C4  UNL     1      20.545  -0.461  53.219  1.00  0.00     0.073 A 
HETATM    8  C5  UNL     1      20.914  -1.355  54.225  1.00  0.00     0.035 A 
HETATM    9  C6  UNL     1      22.235  -1.454  54.656  1.00  0.00     0.035 A 
HETATM   10  C7  UNL     1      23.215  -0.673  54.104  1.00  0.00     0.072 A 
HETATM   11  N2  UNL     1      24.536  -0.681  54.435  1.00  0.00    -0.241 NA
HETATM   12  C15 UNL     1      22.875   0.216  53.110  1.00  0.00     0.041 A 
HETATM   13  C8  UNL     1      25.392   0.131  53.808  1.00  0.00     0.236 A 
HETATM   14  N3  UNL     1      25.028   0.997  52.833  1.00  0.00    -0.223 NA
HETATM   15  C9  UNL     1      23.723   1.067  52.444  1.00  0.00     0.147 A 
HETATM   16  C16 UNL     1      21.551   0.340  52.654  1.00  0.00     0.050 A 
BRANCH  15  17
HETATM   17  N4  UNL     1      23.405   1.992  51.420  1.00  0.00    -0.316 N 
HETATM   18  C10 UNL     1      22.791   1.679  50.182  1.00  0.00     0.094 A 
HETATM   19  C11 UNL     1      22.562   2.701  49.360  1.00  0.00    -0.004 A 
HETATM   20  C12 UNL     1      22.871   4.131  49.585  1.00  0.00     0.076 A 
HETATM   21  C13 UNL     1      23.506   4.305  50.920  1.00  0.00     0.008 A 
HETATM   22 BR1  UNL     1      23.927   6.151  51.289  1.00  0.00    -0.054 Br
HETATM   23  C14 UNL     1      23.765   3.339  51.785  1.00  0.00     0.113 A 
ENDBRANCH  15  17
ENDBRANCH   4   7
ENDBRANCH   3   4
TORSDOF 4
ENDMDL
