MODEL 1
REMARK VINA RESULT:      -8.0      0.000      0.000
REMARK  9 active torsions:
REMARK  status: ('A' for Active; 'I' for Inactive)
REMARK    1  A    between atoms: C2_2  and  O1_3 
REMARK    2  A    between atoms: O1_3  and  C3_4 
REMARK    3  A    between atoms: C6_7  and  C7_8 
REMARK    4  A    between atoms: N1_9  and  N2_10 
REMARK    5  A    between atoms: N2_10  and  C8_11 
REMARK    6  A    between atoms: N2_10  and  C15_19 
REMARK    7  A    between atoms: C8_11  and  C9_12 
REMARK    8  A    between atoms: C12_15  and  O2_16 
REMARK    9  A    between atoms: C16_21  and  O3_22 
ROOT
HETATM    1  N2  UNL     1      26.738   0.800  52.561  1.00  0.00    -0.242 N 
ENDROOT
BRANCH   1   2
HETATM    2  N1  UNL     1      25.444   0.280  52.533  1.00  0.00    -0.182 NA
HETATM    3  C7  UNL     1      24.760   0.379  53.641  1.00  0.00     0.150 C 
BRANCH   3   4
HETATM    4  C6  UNL     1      23.381  -0.143  53.707  1.00  0.00    -0.017 A 
HETATM    5  C5  UNL     1      22.958  -1.044  54.678  1.00  0.00     0.015 A 
HETATM    6  C4  UNL     1      21.652  -1.485  54.673  1.00  0.00     0.037 A 
HETATM    7  C3  UNL     1      20.736  -1.069  53.738  1.00  0.00     0.068 A 
HETATM    8  C19 UNL     1      21.157  -0.172  52.770  1.00  0.00     0.037 A 
HETATM    9  C18 UNL     1      22.459   0.280  52.760  1.00  0.00     0.015 A 
BRANCH   7  10
HETATM   10  O1  UNL     1      19.434  -1.553  53.788  1.00  0.00    -0.352 OA
BRANCH  10  11
HETATM   11  C2  UNL     1      18.454  -0.885  52.992  1.00  0.00     0.171 C 
HETATM   12  C1  UNL     1      17.203  -1.739  52.995  1.00  0.00     0.034 C 
ENDBRANCH  10  11
ENDBRANCH   7  10
ENDBRANCH   3   4
ENDBRANCH   1   2
BRANCH   1  13
HETATM   13  C8  UNL     1      27.105   2.171  52.275  1.00  0.00     0.188 C 
BRANCH  13  14
HETATM   14  C9  UNL     1      26.246   2.794  51.226  1.00  0.00    -0.054 A 
HETATM   15  C10 UNL     1      26.476   2.992  49.944  1.00  0.00     0.007 A 
HETATM   16  C11 UNL     1      25.345   3.646  49.283  1.00  0.00     0.033 A 
HETATM   17  C12 UNL     1      24.413   3.840  50.211  1.00  0.00     0.049 A 
HETATM   18  C14 UNL     1      24.891   3.318  51.540  1.00  0.00     0.100 A 
BRANCH  17  19
HETATM   19  O2  UNL     1      23.190   4.439  49.956  1.00  0.00    -0.360 OA
HETATM   20  C13 UNL     1      22.932   5.394  48.972  1.00  0.00     0.209 C 
ENDBRANCH  17  19
ENDBRANCH  13  14
ENDBRANCH   1  13
BRANCH   1  21
HETATM   21  C15 UNL     1      27.658  -0.262  52.926  1.00  0.00     0.192 A 
HETATM   22  N3  UNL     1      27.736  -1.390  52.961  1.00  0.00    -0.198 NA
HETATM   23  C16 UNL     1      28.756  -2.125  53.364  1.00  0.00     0.171 A 
HETATM   24  C17 UNL     1      29.867  -1.471  53.796  1.00  0.00     0.111 A 
HETATM   25  S1  UNL     1      29.342   0.324  53.584  1.00  0.00    -0.058 SA
BRANCH  23  26
HETATM   26  O3  UNL     1      28.666  -3.532  53.334  1.00  0.00    -0.344 OA
HETATM   27  H18 UNL     1      29.050  -4.107  54.075  1.00  0.00     0.219 HD
ENDBRANCH  23  26
ENDBRANCH   1  21
TORSDOF 9
ENDMDL
MODEL 2
REMARK VINA RESULT:      -7.4      1.858      2.133
REMARK  9 active torsions:
REMARK  status: ('A' for Active; 'I' for Inactive)
REMARK    1  A    between atoms: C2_2  and  O1_3 
REMARK    2  A    between atoms: O1_3  and  C3_4 
REMARK    3  A    between atoms: C6_7  and  C7_8 
REMARK    4  A    between atoms: N1_9  and  N2_10 
REMARK    5  A    between atoms: N2_10  and  C8_11 
REMARK    6  A    between atoms: N2_10  and  C15_19 
REMARK    7  A    between atoms: C8_11  and  C9_12 
REMARK    8  A    between atoms: C12_15  and  O2_16 
REMARK    9  A    between atoms: C16_21  and  O3_22 
ROOT
HETATM    1  N2  UNL     1      26.338   1.961  51.685  1.00  0.00    -0.242 N 
ENDROOT
BRANCH   1   2
HETATM    2  N1  UNL     1      25.256   1.110  51.914  1.00  0.00    -0.182 NA
HETATM    3  C7  UNL     1      24.459   1.445  52.892  1.00  0.00     0.150 C 
BRANCH   3   4
HETATM    4  C6  UNL     1      23.287   0.605  53.210  1.00  0.00    -0.017 A 
HETATM    5  C5  UNL     1      23.373  -0.566  53.955  1.00  0.00     0.015 A 
HETATM    6  C4  UNL     1      22.231  -1.296  54.209  1.00  0.00     0.037 A 
HETATM    7  C3  UNL     1      20.994  -0.913  53.753  1.00  0.00     0.068 A 
HETATM    8  C19 UNL     1      20.907   0.254  53.011  1.00  0.00     0.037 A 
HETATM    9  C18 UNL     1      22.038   0.996  52.747  1.00  0.00     0.015 A 
BRANCH   7  10
HETATM   10  O1  UNL     1      19.882  -1.694  54.044  1.00  0.00    -0.352 OA
BRANCH  10  11
HETATM   11  C2  UNL     1      18.635  -1.305  53.465  1.00  0.00     0.171 C 
HETATM   12  C1  UNL     1      17.727  -2.516  53.479  1.00  0.00     0.034 C 
ENDBRANCH  10  11
ENDBRANCH   7  10
ENDBRANCH   3   4
ENDBRANCH   1   2
BRANCH   1  13
HETATM   13  C8  UNL     1      26.413   2.974  50.654  1.00  0.00     0.188 C 
BRANCH  13  14
HETATM   14  C9  UNL     1      25.076   3.526  50.286  1.00  0.00    -0.054 A 
HETATM   15  C10 UNL     1      24.277   3.224  49.282  1.00  0.00     0.007 A 
HETATM   16  C11 UNL     1      23.051   4.023  49.304  1.00  0.00     0.033 A 
HETATM   17  C12 UNL     1      23.130   4.827  50.360  1.00  0.00     0.049 A 
HETATM   18  C14 UNL     1      24.426   4.592  51.091  1.00  0.00     0.100 A 
BRANCH  17  19
HETATM   19  O2  UNL     1      22.144   5.736  50.708  1.00  0.00    -0.360 OA
HETATM   20  C13 UNL     1      21.541   6.660  49.854  1.00  0.00     0.209 C 
ENDBRANCH  17  19
ENDBRANCH  13  14
ENDBRANCH   1  13
BRANCH   1  21
HETATM   21  C15 UNL     1      27.378   1.662  52.653  1.00  0.00     0.192 A 
HETATM   22  N3  UNL     1      28.145   2.171  53.311  1.00  0.00    -0.198 NA
HETATM   23  C16 UNL     1      29.009   1.613  54.138  1.00  0.00     0.171 A 
HETATM   24  C17 UNL     1      28.998   0.257  54.233  1.00  0.00     0.111 A 
HETATM   25  S1  UNL     1      27.627  -0.185  53.021  1.00  0.00    -0.058 SA
BRANCH  23  26
HETATM   26  O3  UNL     1      29.895   2.420  54.882  1.00  0.00    -0.344 OA
HETATM   27  H18 UNL     1      30.105   3.373  54.609  1.00  0.00     0.219 HD
ENDBRANCH  23  26
ENDBRANCH   1  21
TORSDOF 9
ENDMDL
MODEL 3
REMARK VINA RESULT:      -7.3      1.998      6.286
REMARK  9 active torsions:
REMARK  status: ('A' for Active; 'I' for Inactive)
REMARK    1  A    between atoms: C2_2  and  O1_3 
REMARK    2  A    between atoms: O1_3  and  C3_4 
REMARK    3  A    between atoms: C6_7  and  C7_8 
REMARK    4  A    between atoms: N1_9  and  N2_10 
REMARK    5  A    between atoms: N2_10  and  C8_11 
REMARK    6  A    between atoms: N2_10  and  C15_19 
REMARK    7  A    between atoms: C8_11  and  C9_12 
REMARK    8  A    between atoms: C12_15  and  O2_16 
REMARK    9  A    between atoms: C16_21  and  O3_22 
ROOT
HETATM    1  N2  UNL     1      25.479   0.400  53.427  1.00  0.00    -0.242 N 
ENDROOT
BRANCH   1   2
HETATM    2  N1  UNL     1      24.925   1.600  52.980  1.00  0.00    -0.182 NA
HETATM    3  C7  UNL     1      25.025   1.838  51.700  1.00  0.00     0.150 C 
BRANCH   3   4
HETATM    4  C6  UNL     1      24.468   3.083  51.135  1.00  0.00    -0.017 A 
HETATM    5  C5  UNL     1      24.552   3.405  49.784  1.00  0.00     0.015 A 
HETATM    6  C4  UNL     1      24.007   4.588  49.333  1.00  0.00     0.037 A 
HETATM    7  C3  UNL     1      23.375   5.476  50.168  1.00  0.00     0.068 A 
HETATM    8  C19 UNL     1      23.291   5.155  51.514  1.00  0.00     0.037 A 
HETATM    9  C18 UNL     1      23.831   3.977  51.983  1.00  0.00     0.015 A 
BRANCH   7  10
HETATM   10  O1  UNL     1      22.846   6.652  49.650  1.00  0.00    -0.352 OA
BRANCH  10  11
HETATM   11  C2  UNL     1      23.066   7.854  50.389  1.00  0.00     0.171 C 
HETATM   12  C1  UNL     1      24.444   8.368  50.027  1.00  0.00     0.034 C 
ENDBRANCH  10  11
ENDBRANCH   7  10
ENDBRANCH   3   4
ENDBRANCH   1   2
BRANCH   1  13
HETATM   13  C8  UNL     1      24.766  -0.848  53.597  1.00  0.00     0.188 C 
BRANCH  13  14
HETATM   14  C9  UNL     1      23.306  -0.655  53.836  1.00  0.00    -0.054 A 
HETATM   15  C10 UNL     1      22.630  -0.586  54.965  1.00  0.00     0.007 A 
HETATM   16  C11 UNL     1      21.198  -0.388  54.730  1.00  0.00     0.033 A 
HETATM   17  C12 UNL     1      21.024  -0.337  53.413  1.00  0.00     0.049 A 
HETATM   18  C14 UNL     1      22.346  -0.502  52.711  1.00  0.00     0.100 A 
BRANCH  17  19
HETATM   19  O2  UNL     1      19.791  -0.157  52.809  1.00  0.00    -0.360 OA
HETATM   20  C13 UNL     1      18.627  -0.873  53.089  1.00  0.00     0.209 C 
ENDBRANCH  17  19
ENDBRANCH  13  14
ENDBRANCH   1  13
BRANCH   1  21
HETATM   21  C15 UNL     1      26.890   0.610  53.694  1.00  0.00     0.192 A 
HETATM   22  N3  UNL     1      27.605   1.379  54.113  1.00  0.00    -0.198 NA
HETATM   23  C16 UNL     1      28.916   1.292  54.240  1.00  0.00     0.171 A 
HETATM   24  C17 UNL     1      29.509   0.142  53.823  1.00  0.00     0.111 A 
HETATM   25  S1  UNL     1      28.023  -0.839  53.216  1.00  0.00    -0.058 SA
BRANCH  23  26
HETATM   26  O3  UNL     1      29.645   2.367  54.791  1.00  0.00    -0.344 OA
HETATM   27  H18 UNL     1      29.371   3.331  54.637  1.00  0.00     0.219 HD
ENDBRANCH  23  26
ENDBRANCH   1  21
TORSDOF 9
ENDMDL
MODEL 4
REMARK VINA RESULT:      -7.3      3.295      7.466
REMARK  9 active torsions:
REMARK  status: ('A' for Active; 'I' for Inactive)
REMARK    1  A    between atoms: C2_2  and  O1_3 
REMARK    2  A    between atoms: O1_3  and  C3_4 
REMARK    3  A    between atoms: C6_7  and  C7_8 
REMARK    4  A    between atoms: N1_9  and  N2_10 
REMARK    5  A    between atoms: N2_10  and  C8_11 
REMARK    6  A    between atoms: N2_10  and  C15_19 
REMARK    7  A    between atoms: C8_11  and  C9_12 
REMARK    8  A    between atoms: C12_15  and  O2_16 
REMARK    9  A    between atoms: C16_21  and  O3_22 
ROOT
HETATM    1  N2  UNL     1      22.520   4.127  51.462  1.00  0.00    -0.242 N 
ENDROOT
BRANCH   1   2
HETATM    2  N1  UNL     1      23.458   3.113  51.658  1.00  0.00    -0.182 NA
HETATM    3  C7  UNL     1      23.886   2.954  52.881  1.00  0.00     0.150 C 
BRANCH   3   4
HETATM    4  C6  UNL     1      24.879   1.905  53.186  1.00  0.00    -0.017 A 
HETATM    5  C5  UNL     1      26.140   2.184  53.704  1.00  0.00     0.015 A 
HETATM    6  C4  UNL     1      27.012   1.149  53.963  1.00  0.00     0.037 A 
HETATM    7  C3  UNL     1      26.689  -0.165  53.728  1.00  0.00     0.068 A 
HETATM    8  C19 UNL     1      25.433  -0.444  53.211  1.00  0.00     0.037 A 
HETATM    9  C18 UNL     1      24.548   0.579  52.947  1.00  0.00     0.015 A 
BRANCH   7  10
HETATM   10  O1  UNL     1      27.615  -1.163  54.010  1.00  0.00    -0.352 OA
BRANCH  10  11
HETATM   11  C2  UNL     1      28.658  -1.379  53.059  1.00  0.00     0.171 C 
HETATM   12  C1  UNL     1      29.973  -1.070  53.745  1.00  0.00     0.034 C 
ENDBRANCH  10  11
ENDBRANCH   7  10
ENDBRANCH   3   4
ENDBRANCH   1   2
BRANCH   1  13
HETATM   13  C8  UNL     1      21.082   3.967  51.501  1.00  0.00     0.188 C 
BRANCH  13  14
HETATM   14  C9  UNL     1      20.660   2.541  51.624  1.00  0.00    -0.054 A 
HETATM   15  C10 UNL     1      20.358   1.660  50.692  1.00  0.00     0.007 A 
HETATM   16  C11 UNL     1      19.992   0.364  51.267  1.00  0.00     0.033 A 
HETATM   17  C12 UNL     1      20.083   0.486  52.588  1.00  0.00     0.049 A 
HETATM   18  C14 UNL     1      20.516   1.883  52.948  1.00  0.00     0.100 A 
BRANCH  17  19
HETATM   19  O2  UNL     1      19.810  -0.543  53.474  1.00  0.00    -0.360 OA
HETATM   20  C13 UNL     1      20.753  -1.298  54.171  1.00  0.00     0.209 C 
ENDBRANCH  17  19
ENDBRANCH  13  14
ENDBRANCH   1  13
BRANCH   1  21
HETATM   21  C15 UNL     1      23.225   5.371  51.211  1.00  0.00     0.192 A 
HETATM   22  N3  UNL     1      24.271   5.799  51.164  1.00  0.00    -0.198 NA
HETATM   23  C16 UNL     1      24.633   7.040  50.897  1.00  0.00     0.171 A 
HETATM   24  C17 UNL     1      23.645   7.939  50.640  1.00  0.00     0.111 A 
HETATM   25  S1  UNL     1      22.113   6.859  50.812  1.00  0.00    -0.058 SA
BRANCH  23  26
HETATM   26  O3  UNL     1      26.000   7.390  50.885  1.00  0.00    -0.344 OA
HETATM   27  H18 UNL     1      26.305   8.351  50.980  1.00  0.00     0.219 HD
ENDBRANCH  23  26
ENDBRANCH   1  21
TORSDOF 9
ENDMDL
MODEL 5
REMARK VINA RESULT:      -7.1      3.308      8.380
REMARK  9 active torsions:
REMARK  status: ('A' for Active; 'I' for Inactive)
REMARK    1  A    between atoms: C2_2  and  O1_3 
REMARK    2  A    between atoms: O1_3  and  C3_4 
REMARK    3  A    between atoms: C6_7  and  C7_8 
REMARK    4  A    between atoms: N1_9  and  N2_10 
REMARK    5  A    between atoms: N2_10  and  C8_11 
REMARK    6  A    between atoms: N2_10  and  C15_19 
REMARK    7  A    between atoms: C8_11  and  C9_12 
REMARK    8  A    between atoms: C12_15  and  O2_16 
REMARK    9  A    between atoms: C16_21  and  O3_22 
ROOT
HETATM    1  N2  UNL     1      23.360   1.436  52.540  1.00  0.00    -0.242 N 
ENDROOT
BRANCH   1   2
HETATM    2  N1  UNL     1      24.143   2.452  51.991  1.00  0.00    -0.182 NA
HETATM    3  C7  UNL     1      24.195   2.495  50.687  1.00  0.00     0.150 C 
BRANCH   3   4
HETATM    4  C6  UNL     1      24.998   3.536  50.014  1.00  0.00    -0.017 A 
HETATM    5  C5  UNL     1      24.465   4.749  49.592  1.00  0.00     0.015 A 
HETATM    6  C4  UNL     1      25.280   5.670  48.971  1.00  0.00     0.037 A 
HETATM    7  C3  UNL     1      26.615   5.441  48.746  1.00  0.00     0.068 A 
HETATM    8  C19 UNL     1      27.147   4.233  49.166  1.00  0.00     0.037 A 
HETATM    9  C18 UNL     1      26.346   3.300  49.789  1.00  0.00     0.015 A 
BRANCH   7  10
HETATM   10  O1  UNL     1      27.383   6.412  48.113  1.00  0.00    -0.352 OA
BRANCH  10  11
HETATM   11  C2  UNL     1      27.568   7.652  48.797  1.00  0.00     0.171 C 
HETATM   12  C1  UNL     1      29.005   8.081  48.584  1.00  0.00     0.034 C 
ENDBRANCH  10  11
ENDBRANCH   7  10
ENDBRANCH   3   4
ENDBRANCH   1   2
BRANCH   1  13
HETATM   13  C8  UNL     1      23.853   0.301  53.292  1.00  0.00     0.188 C 
BRANCH  13  14
HETATM   14  C9  UNL     1      25.341   0.189  53.263  1.00  0.00    -0.054 A 
HETATM   15  C10 UNL     1      26.135  -0.373  52.374  1.00  0.00     0.007 A 
HETATM   16  C11 UNL     1      27.545  -0.250  52.750  1.00  0.00     0.033 A 
HETATM   17  C12 UNL     1      27.583   0.410  53.903  1.00  0.00     0.049 A 
HETATM   18  C14 UNL     1      26.185   0.756  54.346  1.00  0.00     0.100 A 
BRANCH  17  19
HETATM   19  O2  UNL     1      28.756   0.718  54.572  1.00  0.00    -0.360 OA
HETATM   20  C13 UNL     1      29.426   1.941  54.534  1.00  0.00     0.209 C 
ENDBRANCH  17  19
ENDBRANCH  13  14
ENDBRANCH   1  13
BRANCH   1  21
HETATM   21  C15 UNL     1      21.967   1.705  52.234  1.00  0.00     0.192 A 
HETATM   22  N3  UNL     1      21.170   2.498  52.366  1.00  0.00    -0.198 NA
HETATM   23  C16 UNL     1      19.915   2.468  51.959  1.00  0.00     0.171 A 
HETATM   24  C17 UNL     1      19.499   1.358  51.294  1.00  0.00     0.111 A 
HETATM   25  S1  UNL     1      21.070   0.322  51.288  1.00  0.00    -0.058 SA
BRANCH  23  26
HETATM   26  O3  UNL     1      19.063   3.563  52.219  1.00  0.00    -0.344 OA
HETATM   27  H18 UNL     1      19.151   4.438  51.716  1.00  0.00     0.219 HD
ENDBRANCH  23  26
ENDBRANCH   1  21
TORSDOF 9
ENDMDL
MODEL 6
REMARK VINA RESULT:      -7.1      2.486      5.856
REMARK  9 active torsions:
REMARK  status: ('A' for Active; 'I' for Inactive)
REMARK    1  A    between atoms: C2_2  and  O1_3 
REMARK    2  A    between atoms: O1_3  and  C3_4 
REMARK    3  A    between atoms: C6_7  and  C7_8 
REMARK    4  A    between atoms: N1_9  and  N2_10 
REMARK    5  A    between atoms: N2_10  and  C8_11 
REMARK    6  A    between atoms: N2_10  and  C15_19 
REMARK    7  A    between atoms: C8_11  and  C9_12 
REMARK    8  A    between atoms: C12_15  and  O2_16 
REMARK    9  A    between atoms: C16_21  and  O3_22 
ROOT
HETATM    1  N2  UNL     1      24.460   3.046  51.552  1.00  0.00    -0.242 N 
ENDROOT
BRANCH   1   2
HETATM    2  N1  UNL     1      23.437   2.389  52.236  1.00  0.00    -0.182 NA
HETATM    3  C7  UNL     1      22.795   1.470  51.565  1.00  0.00     0.150 C 
BRANCH   3   4
HETATM    4  C6  UNL     1      21.696   0.721  52.205  1.00  0.00    -0.017 A 
HETATM    5  C5  UNL     1      21.833   0.072  53.428  1.00  0.00     0.015 A 
HETATM    6  C4  UNL     1      20.759  -0.608  53.961  1.00  0.00     0.037 A 
HETATM    7  C3  UNL     1      19.541  -0.674  53.330  1.00  0.00     0.068 A 
HETATM    8  C19 UNL     1      19.403  -0.028  52.112  1.00  0.00     0.037 A 
HETATM    9  C18 UNL     1      20.467   0.657  51.564  1.00  0.00     0.015 A 
BRANCH   7  10
HETATM   10  O1  UNL     1      18.497  -1.376  53.921  1.00  0.00    -0.352 OA
BRANCH  10  11
HETATM   11  C2  UNL     1      17.485  -1.898  53.060  1.00  0.00     0.171 C 
HETATM   12  C1  UNL     1      17.232  -3.334  53.468  1.00  0.00     0.034 C 
ENDBRANCH  10  11
ENDBRANCH   7  10
ENDBRANCH   3   4
ENDBRANCH   1   2
BRANCH   1  13
HETATM   13  C8  UNL     1      25.755   2.486  51.228  1.00  0.00     0.188 C 
BRANCH  13  14
HETATM   14  C9  UNL     1      26.321   1.657  52.332  1.00  0.00    -0.054 A 
HETATM   15  C10 UNL     1      26.428   1.913  53.620  1.00  0.00     0.007 A 
HETATM   16  C11 UNL     1      27.056   0.805  54.344  1.00  0.00     0.033 A 
HETATM   17  C12 UNL     1      27.329  -0.139  53.448  1.00  0.00     0.049 A 
HETATM   18  C14 UNL     1      26.890   0.307  52.078  1.00  0.00     0.100 A 
BRANCH  17  19
HETATM   19  O2  UNL     1      27.931  -1.345  53.765  1.00  0.00    -0.360 OA
HETATM   20  C13 UNL     1      29.154  -1.806  53.277  1.00  0.00     0.209 C 
ENDBRANCH  17  19
ENDBRANCH  13  14
ENDBRANCH   1  13
BRANCH   1  21
HETATM   21  C15 UNL     1      24.012   4.386  51.219  1.00  0.00     0.192 A 
HETATM   22  N3  UNL     1      23.199   5.132  51.466  1.00  0.00    -0.198 NA
HETATM   23  C16 UNL     1      23.032   6.348  50.980  1.00  0.00     0.171 A 
HETATM   24  C17 UNL     1      23.937   6.785  50.064  1.00  0.00     0.111 A 
HETATM   25  S1  UNL     1      25.080   5.296  49.938  1.00  0.00    -0.058 SA
BRANCH  23  26
HETATM   26  O3  UNL     1      21.946   7.138  51.414  1.00  0.00    -0.344 OA
HETATM   27  H18 UNL     1      21.756   8.049  51.012  1.00  0.00     0.219 HD
ENDBRANCH  23  26
ENDBRANCH   1  21
TORSDOF 9
ENDMDL
MODEL 7
REMARK VINA RESULT:      -7.0      2.556      3.308
REMARK  9 active torsions:
REMARK  status: ('A' for Active; 'I' for Inactive)
REMARK    1  A    between atoms: C2_2  and  O1_3 
REMARK    2  A    between atoms: O1_3  and  C3_4 
REMARK    3  A    between atoms: C6_7  and  C7_8 
REMARK    4  A    between atoms: N1_9  and  N2_10 
REMARK    5  A    between atoms: N2_10  and  C8_11 
REMARK    6  A    between atoms: N2_10  and  C15_19 
REMARK    7  A    between atoms: C8_11  and  C9_12 
REMARK    8  A    between atoms: C12_15  and  O2_16 
REMARK    9  A    between atoms: C16_21  and  O3_22 
ROOT
HETATM    1  N2  UNL     1      24.745   2.259  51.276  1.00  0.00    -0.242 N 
ENDROOT
BRANCH   1   2
HETATM    2  N1  UNL     1      23.678   1.693  51.974  1.00  0.00    -0.182 NA
HETATM    3  C7  UNL     1      22.635   1.364  51.261  1.00  0.00     0.150 C 
BRANCH   3   4
HETATM    4  C6  UNL     1      21.457   0.757  51.912  1.00  0.00    -0.017 A 
HETATM    5  C5  UNL     1      21.492   0.225  53.197  1.00  0.00     0.015 A 
HETATM    6  C4  UNL     1      20.349  -0.325  53.736  1.00  0.00     0.037 A 
HETATM    7  C3  UNL     1      19.159  -0.372  53.052  1.00  0.00     0.068 A 
HETATM    8  C19 UNL     1      19.123   0.157  51.772  1.00  0.00     0.037 A 
HETATM    9  C18 UNL     1      20.257   0.711  51.217  1.00  0.00     0.015 A 
BRANCH   7  10
HETATM   10  O1  UNL     1      18.042  -0.941  53.653  1.00  0.00    -0.352 OA
BRANCH  10  11
HETATM   11  C2  UNL     1      17.360  -1.968  52.932  1.00  0.00     0.171 C 
HETATM   12  C1  UNL     1      17.585  -3.271  53.670  1.00  0.00     0.034 C 
ENDBRANCH  10  11
ENDBRANCH   7  10
ENDBRANCH   3   4
ENDBRANCH   1   2
BRANCH   1  13
HETATM   13  C8  UNL     1      24.665   2.891  49.976  1.00  0.00     0.188 C 
BRANCH  13  14
HETATM   14  C9  UNL     1      24.938   4.357  50.026  1.00  0.00    -0.054 A 
HETATM   15  C10 UNL     1      24.294   5.322  50.651  1.00  0.00     0.007 A 
HETATM   16  C11 UNL     1      24.917   6.628  50.422  1.00  0.00     0.033 A 
HETATM   17  C12 UNL     1      25.967   6.424  49.633  1.00  0.00     0.049 A 
HETATM   18  C14 UNL     1      26.087   4.960  49.301  1.00  0.00     0.100 A 
BRANCH  17  19
HETATM   19  O2  UNL     1      26.808   7.436  49.198  1.00  0.00    -0.360 OA
HETATM   20  C13 UNL     1      27.105   8.610  49.890  1.00  0.00     0.209 C 
ENDBRANCH  17  19
ENDBRANCH  13  14
ENDBRANCH   1  13
BRANCH   1  21
HETATM   21  C15 UNL     1      25.952   2.110  52.069  1.00  0.00     0.192 A 
HETATM   22  N3  UNL     1      26.990   2.543  52.188  1.00  0.00    -0.198 NA
HETATM   23  C16 UNL     1      27.929   2.189  53.045  1.00  0.00     0.171 A 
HETATM   24  C17 UNL     1      27.639   1.179  53.908  1.00  0.00     0.111 A 
HETATM   25  S1  UNL     1      25.879   0.753  53.397  1.00  0.00    -0.058 SA
BRANCH  23  26
HETATM   26  O3  UNL     1      29.174   2.852  53.041  1.00  0.00    -0.344 OA
HETATM   27  H18 UNL     1      30.044   2.355  53.194  1.00  0.00     0.219 HD
ENDBRANCH  23  26
ENDBRANCH   1  21
TORSDOF 9
ENDMDL
MODEL 8
REMARK VINA RESULT:      -7.0      3.149      7.204
REMARK  9 active torsions:
REMARK  status: ('A' for Active; 'I' for Inactive)
REMARK    1  A    between atoms: C2_2  and  O1_3 
REMARK    2  A    between atoms: O1_3  and  C3_4 
REMARK    3  A    between atoms: C6_7  and  C7_8 
REMARK    4  A    between atoms: N1_9  and  N2_10 
REMARK    5  A    between atoms: N2_10  and  C8_11 
REMARK    6  A    between atoms: N2_10  and  C15_19 
REMARK    7  A    between atoms: C8_11  and  C9_12 
REMARK    8  A    between atoms: C12_15  and  O2_16 
REMARK    9  A    between atoms: C16_21  and  O3_22 
ROOT
HETATM    1  N2  UNL     1      23.271   2.084  52.679  1.00  0.00    -0.242 N 
ENDROOT
BRANCH   1   2
HETATM    2  N1  UNL     1      22.761   2.651  51.512  1.00  0.00    -0.182 NA
HETATM    3  C7  UNL     1      23.488   2.507  50.437  1.00  0.00     0.150 C 
BRANCH   3   4
HETATM    4  C6  UNL     1      23.029   3.073  49.153  1.00  0.00    -0.017 A 
HETATM    5  C5  UNL     1      22.482   2.298  48.136  1.00  0.00     0.015 A 
HETATM    6  C4  UNL     1      22.077   2.901  46.965  1.00  0.00     0.037 A 
HETATM    7  C3  UNL     1      22.190   4.254  46.754  1.00  0.00     0.068 A 
HETATM    8  C19 UNL     1      22.734   5.026  47.766  1.00  0.00     0.037 A 
HETATM    9  C18 UNL     1      23.146   4.440  48.944  1.00  0.00     0.015 A 
BRANCH   7  10
HETATM   10  O1  UNL     1      21.762   4.800  45.549  1.00  0.00    -0.352 OA
BRANCH  10  11
HETATM   11  C2  UNL     1      21.017   3.954  44.671  1.00  0.00     0.171 C 
HETATM   12  C1  UNL     1      19.574   4.412  44.711  1.00  0.00     0.034 C 
ENDBRANCH  10  11
ENDBRANCH   7  10
ENDBRANCH   3   4
ENDBRANCH   1   2
BRANCH   1  13
HETATM   13  C8  UNL     1      24.542   2.409  53.292  1.00  0.00     0.188 C 
BRANCH  13  14
HETATM   14  C9  UNL     1      25.555   1.324  53.137  1.00  0.00    -0.054 A 
HETATM   15  C10 UNL     1      25.787   0.515  52.123  1.00  0.00     0.007 A 
HETATM   16  C11 UNL     1      26.888  -0.408  52.406  1.00  0.00     0.033 A 
HETATM   17  C12 UNL     1      27.320  -0.133  53.633  1.00  0.00     0.049 A 
HETATM   18  C14 UNL     1      26.516   0.996  54.222  1.00  0.00     0.100 A 
BRANCH  17  19
HETATM   19  O2  UNL     1      28.362  -0.807  54.249  1.00  0.00    -0.360 OA
HETATM   20  C13 UNL     1      29.674  -0.891  53.784  1.00  0.00     0.209 C 
ENDBRANCH  17  19
ENDBRANCH  13  14
ENDBRANCH   1  13
BRANCH   1  21
HETATM   21  C15 UNL     1      22.317   1.112  53.181  1.00  0.00     0.192 A 
HETATM   22  N3  UNL     1      22.242   0.226  53.881  1.00  0.00    -0.198 NA
HETATM   23  C16 UNL     1      21.182  -0.509  54.156  1.00  0.00     0.171 A 
HETATM   24  C17 UNL     1      20.017  -0.183  53.536  1.00  0.00     0.111 A 
HETATM   25  S1  UNL     1      20.553   1.291  52.497  1.00  0.00    -0.058 SA
BRANCH  23  26
HETATM   26  O3  UNL     1      21.285  -1.584  55.064  1.00  0.00    -0.344 OA
HETATM   27  H18 UNL     1      21.017  -2.527  54.807  1.00  0.00     0.219 HD
ENDBRANCH  23  26
ENDBRANCH   1  21
TORSDOF 9
ENDMDL
MODEL 9
REMARK VINA RESULT:      -7.0      3.317      6.772
REMARK  9 active torsions:
REMARK  status: ('A' for Active; 'I' for Inactive)
REMARK    1  A    between atoms: C2_2  and  O1_3 
REMARK    2  A    between atoms: O1_3  and  C3_4 
REMARK    3  A    between atoms: C6_7  and  C7_8 
REMARK    4  A    between atoms: N1_9  and  N2_10 
REMARK    5  A    between atoms: N2_10  and  C8_11 
REMARK    6  A    between atoms: N2_10  and  C15_19 
REMARK    7  A    between atoms: C8_11  and  C9_12 
REMARK    8  A    between atoms: C12_15  and  O2_16 
REMARK    9  A    between atoms: C16_21  and  O3_22 
ROOT
HETATM    1  N2  UNL     1      21.349   2.431  51.574  1.00  0.00    -0.242 N 
ENDROOT
BRANCH   1   2
HETATM    2  N1  UNL     1      22.459   2.190  52.384  1.00  0.00    -0.182 NA
HETATM    3  C7  UNL     1      23.227   1.197  52.027  1.00  0.00     0.150 C 
BRANCH   3   4
HETATM    4  C6  UNL     1      24.426   0.867  52.822  1.00  0.00    -0.017 A 
HETATM    5  C5  UNL     1      25.334   1.826  53.257  1.00  0.00     0.015 A 
HETATM    6  C4  UNL     1      26.431   1.438  53.997  1.00  0.00     0.037 A 
HETATM    7  C3  UNL     1      26.671   0.128  54.329  1.00  0.00     0.068 A 
HETATM    8  C19 UNL     1      25.767  -0.829  53.895  1.00  0.00     0.037 A 
HETATM    9  C18 UNL     1      24.665  -0.459  53.155  1.00  0.00     0.015 A 
BRANCH   7  10
HETATM   10  O1  UNL     1      27.796  -0.197  55.077  1.00  0.00    -0.352 OA
BRANCH  10  11
HETATM   11  C2  UNL     1      29.069   0.166  54.541  1.00  0.00     0.171 C 
HETATM   12  C1  UNL     1      29.540  -0.975  53.664  1.00  0.00     0.034 C 
ENDBRANCH  10  11
ENDBRANCH   7  10
ENDBRANCH   3   4
ENDBRANCH   1   2
BRANCH   1  13
HETATM   13  C8  UNL     1      21.212   3.517  50.628  1.00  0.00     0.188 C 
BRANCH  13  14
HETATM   14  C9  UNL     1      22.520   4.132  50.257  1.00  0.00    -0.054 A 
HETATM   15  C10 UNL     1      23.369   3.814  49.301  1.00  0.00     0.007 A 
HETATM   16  C11 UNL     1      24.541   4.693  49.300  1.00  0.00     0.033 A 
HETATM   17  C12 UNL     1      24.375   5.562  50.293  1.00  0.00     0.049 A 
HETATM   18  C14 UNL     1      23.073   5.293  51.002  1.00  0.00     0.100 A 
BRANCH  17  19
HETATM   19  O2  UNL     1      25.287   6.557  50.602  1.00  0.00    -0.360 OA
HETATM   20  C13 UNL     1      25.383   7.804  49.983  1.00  0.00     0.209 C 
ENDBRANCH  17  19
ENDBRANCH  13  14
ENDBRANCH   1  13
BRANCH   1  21
HETATM   21  C15 UNL     1      20.351   1.409  51.837  1.00  0.00     0.192 A 
HETATM   22  N3  UNL     1      20.009   0.697  52.647  1.00  0.00    -0.198 NA
HETATM   23  C16 UNL     1      19.013  -0.169  52.603  1.00  0.00     0.171 A 
HETATM   24  C17 UNL     1      18.290  -0.234  51.454  1.00  0.00     0.111 A 
HETATM   25  S1  UNL     1      19.154   1.066  50.403  1.00  0.00    -0.058 SA
BRANCH  23  26
HETATM   26  O3  UNL     1      18.736  -0.981  53.723  1.00  0.00    -0.344 OA
HETATM   27  H18 UNL     1      19.253  -1.833  53.905  1.00  0.00     0.219 HD
ENDBRANCH  23  26
ENDBRANCH   1  21
TORSDOF 9
ENDMDL
