MODEL 1
REMARK VINA RESULT:      -8.0      0.000      0.000
REMARK  3 active torsions:
REMARK  status: ('A' for Active; 'I' for Inactive)
REMARK    1  A    between atoms: O1_2  and  C2_3 
REMARK    2  A    between atoms: C6_9  and  N3_10 
REMARK    3  A    between atoms: N3_10  and  C8_12 
ROOT
HETATM    1  C2  UNL     1      26.791   0.094  53.720  1.00  0.00     0.049 A 
HETATM    2  C3  UNL     1      25.691  -0.546  54.274  1.00  0.00     0.065 A 
HETATM    3  C4  UNL     1      24.340   0.014  53.802  1.00  0.00     0.083 A 
HETATM    4  N1  UNL     1      23.576  -0.921  54.534  1.00  0.00    -0.240 NA
HETATM    5  C5  UNL     1      22.244  -0.674  54.317  1.00  0.00     0.236 A 
HETATM    6  N2  UNL     1      21.708   0.289  53.545  1.00  0.00    -0.223 NA
HETATM    7  C6  UNL     1      22.422   1.180  52.846  1.00  0.00     0.152 A 
HETATM    8  C14 UNL     1      23.698   1.080  52.943  1.00  0.00     0.092 A 
HETATM    9  C15 UNL     1      24.906   1.455  52.650  1.00  0.00    -0.061 A 
HETATM   10  C16 UNL     1      25.861   1.733  52.433  1.00  0.00    -0.101 A 
HETATM   11  C17 UNL     1      27.162   2.086  52.156  1.00  0.00     0.100 A 
HETATM   12  C18 UNL     1      27.848   0.882  53.039  1.00  0.00     0.077 A 
ENDROOT
BRANCH   7  13
HETATM   13  N3  UNL     1      22.413   2.290  51.976  1.00  0.00    -0.335 N 
HETATM   14  C7  UNL     1      22.488   3.637  52.497  1.00  0.00     0.158 C 
BRANCH  13  15
HETATM   15  C8  UNL     1      22.325   2.123  50.545  1.00  0.00     0.035 A 
HETATM   16  C9  UNL     1      23.080   2.969  49.767  1.00  0.00     0.029 A 
HETATM   17  C10 UNL     1      23.108   2.932  48.370  1.00  0.00     0.002 A 
HETATM   18  C11 UNL     1      22.295   1.953  47.810  1.00  0.00     0.000 A 
HETATM   19  C12 UNL     1      21.518   1.079  48.541  1.00  0.00     0.002 A 
HETATM   20  C13 UNL     1      21.552   1.185  49.914  1.00  0.00     0.029 A 
ENDBRANCH  13  15
ENDBRANCH   7  13
BRANCH   1  21
HETATM   21  O1  UNL     1      27.784  -0.654  54.356  1.00  0.00    -0.360 OA
HETATM   22  C1  UNL     1      29.142  -0.505  54.096  1.00  0.00     0.209 C 
ENDBRANCH   1  21
TORSDOF 3
ENDMDL
MODEL 2
REMARK VINA RESULT:      -7.7      2.741      6.428
REMARK  3 active torsions:
REMARK  status: ('A' for Active; 'I' for Inactive)
REMARK    1  A    between atoms: O1_2  and  C2_3 
REMARK    2  A    between atoms: C6_9  and  N3_10 
REMARK    3  A    between atoms: N3_10  and  C8_12 
ROOT
HETATM    1  C2  UNL     1      22.172   1.321  51.100  1.00  0.00     0.049 A 
HETATM    2  C3  UNL     1      23.048   2.163  50.432  1.00  0.00     0.065 A 
HETATM    3  C4  UNL     1      24.479   2.150  50.994  1.00  0.00     0.083 A 
HETATM    4  N1  UNL     1      24.981   3.048  50.028  1.00  0.00    -0.240 NA
HETATM    5  C5  UNL     1      26.316   3.261  50.268  1.00  0.00     0.236 A 
HETATM    6  N2  UNL     1      27.062   2.724  51.252  1.00  0.00    -0.223 NA
HETATM    7  C6  UNL     1      26.597   1.872  52.172  1.00  0.00     0.152 A 
HETATM    8  C14 UNL     1      25.353   1.568  52.082  1.00  0.00     0.092 A 
HETATM    9  C15 UNL     1      24.294   0.931  52.478  1.00  0.00    -0.061 A 
HETATM   10  C16 UNL     1      23.451   0.439  52.773  1.00  0.00    -0.101 A 
HETATM   11  C17 UNL     1      22.298  -0.211  53.147  1.00  0.00     0.100 A 
HETATM   12  C18 UNL     1      21.375   0.375  51.921  1.00  0.00     0.077 A 
ENDROOT
BRANCH   7  13
HETATM   13  N3  UNL     1      26.872   1.086  53.310  1.00  0.00    -0.335 N 
HETATM   14  C7  UNL     1      26.477   1.531  54.629  1.00  0.00     0.158 C 
BRANCH  13  15
HETATM   15  C8  UNL     1      27.556  -0.181  53.203  1.00  0.00     0.035 A 
HETATM   16  C9  UNL     1      28.873  -0.218  53.594  1.00  0.00     0.029 A 
HETATM   17  C10 UNL     1      29.670  -1.366  53.556  1.00  0.00     0.002 A 
HETATM   18  C11 UNL     1      29.016  -2.497  53.080  1.00  0.00     0.000 A 
HETATM   19  C12 UNL     1      27.698  -2.518  52.675  1.00  0.00     0.002 A 
HETATM   20  C13 UNL     1      26.986  -1.341  52.747  1.00  0.00     0.029 A 
ENDBRANCH  13  15
ENDBRANCH   7  13
BRANCH   1  21
HETATM   21  O1  UNL     1      21.033   1.594  50.342  1.00  0.00    -0.360 OA
HETATM   22  C1  UNL     1      20.470   2.860  50.229  1.00  0.00     0.209 C 
ENDBRANCH   1  21
TORSDOF 3
ENDMDL
MODEL 3
REMARK VINA RESULT:      -7.6      2.340      5.794
REMARK  3 active torsions:
REMARK  status: ('A' for Active; 'I' for Inactive)
REMARK    1  A    between atoms: O1_2  and  C2_3 
REMARK    2  A    between atoms: C6_9  and  N3_10 
REMARK    3  A    between atoms: N3_10  and  C8_12 
ROOT
HETATM    1  C2  UNL     1      22.805   2.389  49.845  1.00  0.00     0.049 A 
HETATM    2  C3  UNL     1      22.113   1.467  50.616  1.00  0.00     0.065 A 
HETATM    3  C4  UNL     1      22.926   0.898  51.790  1.00  0.00     0.083 A 
HETATM    4  N1  UNL     1      21.864   0.107  52.280  1.00  0.00    -0.240 NA
HETATM    5  C5  UNL     1      22.293  -0.573  53.393  1.00  0.00     0.236 A 
HETATM    6  N2  UNL     1      23.514  -0.525  53.957  1.00  0.00    -0.223 NA
HETATM    7  C6  UNL     1      24.527   0.221  53.501  1.00  0.00     0.152 A 
HETATM    8  C14 UNL     1      24.283   0.924  52.454  1.00  0.00     0.092 A 
HETATM    9  C15 UNL     1      24.626   1.773  51.535  1.00  0.00    -0.061 A 
HETATM   10  C16 UNL     1      24.876   2.439  50.805  1.00  0.00    -0.101 A 
HETATM   11  C17 UNL     1      25.184   3.335  49.808  1.00  0.00     0.100 A 
HETATM   12  C18 UNL     1      23.686   3.349  49.134  1.00  0.00     0.077 A 
ENDROOT
BRANCH   7  13
HETATM   13  N3  UNL     1      25.872   0.619  53.652  1.00  0.00    -0.335 N 
HETATM   14  C7  UNL     1      26.202   1.979  54.019  1.00  0.00     0.158 C 
BRANCH  13  15
HETATM   15  C8  UNL     1      26.959  -0.306  53.442  1.00  0.00     0.035 A 
HETATM   16  C9  UNL     1      28.209   0.091  53.854  1.00  0.00     0.029 A 
HETATM   17  C10 UNL     1      29.361  -0.690  53.726  1.00  0.00     0.002 A 
HETATM   18  C11 UNL     1      29.145  -1.931  53.135  1.00  0.00     0.000 A 
HETATM   19  C12 UNL     1      27.915  -2.380  52.704  1.00  0.00     0.002 A 
HETATM   20  C13 UNL     1      26.832  -1.544  52.870  1.00  0.00     0.029 A 
ENDBRANCH  13  15
ENDBRANCH   7  13
BRANCH   1  21
HETATM   21  O1  UNL     1      21.792   2.666  48.926  1.00  0.00    -0.360 OA
HETATM   22  C1  UNL     1      21.994   2.711  47.551  1.00  0.00     0.209 C 
ENDBRANCH   1  21
TORSDOF 3
ENDMDL
MODEL 4
REMARK VINA RESULT:      -7.2      1.820      3.312
REMARK  3 active torsions:
REMARK  status: ('A' for Active; 'I' for Inactive)
REMARK    1  A    between atoms: O1_2  and  C2_3 
REMARK    2  A    between atoms: C6_9  and  N3_10 
REMARK    3  A    between atoms: N3_10  and  C8_12 
ROOT
HETATM    1  C2  UNL     1      26.141  -0.143  53.142  1.00  0.00     0.049 A 
HETATM    2  C3  UNL     1      26.812   0.698  52.266  1.00  0.00     0.065 A 
HETATM    3  C4  UNL     1      25.940   1.827  51.694  1.00  0.00     0.083 A 
HETATM    4  N1  UNL     1      26.993   2.412  50.958  1.00  0.00    -0.240 NA
HETATM    5  C5  UNL     1      26.513   3.510  50.289  1.00  0.00     0.236 A 
HETATM    6  N2  UNL     1      25.254   3.985  50.301  1.00  0.00    -0.223 NA
HETATM    7  C6  UNL     1      24.248   3.440  50.994  1.00  0.00     0.152 A 
HETATM    8  C14 UNL     1      24.539   2.394  51.682  1.00  0.00     0.092 A 
HETATM    9  C15 UNL     1      24.230   1.431  52.494  1.00  0.00    -0.061 A 
HETATM   10  C16 UNL     1      24.008   0.667  53.131  1.00  0.00    -0.101 A 
HETATM   11  C17 UNL     1      23.737  -0.373  53.991  1.00  0.00     0.100 A 
HETATM   12  C18 UNL     1      25.278  -0.940  54.048  1.00  0.00     0.077 A 
ENDROOT
BRANCH   7  13
HETATM   13  N3  UNL     1      22.882   3.485  51.343  1.00  0.00    -0.335 N 
HETATM   14  C7  UNL     1      22.403   4.427  52.331  1.00  0.00     0.158 C 
BRANCH  13  15
HETATM   15  C8  UNL     1      21.920   2.597  50.735  1.00  0.00     0.035 A 
HETATM   16  C9  UNL     1      20.811   2.270  51.478  1.00  0.00     0.029 A 
HETATM   17  C10 UNL     1      19.788   1.429  51.031  1.00  0.00     0.002 A 
HETATM   18  C11 UNL     1      19.981   0.932  49.746  1.00  0.00     0.000 A 
HETATM   19  C12 UNL     1      21.073   1.226  48.957  1.00  0.00     0.002 A 
HETATM   20  C13 UNL     1      22.033   2.066  49.477  1.00  0.00     0.029 A 
ENDBRANCH  13  15
ENDBRANCH   7  13
BRANCH   1  21
HETATM   21  O1  UNL     1      27.206  -0.997  53.436  1.00  0.00    -0.360 OA
HETATM   22  C1  UNL     1      28.482  -0.549  53.759  1.00  0.00     0.209 C 
ENDBRANCH   1  21
TORSDOF 3
ENDMDL
MODEL 5
REMARK VINA RESULT:      -6.9      2.196      3.726
REMARK  3 active torsions:
REMARK  status: ('A' for Active; 'I' for Inactive)
REMARK    1  A    between atoms: O1_2  and  C2_3 
REMARK    2  A    between atoms: C6_9  and  N3_10 
REMARK    3  A    between atoms: N3_10  and  C8_12 
ROOT
HETATM    1  C2  UNL     1      24.098  -0.050  53.528  1.00  0.00     0.049 A 
HETATM    2  C3  UNL     1      22.764   0.303  53.670  1.00  0.00     0.065 A 
HETATM    3  C4  UNL     1      22.268   1.306  52.616  1.00  0.00     0.083 A 
HETATM    4  N1  UNL     1      20.940   1.317  53.096  1.00  0.00    -0.240 NA
HETATM    5  C5  UNL     1      20.195   2.173  52.325  1.00  0.00     0.236 A 
HETATM    6  N2  UNL     1      20.619   2.903  51.276  1.00  0.00    -0.223 NA
HETATM    7  C6  UNL     1      21.873   2.901  50.812  1.00  0.00     0.152 A 
HETATM    8  C14 UNL     1      22.702   2.141  51.433  1.00  0.00     0.092 A 
HETATM    9  C15 UNL     1      23.881   1.628  51.608  1.00  0.00    -0.061 A 
HETATM   10  C16 UNL     1      24.799   1.213  51.761  1.00  0.00    -0.101 A 
HETATM   11  C17 UNL     1      26.027   0.637  51.992  1.00  0.00     0.100 A 
HETATM   12  C18 UNL     1      25.528  -0.315  53.235  1.00  0.00     0.077 A 
ENDROOT
BRANCH   7  13
HETATM   13  N3  UNL     1      22.793   3.406  49.870  1.00  0.00    -0.335 N 
HETATM   14  C7  UNL     1      22.988   2.743  48.599  1.00  0.00     0.158 C 
BRANCH  13  15
HETATM   15  C8  UNL     1      23.573   4.590  50.139  1.00  0.00     0.035 A 
HETATM   16  C9  UNL     1      24.814   4.671  49.555  1.00  0.00     0.029 A 
HETATM   17  C10 UNL     1      25.686   5.752  49.712  1.00  0.00     0.002 A 
HETATM   18  C11 UNL     1      25.194   6.766  50.526  1.00  0.00     0.000 A 
HETATM   19  C12 UNL     1      23.958   6.738  51.137  1.00  0.00     0.002 A 
HETATM   20  C13 UNL     1      23.162   5.634  50.926  1.00  0.00     0.029 A 
ENDBRANCH  13  15
ENDBRANCH   7  13
BRANCH   1  21
HETATM   21  O1  UNL     1      24.176  -0.930  54.609  1.00  0.00    -0.360 OA
HETATM   22  C1  UNL     1      23.068  -1.361  55.330  1.00  0.00     0.209 C 
ENDBRANCH   1  21
TORSDOF 3
ENDMDL
MODEL 6
REMARK VINA RESULT:      -6.8      4.836      7.060
REMARK  3 active torsions:
REMARK  status: ('A' for Active; 'I' for Inactive)
REMARK    1  A    between atoms: O1_2  and  C2_3 
REMARK    2  A    between atoms: C6_9  and  N3_10 
REMARK    3  A    between atoms: N3_10  and  C8_12 
ROOT
HETATM    1  C2  UNL     1      27.628   7.518  48.657  1.00  0.00     0.049 A 
HETATM    2  C3  UNL     1      26.491   8.109  49.188  1.00  0.00     0.065 A 
HETATM    3  C4  UNL     1      25.460   7.107  49.729  1.00  0.00     0.083 A 
HETATM    4  N1  UNL     1      24.570   8.104  50.185  1.00  0.00    -0.240 NA
HETATM    5  C5  UNL     1      23.476   7.500  50.752  1.00  0.00     0.236 A 
HETATM    6  N2  UNL     1      23.246   6.179  50.872  1.00  0.00    -0.223 NA
HETATM    7  C6  UNL     1      24.080   5.225  50.445  1.00  0.00     0.152 A 
HETATM    8  C14 UNL     1      25.163   5.633  49.886  1.00  0.00     0.092 A 
HETATM    9  C15 UNL     1      26.306   5.425  49.308  1.00  0.00    -0.061 A 
HETATM   10  C16 UNL     1      27.207   5.283  48.854  1.00  0.00    -0.101 A 
HETATM   11  C17 UNL     1      28.427   5.122  48.238  1.00  0.00     0.100 A 
HETATM   12  C18 UNL     1      28.768   6.726  48.133  1.00  0.00     0.077 A 
ENDROOT
BRANCH   7  13
HETATM   13  N3  UNL     1      24.337   3.846  50.304  1.00  0.00    -0.335 N 
HETATM   14  C7  UNL     1      23.996   3.151  49.082  1.00  0.00     0.158 C 
BRANCH  13  15
HETATM   15  C8  UNL     1      24.940   3.080  51.369  1.00  0.00     0.035 A 
HETATM   16  C9  UNL     1      26.091   2.391  51.073  1.00  0.00     0.029 A 
HETATM   17  C10 UNL     1      26.796   1.610  51.993  1.00  0.00     0.002 A 
HETATM   18  C11 UNL     1      26.232   1.579  53.264  1.00  0.00     0.000 A 
HETATM   19  C12 UNL     1      25.081   2.251  53.617  1.00  0.00     0.002 A 
HETATM   20  C13 UNL     1      24.450   2.998  52.647  1.00  0.00     0.029 A 
ENDBRANCH  13  15
ENDBRANCH   7  13
BRANCH   1  21
HETATM   21  O1  UNL     1      28.294   8.687  48.288  1.00  0.00    -0.360 OA
HETATM   22  C1  UNL     1      29.342   9.237  49.018  1.00  0.00     0.209 C 
ENDBRANCH   1  21
TORSDOF 3
ENDMDL
MODEL 7
REMARK VINA RESULT:      -6.8      2.781      4.750
REMARK  3 active torsions:
REMARK  status: ('A' for Active; 'I' for Inactive)
REMARK    1  A    between atoms: O1_2  and  C2_3 
REMARK    2  A    between atoms: C6_9  and  N3_10 
REMARK    3  A    between atoms: N3_10  and  C8_12 
ROOT
HETATM    1  C2  UNL     1      22.737   0.239  53.507  1.00  0.00     0.049 A 
HETATM    2  C3  UNL     1      24.112   0.182  53.331  1.00  0.00     0.065 A 
HETATM    3  C4  UNL     1      24.650   1.178  52.291  1.00  0.00     0.083 A 
HETATM    4  N1  UNL     1      26.001   0.817  52.487  1.00  0.00    -0.240 NA
HETATM    5  C5  UNL     1      26.788   1.568  51.651  1.00  0.00     0.236 A 
HETATM    6  N2  UNL     1      26.383   2.504  50.772  1.00  0.00    -0.223 NA
HETATM    7  C6  UNL     1      25.106   2.855  50.579  1.00  0.00     0.152 A 
HETATM    8  C14 UNL     1      24.237   2.237  51.294  1.00  0.00     0.092 A 
HETATM    9  C15 UNL     1      23.019   2.008  51.680  1.00  0.00    -0.061 A 
HETATM   10  C16 UNL     1      22.071   1.814  51.996  1.00  0.00    -0.101 A 
HETATM   11  C17 UNL     1      20.801   1.531  52.444  1.00  0.00     0.100 A 
HETATM   12  C18 UNL     1      21.267   0.430  53.571  1.00  0.00     0.077 A 
ENDROOT
BRANCH   7  13
HETATM   13  N3  UNL     1      24.189   3.663  49.875  1.00  0.00    -0.335 N 
HETATM   14  C7  UNL     1      23.417   3.121  48.778  1.00  0.00     0.158 C 
BRANCH  13  15
HETATM   15  C8  UNL     1      23.992   5.051  50.218  1.00  0.00     0.035 A 
HETATM   16  C9  UNL     1      25.104   5.859  50.229  1.00  0.00     0.029 A 
HETATM   17  C10 UNL     1      25.078   7.223  50.534  1.00  0.00     0.002 A 
HETATM   18  C11 UNL     1      23.813   7.715  50.835  1.00  0.00     0.000 A 
HETATM   19  C12 UNL     1      22.665   6.951  50.840  1.00  0.00     0.002 A 
HETATM   20  C13 UNL     1      22.782   5.615  50.526  1.00  0.00     0.029 A 
ENDBRANCH  13  15
ENDBRANCH   7  13
BRANCH   1  21
HETATM   21  O1  UNL     1      22.630  -0.759  54.478  1.00  0.00    -0.360 OA
HETATM   22  C1  UNL     1      21.553  -1.634  54.564  1.00  0.00     0.209 C 
ENDBRANCH   1  21
TORSDOF 3
ENDMDL
MODEL 8
REMARK VINA RESULT:      -6.8      2.265      3.815
REMARK  3 active torsions:
REMARK  status: ('A' for Active; 'I' for Inactive)
REMARK    1  A    between atoms: O1_2  and  C2_3 
REMARK    2  A    between atoms: C6_9  and  N3_10 
REMARK    3  A    between atoms: N3_10  and  C8_12 
ROOT
HETATM    1  C2  UNL     1      22.594  -0.082  53.789  1.00  0.00     0.049 A 
HETATM    2  C3  UNL     1      23.938  -0.180  53.458  1.00  0.00     0.065 A 
HETATM    3  C4  UNL     1      24.436   0.939  52.530  1.00  0.00     0.083 A 
HETATM    4  N1  UNL     1      25.772   0.483  52.521  1.00  0.00    -0.240 NA
HETATM    5  C5  UNL     1      26.522   1.316  51.729  1.00  0.00     0.236 A 
HETATM    6  N2  UNL     1      26.095   2.399  51.052  1.00  0.00    -0.223 NA
HETATM    7  C6  UNL     1      24.832   2.841  51.053  1.00  0.00     0.152 A 
HETATM    8  C14 UNL     1      23.999   2.162  51.757  1.00  0.00     0.092 A 
HETATM    9  C15 UNL     1      22.812   1.938  52.232  1.00  0.00    -0.061 A 
HETATM   10  C16 UNL     1      21.889   1.745  52.616  1.00  0.00    -0.101 A 
HETATM   11  C17 UNL     1      20.653   1.460  53.151  1.00  0.00     0.100 A 
HETATM   12  C18 UNL     1      21.154   0.172  54.039  1.00  0.00     0.077 A 
ENDROOT
BRANCH   7  13
HETATM   13  N3  UNL     1      23.907   3.796  50.585  1.00  0.00    -0.335 N 
HETATM   14  C7  UNL     1      23.568   4.952  51.386  1.00  0.00     0.158 C 
BRANCH  13  15
HETATM   15  C8  UNL     1      23.264   3.653  49.300  1.00  0.00     0.035 A 
HETATM   16  C9  UNL     1      23.017   4.804  48.590  1.00  0.00     0.029 A 
HETATM   17  C10 UNL     1      22.409   4.835  47.333  1.00  0.00     0.002 A 
HETATM   18  C11 UNL     1      22.060   3.582  46.839  1.00  0.00     0.000 A 
HETATM   19  C12 UNL     1      22.283   2.396  47.506  1.00  0.00     0.002 A 
HETATM   20  C13 UNL     1      22.890   2.459  48.742  1.00  0.00     0.029 A 
ENDBRANCH  13  15
ENDBRANCH   7  13
BRANCH   1  21
HETATM   21  O1  UNL     1      22.517  -1.214  54.602  1.00  0.00    -0.360 OA
HETATM   22  C1  UNL     1      23.419  -1.489  55.624  1.00  0.00     0.209 C 
ENDBRANCH   1  21
TORSDOF 3
ENDMDL
MODEL 9
REMARK VINA RESULT:      -6.5      8.287     10.449
REMARK  3 active torsions:
REMARK  status: ('A' for Active; 'I' for Inactive)
REMARK    1  A    between atoms: O1_2  and  C2_3 
REMARK    2  A    between atoms: C6_9  and  N3_10 
REMARK    3  A    between atoms: N3_10  and  C8_12 
ROOT
HETATM    1  C2  UNL     1      26.598   5.587  48.638  1.00  0.00     0.049 A 
HETATM    2  C3  UNL     1      27.875   5.047  48.609  1.00  0.00     0.065 A 
HETATM    3  C4  UNL     1      28.940   5.990  48.026  1.00  0.00     0.083 A 
HETATM    4  N1  UNL     1      30.007   5.091  48.242  1.00  0.00    -0.240 NA
HETATM    5  C5  UNL     1      31.171   5.667  47.797  1.00  0.00     0.236 A 
HETATM    6  N2  UNL     1      31.317   6.884  47.240  1.00  0.00    -0.223 NA
HETATM    7  C6  UNL     1      30.313   7.744  47.031  1.00  0.00     0.152 A 
HETATM    8  C14 UNL     1      29.147   7.349  47.399  1.00  0.00     0.092 A 
HETATM    9  C15 UNL     1      27.870   7.522  47.546  1.00  0.00    -0.061 A 
HETATM   10  C16 UNL     1      26.865   7.638  47.671  1.00  0.00    -0.101 A 
HETATM   11  C17 UNL     1      25.508   7.767  47.854  1.00  0.00     0.100 A 
HETATM   12  C18 UNL     1      25.305   6.314  48.595  1.00  0.00     0.077 A 
ENDROOT
BRANCH   7  13
HETATM   13  N3  UNL     1      29.909   9.001  46.538  1.00  0.00    -0.335 N 
HETATM   14  C7  UNL     1      29.497   9.157  45.160  1.00  0.00     0.158 C 
BRANCH  13  15
HETATM   15  C8  UNL     1      29.896  10.172  47.382  1.00  0.00     0.035 A 
HETATM   16  C9  UNL     1      28.882  11.078  47.183  1.00  0.00     0.029 A 
HETATM   17  C10 UNL     1      28.727  12.256  47.920  1.00  0.00     0.002 A 
HETATM   18  C11 UNL     1      29.702  12.450  48.893  1.00  0.00     0.000 A 
HETATM   19  C12 UNL     1      30.740  11.576  49.135  1.00  0.00     0.002 A 
HETATM   20  C13 UNL     1      30.815  10.438  48.362  1.00  0.00     0.029 A 
ENDBRANCH  13  15
ENDBRANCH   7  13
BRANCH   1  21
HETATM   21  O1  UNL     1      25.942   4.492  49.203  1.00  0.00    -0.360 OA
HETATM   22  C1  UNL     1      26.599   3.351  49.650  1.00  0.00     0.209 C 
ENDBRANCH   1  21
TORSDOF 3
ENDMDL
