MODEL 1
REMARK VINA RESULT:      -8.8      0.000      0.000
REMARK  6 active torsions:
REMARK  status: ('A' for Active; 'I' for Inactive)
REMARK    1  A    between atoms: N1_7  and  C7_8 
REMARK    2  A    between atoms: C13_16  and  O1_17 
REMARK    3  A    between atoms: C15_19  and  N4_20 
REMARK       I    between atoms: N4_20  and  C16_21 
REMARK    4  A    between atoms: C16_21  and  C17_23 
REMARK    5  A    between atoms: C18_24  and  C19_25 
REMARK    6  A    between atoms: C19_25  and  N5_26 
ROOT
HETATM    1  C7  UNL     1      25.425   0.738  52.914  1.00  0.00     0.073 A 
HETATM    2  C8  UNL     1      24.427   0.079  53.621  1.00  0.00     0.090 A 
HETATM    3  C9  UNL     1      24.737  -0.824  54.717  1.00  0.00     0.103 C 
HETATM    4  N2  UNL     1      24.972  -1.557  55.588  1.00  0.00    -0.191 NA
HETATM    5  C10 UNL     1      23.094   0.288  53.271  1.00  0.00     0.142 A 
HETATM    6  N3  UNL     1      22.809   1.136  52.243  1.00  0.00    -0.259 NA
HETATM    7  C11 UNL     1      23.785   1.769  51.565  1.00  0.00     0.071 A 
HETATM    8  C12 UNL     1      23.471   2.624  50.530  1.00  0.00     0.071 A 
HETATM    9  C13 UNL     1      24.473   3.283  49.830  1.00  0.00     0.097 A 
HETATM   10  C15 UNL     1      25.800   3.072  50.182  1.00  0.00     0.069 A 
HETATM   11  C22 UNL     1      26.158   2.220  51.215  1.00  0.00     0.048 A 
HETATM   12  C23 UNL     1      25.119   1.594  51.874  1.00  0.00     0.024 A 
ENDROOT
BRANCH   1  13
HETATM   13  N1  UNL     1      26.758   0.449  53.357  1.00  0.00    -0.324 N 
HETATM   14  C2  UNL     1      27.445  -0.725  52.872  1.00  0.00     0.017 A 
HETATM   15  C1  UNL     1      26.752  -1.477  52.016  1.00  0.00     0.063 C 
HETATM   16  C3  UNL     1      28.800  -1.070  53.286  1.00  0.00     0.025 A 
HETATM   17  C4  UNL     1      29.443  -0.290  54.142  1.00  0.00     0.003 A 
HETATM   18  C5  UNL     1      28.735   0.902  54.629  1.00  0.00     0.018 A 
HETATM   19  C6  UNL     1      27.501   1.249  54.275  1.00  0.00     0.097 A 
ENDBRANCH   1  13
BRANCH  10  20
HETATM   20  N4  UNL     1      26.780   3.776  49.435  1.00  0.00    -0.321 N 
HETATM   21  C16 UNL     1      27.111   5.087  49.086  1.00  0.00     0.245 C 
HETATM   22  O2  UNL     1      26.471   6.085  49.446  1.00  0.00    -0.268 OA
HETATM   23  H12 UNL     1      27.339   2.930  49.117  1.00  0.00     0.169 HD
BRANCH  21  24
HETATM   24  C17 UNL     1      28.293   5.220  48.247  1.00  0.00     0.072 C 
HETATM   25  C18 UNL     1      28.983   6.333  48.275  1.00  0.00     0.008 C 
BRANCH  25  26
HETATM   26  C19 UNL     1      30.204   6.592  47.469  1.00  0.00     0.299 C 
BRANCH  26  27
HETATM   27  N5  UNL     1      31.374   6.852  48.258  1.00  0.00     0.083 N 
HETATM   28  C20 UNL     1      31.215   7.963  49.145  1.00  0.00     0.309 C 
HETATM   29  C21 UNL     1      31.977   5.691  48.833  1.00  0.00     0.309 C 
ENDBRANCH  26  27
ENDBRANCH  25  26
ENDBRANCH  21  24
ENDBRANCH  10  20
BRANCH   9  30
HETATM   30  O1  UNL     1      24.124   4.137  48.794  1.00  0.00    -0.354 OA
HETATM   31  C14 UNL     1      22.916   4.912  48.878  1.00  0.00     0.210 C 
ENDBRANCH   9  30
TORSDOF 6
ENDMDL
MODEL 2
REMARK VINA RESULT:      -8.7      2.085      5.097
REMARK  6 active torsions:
REMARK  status: ('A' for Active; 'I' for Inactive)
REMARK    1  A    between atoms: N1_7  and  C7_8 
REMARK    2  A    between atoms: C13_16  and  O1_17 
REMARK    3  A    between atoms: C15_19  and  N4_20 
REMARK       I    between atoms: N4_20  and  C16_21 
REMARK    4  A    between atoms: C16_21  and  C17_23 
REMARK    5  A    between atoms: C18_24  and  C19_25 
REMARK    6  A    between atoms: C19_25  and  N5_26 
ROOT
HETATM    1  C7  UNL     1      22.744   1.355  51.571  1.00  0.00     0.073 A 
HETATM    2  C8  UNL     1      22.072   0.509  52.445  1.00  0.00     0.090 A 
HETATM    3  C9  UNL     1      20.659   0.209  52.282  1.00  0.00     0.103 C 
HETATM    4  N2  UNL     1      19.527  -0.030  52.169  1.00  0.00    -0.191 NA
HETATM    5  C10 UNL     1      22.770  -0.068  53.505  1.00  0.00     0.142 A 
HETATM    6  N3  UNL     1      24.094   0.217  53.652  1.00  0.00    -0.259 NA
HETATM    7  C11 UNL     1      24.735   1.039  52.798  1.00  0.00     0.071 A 
HETATM    8  C12 UNL     1      26.076   1.309  52.967  1.00  0.00     0.071 A 
HETATM    9  C13 UNL     1      26.742   2.152  52.088  1.00  0.00     0.097 A 
HETATM   10  C15 UNL     1      26.043   2.725  51.033  1.00  0.00     0.069 A 
HETATM   11  C22 UNL     1      24.694   2.479  50.829  1.00  0.00     0.048 A 
HETATM   12  C23 UNL     1      24.086   1.633  51.734  1.00  0.00     0.024 A 
ENDROOT
BRANCH   1  13
HETATM   13  N1  UNL     1      21.929   1.892  50.519  1.00  0.00    -0.324 N 
HETATM   14  C2  UNL     1      21.244   3.150  50.703  1.00  0.00     0.017 A 
HETATM   15  C1  UNL     1      21.431   3.732  51.888  1.00  0.00     0.063 C 
HETATM   16  C3  UNL     1      20.403   3.745  49.671  1.00  0.00     0.025 A 
HETATM   17  C4  UNL     1      20.248   3.123  48.512  1.00  0.00     0.003 A 
HETATM   18  C5  UNL     1      20.950   1.844  48.335  1.00  0.00     0.018 A 
HETATM   19  C6  UNL     1      21.724   1.270  49.251  1.00  0.00     0.097 A 
ENDBRANCH   1  13
BRANCH  10  20
HETATM   20  N4  UNL     1      26.777   3.574  50.165  1.00  0.00    -0.321 N 
HETATM   21  C16 UNL     1      26.562   4.641  49.290  1.00  0.00     0.245 C 
HETATM   22  O2  UNL     1      25.454   5.148  49.071  1.00  0.00    -0.268 OA
HETATM   23  H12 UNL     1      27.735   3.149  50.341  1.00  0.00     0.169 HD
BRANCH  21  24
HETATM   24  C17 UNL     1      27.758   5.143  48.628  1.00  0.00     0.072 C 
HETATM   25  C18 UNL     1      27.792   6.384  48.210  1.00  0.00     0.008 C 
BRANCH  25  26
HETATM   26  C19 UNL     1      28.949   7.014  47.523  1.00  0.00     0.299 C 
BRANCH  26  27
HETATM   27  N5  UNL     1      29.579   8.054  48.286  1.00  0.00     0.083 N 
HETATM   28  C20 UNL     1      28.657   8.794  49.090  1.00  0.00     0.309 C 
HETATM   29  C21 UNL     1      30.787   7.665  48.941  1.00  0.00     0.309 C 
ENDBRANCH  26  27
ENDBRANCH  25  26
ENDBRANCH  21  24
ENDBRANCH  10  20
BRANCH   9  30
HETATM   30  O1  UNL     1      28.092   2.404  52.286  1.00  0.00    -0.354 OA
HETATM   31  C14 UNL     1      28.628   2.444  53.619  1.00  0.00     0.210 C 
ENDBRANCH   9  30
TORSDOF 6
ENDMDL
MODEL 3
REMARK VINA RESULT:      -8.4      2.658      5.260
REMARK  6 active torsions:
REMARK  status: ('A' for Active; 'I' for Inactive)
REMARK    1  A    between atoms: N1_7  and  C7_8 
REMARK    2  A    between atoms: C13_16  and  O1_17 
REMARK    3  A    between atoms: C15_19  and  N4_20 
REMARK       I    between atoms: N4_20  and  C16_21 
REMARK    4  A    between atoms: C16_21  and  C17_23 
REMARK    5  A    between atoms: C18_24  and  C19_25 
REMARK    6  A    between atoms: C19_25  and  N5_26 
ROOT
HETATM    1  C7  UNL     1      22.223   1.121  52.460  1.00  0.00     0.073 A 
HETATM    2  C8  UNL     1      21.788   0.046  53.226  1.00  0.00     0.090 A 
HETATM    3  C9  UNL     1      20.380  -0.298  53.330  1.00  0.00     0.103 C 
HETATM    4  N2  UNL     1      19.256  -0.577  53.430  1.00  0.00    -0.191 NA
HETATM    5  C10 UNL     1      22.727  -0.724  53.912  1.00  0.00     0.142 A 
HETATM    6  N3  UNL     1      24.046  -0.396  53.811  1.00  0.00    -0.259 NA
HETATM    7  C11 UNL     1      24.455   0.649  53.066  1.00  0.00     0.071 A 
HETATM    8  C12 UNL     1      25.795   0.958  52.978  1.00  0.00     0.071 A 
HETATM    9  C13 UNL     1      26.222   2.031  52.208  1.00  0.00     0.097 A 
HETATM   10  C15 UNL     1      25.284   2.795  51.526  1.00  0.00     0.069 A 
HETATM   11  C22 UNL     1      23.928   2.518  51.589  1.00  0.00     0.048 A 
HETATM   12  C23 UNL     1      23.563   1.439  52.369  1.00  0.00     0.024 A 
ENDROOT
BRANCH   1  13
HETATM   13  N1  UNL     1      21.174   1.843  51.800  1.00  0.00    -0.324 N 
HETATM   14  C2  UNL     1      20.767   1.470  50.465  1.00  0.00     0.017 A 
HETATM   15  C1  UNL     1      21.431   0.443  49.934  1.00  0.00     0.063 C 
HETATM   16  C3  UNL     1      19.707   2.166  49.744  1.00  0.00     0.025 A 
HETATM   17  C4  UNL     1      19.081   3.182  50.317  1.00  0.00     0.003 A 
HETATM   18  C5  UNL     1      19.503   3.552  51.675  1.00  0.00     0.018 A 
HETATM   19  C6  UNL     1      20.464   2.944  52.364  1.00  0.00     0.097 A 
ENDBRANCH   1  13
BRANCH  10  20
HETATM   20  N4  UNL     1      25.780   3.876  50.751  1.00  0.00    -0.321 N 
HETATM   21  C16 UNL     1      26.577   4.100  49.626  1.00  0.00     0.245 C 
HETATM   22  O2  UNL     1      27.105   3.200  48.958  1.00  0.00    -0.268 OA
HETATM   23  H12 UNL     1      25.335   4.659  51.314  1.00  0.00     0.169 HD
BRANCH  21  24
HETATM   24  C17 UNL     1      26.757   5.500  49.269  1.00  0.00     0.072 C 
HETATM   25  C18 UNL     1      27.711   5.836  48.438  1.00  0.00     0.008 C 
BRANCH  25  26
HETATM   26  C19 UNL     1      27.997   7.225  47.995  1.00  0.00     0.299 C 
BRANCH  26  27
HETATM   27  N5  UNL     1      27.177   8.216  48.634  1.00  0.00     0.083 N 
HETATM   28  C20 UNL     1      27.911   9.055  49.530  1.00  0.00     0.309 C 
HETATM   29  C21 UNL     1      26.273   8.895  47.762  1.00  0.00     0.309 C 
ENDBRANCH  26  27
ENDBRANCH  25  26
ENDBRANCH  21  24
ENDBRANCH  10  20
BRANCH   9  30
HETATM   30  O1  UNL     1      27.579   2.316  52.140  1.00  0.00    -0.354 OA
HETATM   31  C14 UNL     1      28.368   2.348  53.341  1.00  0.00     0.210 C 
ENDBRANCH   9  30
TORSDOF 6
ENDMDL
MODEL 4
REMARK VINA RESULT:      -7.8      1.946      2.779
REMARK  6 active torsions:
REMARK  status: ('A' for Active; 'I' for Inactive)
REMARK    1  A    between atoms: N1_7  and  C7_8 
REMARK    2  A    between atoms: C13_16  and  O1_17 
REMARK    3  A    between atoms: C15_19  and  N4_20 
REMARK       I    between atoms: N4_20  and  C16_21 
REMARK    4  A    between atoms: C16_21  and  C17_23 
REMARK    5  A    between atoms: C18_24  and  C19_25 
REMARK    6  A    between atoms: C19_25  and  N5_26 
ROOT
HETATM    1  C7  UNL     1      23.979   1.685  51.528  1.00  0.00     0.073 A 
HETATM    2  C8  UNL     1      22.877   0.916  51.884  1.00  0.00     0.090 A 
HETATM    3  C9  UNL     1      22.975  -0.147  52.869  1.00  0.00     0.103 C 
HETATM    4  N2  UNL     1      23.043  -1.008  53.648  1.00  0.00    -0.191 NA
HETATM    5  C10 UNL     1      21.646   1.172  51.281  1.00  0.00     0.142 A 
HETATM    6  N3  UNL     1      21.561   2.170  50.358  1.00  0.00    -0.259 NA
HETATM    7  C11 UNL     1      22.636   2.909  50.021  1.00  0.00     0.071 A 
HETATM    8  C12 UNL     1      22.522   3.916  49.087  1.00  0.00     0.071 A 
HETATM    9  C13 UNL     1      23.626   4.682  48.738  1.00  0.00     0.097 A 
HETATM   10  C15 UNL     1      24.851   4.425  49.341  1.00  0.00     0.069 A 
HETATM   11  C22 UNL     1      25.006   3.422  50.285  1.00  0.00     0.048 A 
HETATM   12  C23 UNL     1      23.875   2.694  50.591  1.00  0.00     0.024 A 
ENDROOT
BRANCH   1  13
HETATM   13  N1  UNL     1      25.192   1.336  52.208  1.00  0.00    -0.324 N 
HETATM   14  C2  UNL     1      25.603   2.072  53.382  1.00  0.00     0.017 A 
HETATM   15  C1  UNL     1      24.786   3.059  53.749  1.00  0.00     0.063 C 
HETATM   16  C3  UNL     1      26.826   1.763  54.114  1.00  0.00     0.025 A 
HETATM   17  C4  UNL     1      27.604   0.773  53.704  1.00  0.00     0.003 A 
HETATM   18  C5  UNL     1      27.176   0.031  52.509  1.00  0.00     0.018 A 
HETATM   19  C6  UNL     1      26.071   0.283  51.815  1.00  0.00     0.097 A 
ENDBRANCH   1  13
BRANCH  10  20
HETATM   20  N4  UNL     1      25.941   5.244  48.950  1.00  0.00    -0.321 N 
HETATM   21  C16 UNL     1      27.299   5.132  48.646  1.00  0.00     0.245 C 
HETATM   22  O2  UNL     1      27.930   4.066  48.667  1.00  0.00    -0.268 OA
HETATM   23  H12 UNL     1      25.414   6.167  48.928  1.00  0.00     0.169 HD
BRANCH  21  24
HETATM   24  C17 UNL     1      27.956   6.382  48.289  1.00  0.00     0.072 C 
HETATM   25  C18 UNL     1      27.269   7.497  48.300  1.00  0.00     0.008 C 
BRANCH  25  26
HETATM   26  C19 UNL     1      27.821   8.833  47.958  1.00  0.00     0.299 C 
BRANCH  26  27
HETATM   27  N5  UNL     1      28.288   9.576  49.094  1.00  0.00     0.083 N 
HETATM   28  C20 UNL     1      27.454   9.417  50.245  1.00  0.00     0.309 C 
HETATM   29  C21 UNL     1      29.692   9.476  49.337  1.00  0.00     0.309 C 
ENDBRANCH  26  27
ENDBRANCH  25  26
ENDBRANCH  21  24
ENDBRANCH  10  20
BRANCH   9  30
HETATM   30  O1  UNL     1      23.478   5.688  47.794  1.00  0.00    -0.354 OA
HETATM   31  C14 UNL     1      22.384   5.645  46.862  1.00  0.00     0.210 C 
ENDBRANCH   9  30
TORSDOF 6
ENDMDL
MODEL 5
REMARK VINA RESULT:      -7.7      3.970      9.745
REMARK  6 active torsions:
REMARK  status: ('A' for Active; 'I' for Inactive)
REMARK    1  A    between atoms: N1_7  and  C7_8 
REMARK    2  A    between atoms: C13_16  and  O1_17 
REMARK    3  A    between atoms: C15_19  and  N4_20 
REMARK       I    between atoms: N4_20  and  C16_21 
REMARK    4  A    between atoms: C16_21  and  C17_23 
REMARK    5  A    between atoms: C18_24  and  C19_25 
REMARK    6  A    between atoms: C19_25  and  N5_26 
ROOT
HETATM    1  C7  UNL     1      24.491   2.623  50.788  1.00  0.00     0.073 A 
HETATM    2  C8  UNL     1      25.822   3.011  50.681  1.00  0.00     0.090 A 
HETATM    3  C9  UNL     1      26.241   4.055  49.762  1.00  0.00     0.103 C 
HETATM    4  N2  UNL     1      26.591   4.882  49.022  1.00  0.00    -0.191 NA
HETATM    5  C10 UNL     1      26.779   2.382  51.476  1.00  0.00     0.142 A 
HETATM    6  N3  UNL     1      26.380   1.404  52.336  1.00  0.00    -0.259 NA
HETATM    7  C11 UNL     1      25.087   1.036  52.430  1.00  0.00     0.071 A 
HETATM    8  C12 UNL     1      24.708   0.045  53.311  1.00  0.00     0.071 A 
HETATM    9  C13 UNL     1      23.377  -0.334  53.415  1.00  0.00     0.097 A 
HETATM   10  C15 UNL     1      22.426   0.294  52.621  1.00  0.00     0.069 A 
HETATM   11  C22 UNL     1      22.767   1.294  51.723  1.00  0.00     0.048 A 
HETATM   12  C23 UNL     1      24.104   1.629  51.664  1.00  0.00     0.024 A 
ENDROOT
BRANCH   1  13
HETATM   13  N1  UNL     1      23.594   3.334  49.924  1.00  0.00    -0.324 N 
HETATM   14  C2  UNL     1      22.954   4.545  50.381  1.00  0.00     0.017 A 
HETATM   15  C1  UNL     1      23.263   4.917  51.624  1.00  0.00     0.063 C 
HETATM   16  C3  UNL     1      22.033   5.310  49.549  1.00  0.00     0.025 A 
HETATM   17  C4  UNL     1      21.759   4.894  48.321  1.00  0.00     0.003 A 
HETATM   18  C5  UNL     1      22.415   3.661  47.866  1.00  0.00     0.018 A 
HETATM   19  C6  UNL     1      23.259   2.937  48.595  1.00  0.00     0.097 A 
ENDBRANCH   1  13
BRANCH  10  20
HETATM   20  N4  UNL     1      21.082  -0.132  52.775  1.00  0.00    -0.321 N 
HETATM   21  C16 UNL     1      19.786   0.370  52.641  1.00  0.00     0.245 C 
HETATM   22  O2  UNL     1      19.522   1.527  52.284  1.00  0.00    -0.268 OA
HETATM   23  H12 UNL     1      21.291  -1.127  53.083  1.00  0.00     0.169 HD
BRANCH  21  24
HETATM   24  C17 UNL     1      18.724  -0.576  52.953  1.00  0.00     0.072 C 
HETATM   25  C18 UNL     1      17.613  -0.552  52.260  1.00  0.00     0.008 C 
BRANCH  25  26
HETATM   26  C19 UNL     1      16.459  -1.462  52.479  1.00  0.00     0.299 C 
BRANCH  26  27
HETATM   27  N5  UNL     1      15.185  -0.853  52.223  1.00  0.00     0.083 N 
HETATM   28  C20 UNL     1      14.104  -1.789  52.246  1.00  0.00     0.309 C 
HETATM   29  C21 UNL     1      14.954   0.367  52.928  1.00  0.00     0.309 C 
ENDBRANCH  26  27
ENDBRANCH  25  26
ENDBRANCH  21  24
ENDBRANCH  10  20
BRANCH   9  30
HETATM   30  O1  UNL     1      23.029  -1.335  54.310  1.00  0.00    -0.354 OA
HETATM   31  C14 UNL     1      23.622  -1.367  55.619  1.00  0.00     0.210 C 
ENDBRANCH   9  30
TORSDOF 6
ENDMDL
MODEL 6
REMARK VINA RESULT:      -7.6      4.906      9.394
REMARK  6 active torsions:
REMARK  status: ('A' for Active; 'I' for Inactive)
REMARK    1  A    between atoms: N1_7  and  C7_8 
REMARK    2  A    between atoms: C13_16  and  O1_17 
REMARK    3  A    between atoms: C15_19  and  N4_20 
REMARK       I    between atoms: N4_20  and  C16_21 
REMARK    4  A    between atoms: C16_21  and  C17_23 
REMARK    5  A    between atoms: C18_24  and  C19_25 
REMARK    6  A    between atoms: C19_25  and  N5_26 
ROOT
HETATM    1  C7  UNL     1      23.646   1.823  51.813  1.00  0.00     0.073 A 
HETATM    2  C8  UNL     1      24.865   1.282  52.205  1.00  0.00     0.090 A 
HETATM    3  C9  UNL     1      26.128   1.899  51.837  1.00  0.00     0.103 C 
HETATM    4  N2  UNL     1      27.146   2.377  51.539  1.00  0.00    -0.191 NA
HETATM    5  C10 UNL     1      24.877   0.118  52.972  1.00  0.00     0.142 A 
HETATM    6  N3  UNL     1      23.689  -0.456  53.315  1.00  0.00    -0.259 NA
HETATM    7  C11 UNL     1      22.515   0.078  52.928  1.00  0.00     0.071 A 
HETATM    8  C12 UNL     1      21.326  -0.520  53.290  1.00  0.00     0.071 A 
HETATM    9  C13 UNL     1      20.113   0.028  52.898  1.00  0.00     0.097 A 
HETATM   10  C15 UNL     1      20.105   1.188  52.134  1.00  0.00     0.069 A 
HETATM   11  C22 UNL     1      21.277   1.819  51.748  1.00  0.00     0.048 A 
HETATM   12  C23 UNL     1      22.452   1.229  52.168  1.00  0.00     0.024 A 
ENDROOT
BRANCH   1  13
HETATM   13  N1  UNL     1      23.752   3.019  51.027  1.00  0.00    -0.324 N 
HETATM   14  C2  UNL     1      23.756   4.311  51.671  1.00  0.00     0.017 A 
HETATM   15  C1  UNL     1      23.654   4.285  53.000  1.00  0.00     0.063 C 
HETATM   16  C3  UNL     1      23.861   5.560  50.925  1.00  0.00     0.025 A 
HETATM   17  C4  UNL     1      23.957   5.529  49.604  1.00  0.00     0.003 A 
HETATM   18  C5  UNL     1      23.952   4.209  48.960  1.00  0.00     0.018 A 
HETATM   19  C6  UNL     1      23.857   3.050  49.604  1.00  0.00     0.097 A 
ENDBRANCH   1  13
BRANCH  10  20
HETATM   20  N4  UNL     1      18.835   1.704  51.767  1.00  0.00    -0.321 N 
HETATM   21  C16 UNL     1      18.192   2.934  51.613  1.00  0.00     0.245 C 
HETATM   22  O2  UNL     1      18.733   4.031  51.810  1.00  0.00    -0.268 OA
HETATM   23  H12 UNL     1      18.356   0.771  51.595  1.00  0.00     0.169 HD
BRANCH  21  24
HETATM   24  C17 UNL     1      16.800   2.852  51.192  1.00  0.00     0.072 C 
HETATM   25  C18 UNL     1      15.893   3.556  51.820  1.00  0.00     0.008 C 
BRANCH  25  26
HETATM   26  C19 UNL     1      14.445   3.560  51.488  1.00  0.00     0.299 C 
BRANCH  26  27
HETATM   27  N5  UNL     1      13.592   3.304  52.613  1.00  0.00     0.083 N 
HETATM   28  C20 UNL     1      13.712   1.970  53.114  1.00  0.00     0.309 C 
HETATM   29  C21 UNL     1      13.587   4.332  53.604  1.00  0.00     0.309 C 
ENDBRANCH  26  27
ENDBRANCH  25  26
ENDBRANCH  21  24
ENDBRANCH  10  20
BRANCH   9  30
HETATM   30  O1  UNL     1      18.935  -0.599  53.279  1.00  0.00    -0.354 OA
HETATM   31  C14 UNL     1      18.959  -1.966  53.723  1.00  0.00     0.210 C 
ENDBRANCH   9  30
TORSDOF 6
ENDMDL
MODEL 7
REMARK VINA RESULT:      -7.5      3.828      9.687
REMARK  6 active torsions:
REMARK  status: ('A' for Active; 'I' for Inactive)
REMARK    1  A    between atoms: N1_7  and  C7_8 
REMARK    2  A    between atoms: C13_16  and  O1_17 
REMARK    3  A    between atoms: C15_19  and  N4_20 
REMARK       I    between atoms: N4_20  and  C16_21 
REMARK    4  A    between atoms: C16_21  and  C17_23 
REMARK    5  A    between atoms: C18_24  and  C19_25 
REMARK    6  A    between atoms: C19_25  and  N5_26 
ROOT
HETATM    1  C7  UNL     1      23.685   3.466  50.280  1.00  0.00     0.073 A 
HETATM    2  C8  UNL     1      24.793   4.196  49.867  1.00  0.00     0.090 A 
HETATM    3  C9  UNL     1      24.664   5.346  48.987  1.00  0.00     0.103 C 
HETATM    4  N2  UNL     1      24.576   6.261  48.276  1.00  0.00    -0.191 NA
HETATM    5  C10 UNL     1      26.060   3.816  50.306  1.00  0.00     0.142 A 
HETATM    6  N3  UNL     1      26.174   2.737  51.130  1.00  0.00    -0.259 NA
HETATM    7  C11 UNL     1      25.093   2.037  51.524  1.00  0.00     0.071 A 
HETATM    8  C12 UNL     1      25.235   0.950  52.360  1.00  0.00     0.071 A 
HETATM    9  C13 UNL     1      24.124   0.228  52.772  1.00  0.00     0.097 A 
HETATM   10  C15 UNL     1      22.862   0.610  52.333  1.00  0.00     0.069 A 
HETATM   11  C22 UNL     1      22.678   1.695  51.491  1.00  0.00     0.048 A 
HETATM   12  C23 UNL     1      23.818   2.375  51.115  1.00  0.00     0.024 A 
ENDROOT
BRANCH   1  13
HETATM   13  N1  UNL     1      22.433   3.943  49.768  1.00  0.00    -0.324 N 
HETATM   14  C2  UNL     1      21.892   3.395  48.546  1.00  0.00     0.017 A 
HETATM   15  C1  UNL     1      22.636   2.450  47.970  1.00  0.00     0.063 C 
HETATM   16  C3  UNL     1      20.625   3.840  47.978  1.00  0.00     0.025 A 
HETATM   17  C4  UNL     1      19.928   4.785  48.591  1.00  0.00     0.003 A 
HETATM   18  C5  UNL     1      20.487   5.336  49.833  1.00  0.00     0.018 A 
HETATM   19  C6  UNL     1      21.637   4.957  50.381  1.00  0.00     0.097 A 
ENDBRANCH   1  13
BRANCH  10  20
HETATM   20  N4  UNL     1      21.764  -0.163  52.791  1.00  0.00    -0.321 N 
HETATM   21  C16 UNL     1      21.027  -0.375  53.958  1.00  0.00     0.245 C 
HETATM   22  O2  UNL     1      21.247   0.200  55.033  1.00  0.00    -0.268 OA
HETATM   23  H12 UNL     1      21.563  -0.665  51.877  1.00  0.00     0.169 HD
BRANCH  21  24
HETATM   24  C17 UNL     1      19.946  -1.343  53.836  1.00  0.00     0.072 C 
HETATM   25  C18 UNL     1      18.804  -0.973  53.312  1.00  0.00     0.008 C 
BRANCH  25  26
HETATM   26  C19 UNL     1      17.628  -1.863  53.132  1.00  0.00     0.299 C 
BRANCH  26  27
HETATM   27  N5  UNL     1      16.533  -1.243  52.442  1.00  0.00     0.083 N 
HETATM   28  C20 UNL     1      16.951  -0.471  51.312  1.00  0.00     0.309 C 
HETATM   29  C21 UNL     1      15.409  -2.095  52.220  1.00  0.00     0.309 C 
ENDBRANCH  26  27
ENDBRANCH  25  26
ENDBRANCH  21  24
ENDBRANCH  10  20
BRANCH   9  30
HETATM   30  O1  UNL     1      24.300  -0.861  53.615  1.00  0.00    -0.354 OA
HETATM   31  C14 UNL     1      25.228  -0.779  54.710  1.00  0.00     0.210 C 
ENDBRANCH   9  30
TORSDOF 6
ENDMDL
MODEL 8
REMARK VINA RESULT:      -7.4      3.096      9.438
REMARK  6 active torsions:
REMARK  status: ('A' for Active; 'I' for Inactive)
REMARK    1  A    between atoms: N1_7  and  C7_8 
REMARK    2  A    between atoms: C13_16  and  O1_17 
REMARK    3  A    between atoms: C15_19  and  N4_20 
REMARK       I    between atoms: N4_20  and  C16_21 
REMARK    4  A    between atoms: C16_21  and  C17_23 
REMARK    5  A    between atoms: C18_24  and  C19_25 
REMARK    6  A    between atoms: C19_25  and  N5_26 
ROOT
HETATM    1  C7  UNL     1      28.618   9.649  47.847  1.00  0.00     0.073 A 
HETATM    2  C8  UNL     1      28.693  11.031  47.722  1.00  0.00     0.090 A 
HETATM    3  C9  UNL     1      29.756  11.673  46.967  1.00  0.00     0.103 C 
HETATM    4  N2  UNL     1      30.608  12.199  46.375  1.00  0.00    -0.191 NA
HETATM    5  C10 UNL     1      27.724  11.823  48.336  1.00  0.00     0.142 A 
HETATM    6  N3  UNL     1      26.730  11.215  49.043  1.00  0.00    -0.259 NA
HETATM    7  C11 UNL     1      26.668   9.875  49.157  1.00  0.00     0.071 A 
HETATM    8  C12 UNL     1      25.650   9.284  49.875  1.00  0.00     0.071 A 
HETATM    9  C13 UNL     1      25.579   7.903  49.992  1.00  0.00     0.097 A 
HETATM   10  C15 UNL     1      26.547   7.117  49.378  1.00  0.00     0.069 A 
HETATM   11  C22 UNL     1      27.586   7.672  48.649  1.00  0.00     0.048 A 
HETATM   12  C23 UNL     1      27.604   9.049  48.566  1.00  0.00     0.024 A 
ENDROOT
BRANCH   1  13
HETATM   13  N1  UNL     1      29.666   8.934  47.177  1.00  0.00    -0.324 N 
HETATM   14  C2  UNL     1      30.861   8.556  47.895  1.00  0.00     0.017 A 
HETATM   15  C1  UNL     1      30.893   8.922  49.177  1.00  0.00     0.063 C 
HETATM   16  C3  UNL     1      31.958   7.829  47.267  1.00  0.00     0.025 A 
HETATM   17  C4  UNL     1      31.875   7.492  45.989  1.00  0.00     0.003 A 
HETATM   18  C5  UNL     1      30.655   7.881  45.268  1.00  0.00     0.018 A 
HETATM   19  C6  UNL     1      29.635   8.544  45.804  1.00  0.00     0.097 A 
ENDBRANCH   1  13
BRANCH  10  20
HETATM   20  N4  UNL     1      26.420   5.712  49.529  1.00  0.00    -0.321 N 
HETATM   21  C16 UNL     1      27.092   4.540  49.175  1.00  0.00     0.245 C 
HETATM   22  O2  UNL     1      28.149   4.513  48.530  1.00  0.00    -0.268 OA
HETATM   23  H12 UNL     1      25.513   5.718  50.083  1.00  0.00     0.169 HD
BRANCH  21  24
HETATM   24  C17 UNL     1      26.459   3.308  49.625  1.00  0.00     0.072 C 
HETATM   25  C18 UNL     1      26.712   2.854  50.828  1.00  0.00     0.008 C 
BRANCH  25  26
HETATM   26  C19 UNL     1      26.131   1.614  51.403  1.00  0.00     0.299 C 
BRANCH  26  27
HETATM   27  N5  UNL     1      26.956   0.999  52.404  1.00  0.00     0.083 N 
HETATM   28  C20 UNL     1      27.314   1.894  53.460  1.00  0.00     0.309 C 
HETATM   29  C21 UNL     1      26.524  -0.297  52.819  1.00  0.00     0.309 C 
ENDBRANCH  26  27
ENDBRANCH  25  26
ENDBRANCH  21  24
ENDBRANCH  10  20
BRANCH   9  30
HETATM   30  O1  UNL     1      24.542   7.339  50.722  1.00  0.00    -0.354 OA
HETATM   31  C14 UNL     1      23.184   7.733  50.463  1.00  0.00     0.210 C 
ENDBRANCH   9  30
TORSDOF 6
ENDMDL
MODEL 9
REMARK VINA RESULT:      -7.2      2.837      9.668
REMARK  6 active torsions:
REMARK  status: ('A' for Active; 'I' for Inactive)
REMARK    1  A    between atoms: N1_7  and  C7_8 
REMARK    2  A    between atoms: C13_16  and  O1_17 
REMARK    3  A    between atoms: C15_19  and  N4_20 
REMARK       I    between atoms: N4_20  and  C16_21 
REMARK    4  A    between atoms: C16_21  and  C17_23 
REMARK    5  A    between atoms: C18_24  and  C19_25 
REMARK    6  A    between atoms: C19_25  and  N5_26 
ROOT
HETATM    1  C7  UNL     1      30.306   9.501  48.073  1.00  0.00     0.073 A 
HETATM    2  C8  UNL     1      30.733  10.819  47.965  1.00  0.00     0.090 A 
HETATM    3  C9  UNL     1      32.053  11.154  47.457  1.00  0.00     0.103 C 
HETATM    4  N2  UNL     1      33.110  11.435  47.063  1.00  0.00    -0.191 NA
HETATM    5  C10 UNL     1      29.875  11.847  48.353  1.00  0.00     0.142 A 
HETATM    6  N3  UNL     1      28.639  11.526  48.828  1.00  0.00    -0.259 NA
HETATM    7  C11 UNL     1      28.236  10.245  48.929  1.00  0.00     0.071 A 
HETATM    8  C12 UNL     1      26.979   9.947  49.410  1.00  0.00     0.071 A 
HETATM    9  C13 UNL     1      26.557   8.628  49.512  1.00  0.00     0.097 A 
HETATM   10  C15 UNL     1      27.415   7.607  49.124  1.00  0.00     0.069 A 
HETATM   11  C22 UNL     1      28.686   7.865  48.636  1.00  0.00     0.048 A 
HETATM   12  C23 UNL     1      29.050   9.194  48.557  1.00  0.00     0.024 A 
ENDROOT
BRANCH   1  13
HETATM   13  N1  UNL     1      31.269   8.527  47.647  1.00  0.00    -0.324 N 
HETATM   14  C2  UNL     1      31.271   8.059  46.280  1.00  0.00     0.017 A 
HETATM   15  C1  UNL     1      30.336   8.594  45.495  1.00  0.00     0.063 C 
HETATM   16  C3  UNL     1      32.225   7.071  45.790  1.00  0.00     0.025 A 
HETATM   17  C4  UNL     1      33.133   6.570  46.614  1.00  0.00     0.003 A 
HETATM   18  C5  UNL     1      33.121   7.053  48.002  1.00  0.00     0.018 A 
HETATM   19  C6  UNL     1      32.268   7.951  48.486  1.00  0.00     0.097 A 
ENDBRANCH   1  13
BRANCH  10  20
HETATM   20  N4  UNL     1      26.927   6.281  49.245  1.00  0.00    -0.321 N 
HETATM   21  C16 UNL     1      27.326   4.972  48.966  1.00  0.00     0.245 C 
HETATM   22  O2  UNL     1      28.413   4.670  48.454  1.00  0.00    -0.268 OA
HETATM   23  H12 UNL     1      25.990   6.522  49.685  1.00  0.00     0.169 HD
BRANCH  21  24
HETATM   24  C17 UNL     1      26.358   3.944  49.325  1.00  0.00     0.072 C 
HETATM   25  C18 UNL     1      26.324   3.491  50.553  1.00  0.00     0.008 C 
BRANCH  25  26
HETATM   26  C19 UNL     1      25.387   2.447  51.044  1.00  0.00     0.299 C 
BRANCH  26  27
HETATM   27  N5  UNL     1      25.756   1.889  52.314  1.00  0.00     0.083 N 
HETATM   28  C20 UNL     1      24.675   1.211  52.960  1.00  0.00     0.309 C 
HETATM   29  C21 UNL     1      27.006   1.200  52.323  1.00  0.00     0.309 C 
ENDBRANCH  26  27
ENDBRANCH  25  26
ENDBRANCH  21  24
ENDBRANCH  10  20
BRANCH   9  30
HETATM   30  O1  UNL     1      25.286   8.362  50.000  1.00  0.00    -0.354 OA
HETATM   31  C14 UNL     1      24.131   8.639  49.190  1.00  0.00     0.210 C 
ENDBRANCH   9  30
TORSDOF 6
ENDMDL
