MODEL 1
REMARK VINA RESULT:      -8.4      0.000      0.000
REMARK  4 active torsions:
REMARK  status: ('A' for Active; 'I' for Inactive)
REMARK    1  A    between atoms: C7_7  and  O1_8 
REMARK    2  A    between atoms: O1_8  and  N1_9 
REMARK    3  A    between atoms: C8_10  and  O2_11 
REMARK    4  A    between atoms: N2_16  and  C13_17 
ROOT
HETATM    1  C1  UNL     1      21.714   4.495  52.129  1.00  0.00     0.019 C 
HETATM    2  C2  UNL     1      22.618   3.679  52.200  1.00  0.00    -0.059 C 
HETATM    3  C3  UNL     1      23.685   2.699  52.270  1.00  0.00     0.089 A 
HETATM    4  C4  UNL     1      24.896   3.051  52.672  1.00  0.00     0.026 A 
HETATM    5  C5  UNL     1      25.982   2.095  52.746  1.00  0.00     0.071 A 
HETATM    6  C6  UNL     1      27.012   2.233  53.769  1.00  0.00     0.028 C 
HETATM    7  C7  UNL     1      27.626   1.108  54.032  1.00  0.00     0.122 C 
HETATM    8  C8  UNL     1      27.450  -0.263  53.582  1.00  0.00     0.103 C 
HETATM    9  C10 UNL     1      26.411  -0.462  52.746  1.00  0.00     0.049 C 
HETATM   10  C11 UNL     1      25.619   0.719  52.474  1.00  0.00    -0.028 A 
HETATM   11  C12 UNL     1      24.384   0.362  52.089  1.00  0.00     0.106 A 
HETATM   12  N2  UNL     1      23.337   1.346  51.952  1.00  0.00    -0.315 N 
ENDROOT
BRANCH  12  13
HETATM   13  C13 UNL     1      22.020   1.023  51.527  1.00  0.00     0.041 A 
HETATM   14  C14 UNL     1      21.463   1.277  50.291  1.00  0.00     0.033 A 
HETATM   15  C15 UNL     1      20.166   0.912  50.005  1.00  0.00     0.046 A 
HETATM   16  C16 UNL     1      19.435   0.273  51.011  1.00  0.00     0.138 A 
HETATM   17  F1  UNL     1      18.154  -0.104  50.773  1.00  0.00    -0.204 F 
HETATM   18  C17 UNL     1      19.958   0.002  52.262  1.00  0.00     0.074 A 
HETATM   19 CL1  UNL     1      19.013  -0.802  53.503  1.00  0.00    -0.081 Cl
HETATM   20  C18 UNL     1      21.276   0.385  52.521  1.00  0.00     0.057 A 
ENDBRANCH  12  13
BRANCH   7  21
HETATM   21  O1  UNL     1      28.650   1.236  54.987  1.00  0.00    -0.264 OA
BRANCH  21  22
HETATM   22  N1  UNL     1      29.561   2.234  54.768  1.00  0.00    -0.209 NA
HETATM   23  H5  UNL     1      29.860   2.201  53.788  1.00  0.00     0.150 HD
HETATM   24  H6  UNL     1      30.354   2.249  55.434  1.00  0.00     0.150 HD
ENDBRANCH  21  22
ENDBRANCH   7  21
BRANCH   8  25
HETATM   25  O2  UNL     1      28.293  -1.303  53.983  1.00  0.00    -0.353 OA
HETATM   26  C9  UNL     1      29.437  -1.604  53.218  1.00  0.00     0.210 C 
ENDBRANCH   8  25
TORSDOF 4
ENDMDL
MODEL 2
REMARK VINA RESULT:      -8.3      3.461      4.363
REMARK  4 active torsions:
REMARK  status: ('A' for Active; 'I' for Inactive)
REMARK    1  A    between atoms: C7_7  and  O1_8 
REMARK    2  A    between atoms: O1_8  and  N1_9 
REMARK    3  A    between atoms: C8_10  and  O2_11 
REMARK    4  A    between atoms: N2_16  and  C13_17 
ROOT
HETATM    1  C1  UNL     1      26.652   5.042  48.958  1.00  0.00     0.019 C 
HETATM    2  C2  UNL     1      26.274   4.110  49.648  1.00  0.00    -0.059 C 
HETATM    3  C3  UNL     1      25.811   2.999  50.458  1.00  0.00     0.089 A 
HETATM    4  C4  UNL     1      26.674   2.233  51.106  1.00  0.00     0.026 A 
HETATM    5  C5  UNL     1      26.239   1.113  51.916  1.00  0.00     0.071 A 
HETATM    6  C6  UNL     1      26.987   0.738  53.111  1.00  0.00     0.028 C 
HETATM    7  C7  UNL     1      26.268   0.069  53.975  1.00  0.00     0.122 C 
HETATM    8  C8  UNL     1      24.867  -0.312  54.037  1.00  0.00     0.103 C 
HETATM    9  C10 UNL     1      24.104   0.142  53.022  1.00  0.00     0.049 C 
HETATM   10  C11 UNL     1      24.805   0.973  52.065  1.00  0.00    -0.028 A 
HETATM   11  C12 UNL     1      23.933   1.765  51.424  1.00  0.00     0.106 A 
HETATM   12  N2  UNL     1      24.392   2.829  50.564  1.00  0.00    -0.315 N 
ENDROOT
BRANCH  12  13
HETATM   13  C13 UNL     1      23.510   3.683  49.847  1.00  0.00     0.041 A 
HETATM   14  C14 UNL     1      23.073   3.519  48.549  1.00  0.00     0.033 A 
HETATM   15  C15 UNL     1      22.213   4.425  47.967  1.00  0.00     0.046 A 
HETATM   16  C16 UNL     1      21.800   5.514  48.738  1.00  0.00     0.138 A 
HETATM   17  F1  UNL     1      20.954   6.431  48.205  1.00  0.00    -0.204 F 
HETATM   18  C17 UNL     1      22.216   5.713  50.042  1.00  0.00     0.074 A 
HETATM   19 CL1  UNL     1      21.677   7.092  50.983  1.00  0.00    -0.081 Cl
HETATM   20  C18 UNL     1      23.088   4.776  50.604  1.00  0.00     0.057 A 
ENDBRANCH  12  13
BRANCH   7  21
HETATM   21  O1  UNL     1      26.990  -0.334  55.112  1.00  0.00    -0.264 OA
BRANCH  21  22
HETATM   22  N1  UNL     1      28.352  -0.217  55.040  1.00  0.00    -0.209 NA
HETATM   23  H5  UNL     1      28.764  -1.154  54.997  1.00  0.00     0.150 HD
HETATM   24  H6  UNL     1      28.773   0.380  55.774  1.00  0.00     0.150 HD
ENDBRANCH  21  22
ENDBRANCH   7  21
BRANCH   8  25
HETATM   25  O2  UNL     1      24.343  -1.094  55.071  1.00  0.00    -0.353 OA
HETATM   26  C9  UNL     1      22.948  -1.243  55.190  1.00  0.00     0.210 C 
ENDBRANCH   8  25
TORSDOF 4
ENDMDL
MODEL 3
REMARK VINA RESULT:      -8.3      4.778      6.891
REMARK  4 active torsions:
REMARK  status: ('A' for Active; 'I' for Inactive)
REMARK    1  A    between atoms: C7_7  and  O1_8 
REMARK    2  A    between atoms: O1_8  and  N1_9 
REMARK    3  A    between atoms: C8_10  and  O2_11 
REMARK    4  A    between atoms: N2_16  and  C13_17 
ROOT
HETATM    1  C1  UNL     1      23.816  -0.857  54.437  1.00  0.00     0.019 C 
HETATM    2  C2  UNL     1      24.085   0.003  53.615  1.00  0.00    -0.059 C 
HETATM    3  C3  UNL     1      24.416   1.013  52.627  1.00  0.00     0.089 A 
HETATM    4  C4  UNL     1      23.567   1.992  52.357  1.00  0.00     0.026 A 
HETATM    5  C5  UNL     1      23.867   3.010  51.371  1.00  0.00     0.071 A 
HETATM    6  C6  UNL     1      23.369   4.370  51.546  1.00  0.00     0.028 C 
HETATM    7  C7  UNL     1      24.070   5.259  50.891  1.00  0.00     0.122 C 
HETATM    8  C8  UNL     1      25.284   5.196  50.094  1.00  0.00     0.103 C 
HETATM    9  C10 UNL     1      25.863   3.980  50.029  1.00  0.00     0.049 C 
HETATM   10  C11 UNL     1      25.199   2.952  50.804  1.00  0.00    -0.028 A 
HETATM   11  C12 UNL     1      26.066   1.970  51.097  1.00  0.00     0.106 A 
HETATM   12  N2  UNL     1      25.714   0.926  52.028  1.00  0.00    -0.315 N 
ENDROOT
BRANCH  12  13
HETATM   13  C13 UNL     1      26.587  -0.147  52.357  1.00  0.00     0.041 A 
HETATM   14  C14 UNL     1      26.362  -1.491  52.147  1.00  0.00     0.033 A 
HETATM   15  C15 UNL     1      27.295  -2.436  52.515  1.00  0.00     0.046 A 
HETATM   16  C16 UNL     1      28.477  -1.984  53.106  1.00  0.00     0.138 A 
HETATM   17  F1  UNL     1      29.423  -2.879  53.484  1.00  0.00    -0.204 F 
HETATM   18  C17 UNL     1      28.739  -0.646  53.334  1.00  0.00     0.074 A 
HETATM   19 CL1  UNL     1      30.235  -0.111  54.079  1.00  0.00    -0.081 Cl
HETATM   20  C18 UNL     1      27.773   0.288  52.949  1.00  0.00     0.057 A 
ENDBRANCH  12  13
BRANCH   7  21
HETATM   21  O1  UNL     1      23.574   6.569  51.018  1.00  0.00    -0.264 OA
BRANCH  21  22
HETATM   22  N1  UNL     1      24.387   7.465  51.660  1.00  0.00    -0.209 NA
HETATM   23  H5  UNL     1      25.310   7.040  51.793  1.00  0.00     0.150 HD
HETATM   24  H6  UNL     1      23.991   7.859  52.532  1.00  0.00     0.150 HD
ENDBRANCH  21  22
ENDBRANCH   7  21
BRANCH   8  25
HETATM   25  O2  UNL     1      25.816   6.310  49.440  1.00  0.00    -0.353 OA
HETATM   26  C9  UNL     1      26.977   6.167  48.655  1.00  0.00     0.210 C 
ENDBRANCH   8  25
TORSDOF 4
ENDMDL
MODEL 4
REMARK VINA RESULT:      -8.3      5.341      7.393
REMARK  4 active torsions:
REMARK  status: ('A' for Active; 'I' for Inactive)
REMARK    1  A    between atoms: C7_7  and  O1_8 
REMARK    2  A    between atoms: O1_8  and  N1_9 
REMARK    3  A    between atoms: C8_10  and  O2_11 
REMARK    4  A    between atoms: N2_16  and  C13_17 
ROOT
HETATM    1  C1  UNL     1      23.508   0.587  53.116  1.00  0.00     0.019 C 
HETATM    2  C2  UNL     1      23.990   1.360  52.305  1.00  0.00    -0.059 C 
HETATM    3  C3  UNL     1      24.577   2.266  51.335  1.00  0.00     0.089 A 
HETATM    4  C4  UNL     1      23.812   3.089  50.636  1.00  0.00     0.026 A 
HETATM    5  C5  UNL     1      24.370   4.000  49.656  1.00  0.00     0.071 A 
HETATM    6  C6  UNL     1      23.748   5.298  49.425  1.00  0.00     0.028 C 
HETATM    7  C7  UNL     1      24.571   6.175  48.910  1.00  0.00     0.122 C 
HETATM    8  C8  UNL     1      25.990   6.159  48.594  1.00  0.00     0.103 C 
HETATM    9  C10 UNL     1      26.638   5.026  48.931  1.00  0.00     0.049 C 
HETATM   10  C11 UNL     1      25.817   4.033  49.593  1.00  0.00    -0.028 A 
HETATM   11  C12 UNL     1      26.590   3.213  50.320  1.00  0.00     0.106 A 
HETATM   12  N2  UNL     1      26.006   2.263  51.236  1.00  0.00    -0.315 N 
ENDROOT
BRANCH  12  13
HETATM   13  C13 UNL     1      26.779   1.358  52.013  1.00  0.00     0.041 A 
HETATM   14  C14 UNL     1      26.715  -0.020  51.987  1.00  0.00     0.033 A 
HETATM   15  C15 UNL     1      27.524  -0.786  52.797  1.00  0.00     0.046 A 
HETATM   16  C16 UNL     1      28.411  -0.119  53.645  1.00  0.00     0.138 A 
HETATM   17  F1  UNL     1      29.226  -0.834  54.460  1.00  0.00    -0.204 F 
HETATM   18  C17 UNL     1      28.504   1.260  53.701  1.00  0.00     0.074 A 
HETATM   19 CL1  UNL     1      29.630   2.067  54.778  1.00  0.00    -0.081 Cl
HETATM   20  C18 UNL     1      27.670   2.009  52.867  1.00  0.00     0.057 A 
ENDBRANCH  12  13
BRANCH   7  21
HETATM   21  O1  UNL     1      23.972   7.419  48.643  1.00  0.00    -0.264 OA
BRANCH  21  22
HETATM   22  N1  UNL     1      24.244   8.426  49.530  1.00  0.00    -0.209 NA
HETATM   23  H5  UNL     1      24.770   9.161  49.046  1.00  0.00     0.150 HD
HETATM   24  H6  UNL     1      24.693   8.116  50.410  1.00  0.00     0.150 HD
ENDBRANCH  21  22
ENDBRANCH   7  21
BRANCH   8  25
HETATM   25  O2  UNL     1      26.640   7.236  47.985  1.00  0.00    -0.353 OA
HETATM   26  C9  UNL     1      27.814   7.756  48.563  1.00  0.00     0.210 C 
ENDBRANCH   8  25
TORSDOF 4
ENDMDL
MODEL 5
REMARK VINA RESULT:      -8.1      4.759      7.458
REMARK  4 active torsions:
REMARK  status: ('A' for Active; 'I' for Inactive)
REMARK    1  A    between atoms: C7_7  and  O1_8 
REMARK    2  A    between atoms: O1_8  and  N1_9 
REMARK    3  A    between atoms: C8_10  and  O2_11 
REMARK    4  A    between atoms: N2_16  and  C13_17 
ROOT
HETATM    1  C1  UNL     1      24.547  -1.377  55.669  1.00  0.00     0.019 C 
HETATM    2  C2  UNL     1      24.237  -0.696  54.706  1.00  0.00    -0.059 C 
HETATM    3  C3  UNL     1      23.882   0.106  53.550  1.00  0.00     0.089 A 
HETATM    4  C4  UNL     1      22.629   0.482  53.352  1.00  0.00     0.026 A 
HETATM    5  C5  UNL     1      22.245   1.278  52.203  1.00  0.00     0.071 A 
HETATM    6  C6  UNL     1      21.156   2.242  52.310  1.00  0.00     0.028 C 
HETATM    7  C7  UNL     1      21.221   3.189  51.410  1.00  0.00     0.122 C 
HETATM    8  C8  UNL     1      22.187   3.533  50.379  1.00  0.00     0.103 C 
HETATM    9  C10 UNL     1      23.287   2.754  50.343  1.00  0.00     0.049 C 
HETATM   10  C11 UNL     1      23.338   1.732  51.368  1.00  0.00    -0.028 A 
HETATM   11  C12 UNL     1      24.611   1.367  51.585  1.00  0.00     0.106 A 
HETATM   12  N2  UNL     1      24.958   0.513  52.696  1.00  0.00    -0.315 N 
ENDROOT
BRANCH  12  13
HETATM   13  C13 UNL     1      26.287   0.081  52.957  1.00  0.00     0.041 A 
HETATM   14  C14 UNL     1      26.810  -1.173  52.722  1.00  0.00     0.033 A 
HETATM   15  C15 UNL     1      28.123  -1.465  53.023  1.00  0.00     0.046 A 
HETATM   16  C16 UNL     1      28.904  -0.445  53.572  1.00  0.00     0.138 A 
HETATM   17  F1  UNL     1      30.202  -0.689  53.884  1.00  0.00    -0.204 F 
HETATM   18  C17 UNL     1      28.416   0.824  53.823  1.00  0.00     0.074 A 
HETATM   19 CL1  UNL     1      29.425   2.082  54.514  1.00  0.00    -0.081 Cl
HETATM   20  C18 UNL     1      27.080   1.089  53.507  1.00  0.00     0.057 A 
ENDBRANCH  12  13
BRANCH   7  21
HETATM   21  O1  UNL     1      20.153   4.101  51.476  1.00  0.00    -0.264 OA
BRANCH  21  22
HETATM   22  N1  UNL     1      18.980   3.625  51.997  1.00  0.00    -0.209 NA
HETATM   23  H5  UNL     1      19.194   2.882  52.671  1.00  0.00     0.150 HD
HETATM   24  H6  UNL     1      18.278   3.343  51.291  1.00  0.00     0.150 HD
ENDBRANCH  21  22
ENDBRANCH   7  21
BRANCH   8  25
HETATM   25  O2  UNL     1      21.995   4.593  49.489  1.00  0.00    -0.353 OA
HETATM   26  C9  UNL     1      22.670   4.593  48.253  1.00  0.00     0.210 C 
ENDBRANCH   8  25
TORSDOF 4
ENDMDL
MODEL 6
REMARK VINA RESULT:      -7.9      2.777      3.878
REMARK  4 active torsions:
REMARK  status: ('A' for Active; 'I' for Inactive)
REMARK    1  A    between atoms: C7_7  and  O1_8 
REMARK    2  A    between atoms: O1_8  and  N1_9 
REMARK    3  A    between atoms: C8_10  and  O2_11 
REMARK    4  A    between atoms: N2_16  and  C13_17 
ROOT
HETATM    1  C1  UNL     1      20.313   0.336  51.484  1.00  0.00     0.019 C 
HETATM    2  C2  UNL     1      21.442   0.551  51.893  1.00  0.00    -0.059 C 
HETATM    3  C3  UNL     1      22.780   0.823  52.383  1.00  0.00     0.089 A 
HETATM    4  C4  UNL     1      23.476  -0.120  52.997  1.00  0.00     0.026 A 
HETATM    5  C5  UNL     1      24.812   0.126  53.502  1.00  0.00     0.071 A 
HETATM    6  C6  UNL     1      25.801  -0.947  53.513  1.00  0.00     0.028 C 
HETATM    7  C7  UNL     1      27.032  -0.506  53.530  1.00  0.00     0.122 C 
HETATM    8  C8  UNL     1      27.629   0.818  53.460  1.00  0.00     0.103 C 
HETATM    9  C10 UNL     1      26.754   1.831  53.298  1.00  0.00     0.049 C 
HETATM   10  C11 UNL     1      25.370   1.423  53.177  1.00  0.00    -0.028 A 
HETATM   11  C12 UNL     1      24.669   2.369  52.535  1.00  0.00     0.106 A 
HETATM   12  N2  UNL     1      23.313   2.124  52.106  1.00  0.00    -0.315 N 
ENDROOT
BRANCH  12  13
HETATM   13  C13 UNL     1      22.521   3.099  51.441  1.00  0.00     0.041 A 
HETATM   14  C14 UNL     1      21.585   3.935  52.013  1.00  0.00     0.033 A 
HETATM   15  C15 UNL     1      20.880   4.841  51.251  1.00  0.00     0.046 A 
HETATM   16  C16 UNL     1      21.148   4.885  49.881  1.00  0.00     0.138 A 
HETATM   17  F1  UNL     1      20.477   5.762  49.094  1.00  0.00    -0.204 F 
HETATM   18  C17 UNL     1      22.078   4.064  49.271  1.00  0.00     0.074 A 
HETATM   19 CL1  UNL     1      22.391   4.143  47.547  1.00  0.00    -0.081 Cl
HETATM   20  C18 UNL     1      22.777   3.154  50.070  1.00  0.00     0.057 A 
ENDBRANCH  12  13
BRANCH   7  21
HETATM   21  O1  UNL     1      27.994  -1.530  53.583  1.00  0.00    -0.264 OA
BRANCH  21  22
HETATM   22  N1  UNL     1      27.642  -2.723  53.011  1.00  0.00    -0.209 NA
HETATM   23  H5  UNL     1      28.434  -3.370  53.079  1.00  0.00     0.150 HD
HETATM   24  H6  UNL     1      27.262  -2.645  52.051  1.00  0.00     0.150 HD
ENDBRANCH  21  22
ENDBRANCH   7  21
BRANCH   8  25
HETATM   25  O2  UNL     1      29.007   1.030  53.552  1.00  0.00    -0.353 OA
HETATM   26  C9  UNL     1      29.494   2.097  54.332  1.00  0.00     0.210 C 
ENDBRANCH   8  25
TORSDOF 4
ENDMDL
MODEL 7
REMARK VINA RESULT:      -7.9      4.658      7.027
REMARK  4 active torsions:
REMARK  status: ('A' for Active; 'I' for Inactive)
REMARK    1  A    between atoms: C7_7  and  O1_8 
REMARK    2  A    between atoms: O1_8  and  N1_9 
REMARK    3  A    between atoms: C8_10  and  O2_11 
REMARK    4  A    between atoms: N2_16  and  C13_17 
ROOT
HETATM    1  C1  UNL     1      27.735   2.382  52.812  1.00  0.00     0.019 C 
HETATM    2  C2  UNL     1      26.612   2.029  52.495  1.00  0.00    -0.059 C 
HETATM    3  C3  UNL     1      25.279   1.614  52.099  1.00  0.00     0.089 A 
HETATM    4  C4  UNL     1      24.657   0.642  52.748  1.00  0.00     0.026 A 
HETATM    5  C5  UNL     1      23.329   0.202  52.370  1.00  0.00     0.071 A 
HETATM    6  C6  UNL     1      22.401  -0.282  53.386  1.00  0.00     0.028 C 
HETATM    7  C7  UNL     1      21.149  -0.192  53.019  1.00  0.00     0.122 C 
HETATM    8  C8  UNL     1      20.479   0.361  51.853  1.00  0.00     0.103 C 
HETATM    9  C10 UNL     1      21.291   0.955  50.955  1.00  0.00     0.049 C 
HETATM   10  C11 UNL     1      22.690   0.980  51.328  1.00  0.00    -0.028 A 
HETATM   11  C12 UNL     1      23.315   1.980  50.688  1.00  0.00     0.106 A 
HETATM   12  N2  UNL     1      24.666   2.350  51.034  1.00  0.00    -0.315 N 
ENDROOT
BRANCH  12  13
HETATM   13  C13 UNL     1      25.380   3.387  50.373  1.00  0.00     0.041 A 
HETATM   14  C14 UNL     1      26.489   3.243  49.565  1.00  0.00     0.033 A 
HETATM   15  C15 UNL     1      27.091   4.336  48.981  1.00  0.00     0.046 A 
HETATM   16  C16 UNL     1      26.538   5.594  49.234  1.00  0.00     0.138 A 
HETATM   17  F1  UNL     1      27.099   6.697  48.680  1.00  0.00    -0.204 F 
HETATM   18  C17 UNL     1      25.428   5.779  50.038  1.00  0.00     0.074 A 
HETATM   19 CL1  UNL     1      24.758   7.372  50.335  1.00  0.00    -0.081 Cl
HETATM   20  C18 UNL     1      24.840   4.650  50.616  1.00  0.00     0.057 A 
ENDBRANCH  12  13
BRANCH   7  21
HETATM   21  O1  UNL     1      20.247  -0.695  53.973  1.00  0.00    -0.264 OA
BRANCH  21  22
HETATM   22  N1  UNL     1      20.734  -1.652  54.823  1.00  0.00    -0.209 NA
HETATM   23  H5  UNL     1      21.644  -1.344  55.181  1.00  0.00     0.150 HD
HETATM   24  H6  UNL     1      20.754  -2.609  54.429  1.00  0.00     0.150 HD
ENDBRANCH  21  22
ENDBRANCH   7  21
BRANCH   8  25
HETATM   25  O2  UNL     1      19.096   0.284  51.671  1.00  0.00    -0.353 OA
HETATM   26  C9  UNL     1      18.389   1.422  51.234  1.00  0.00     0.210 C 
ENDBRANCH   8  25
TORSDOF 4
ENDMDL
MODEL 8
REMARK VINA RESULT:      -7.8      3.279      4.404
REMARK  4 active torsions:
REMARK  status: ('A' for Active; 'I' for Inactive)
REMARK    1  A    between atoms: C7_7  and  O1_8 
REMARK    2  A    between atoms: O1_8  and  N1_9 
REMARK    3  A    between atoms: C8_10  and  O2_11 
REMARK    4  A    between atoms: N2_16  and  C13_17 
ROOT
HETATM    1  C1  UNL     1      20.459   1.350  49.344  1.00  0.00     0.019 C 
HETATM    2  C2  UNL     1      21.371   1.482  50.143  1.00  0.00    -0.059 C 
HETATM    3  C3  UNL     1      22.452   1.656  51.094  1.00  0.00     0.089 A 
HETATM    4  C4  UNL     1      22.736   0.706  51.971  1.00  0.00     0.026 A 
HETATM    5  C5  UNL     1      23.806   0.856  52.937  1.00  0.00     0.071 A 
HETATM    6  C6  UNL     1      24.566  -0.309  53.375  1.00  0.00     0.028 C 
HETATM    7  C7  UNL     1      25.749  -0.002  53.842  1.00  0.00     0.122 C 
HETATM    8  C8  UNL     1      26.500   1.239  53.943  1.00  0.00     0.103 C 
HETATM    9  C10 UNL     1      25.893   2.320  53.412  1.00  0.00     0.049 C 
HETATM   10  C11 UNL     1      24.613   2.050  52.790  1.00  0.00    -0.028 A 
HETATM   11  C12 UNL     1      24.336   3.001  51.884  1.00  0.00     0.106 A 
HETATM   12  N2  UNL     1      23.219   2.861  50.982  1.00  0.00    -0.315 N 
ENDROOT
BRANCH  12  13
HETATM   13  C13 UNL     1      22.871   3.847  50.019  1.00  0.00     0.041 A 
HETATM   14  C14 UNL     1      23.099   3.794  48.660  1.00  0.00     0.033 A 
HETATM   15  C15 UNL     1      22.710   4.824  47.831  1.00  0.00     0.046 A 
HETATM   16  C16 UNL     1      22.076   5.923  48.417  1.00  0.00     0.138 A 
HETATM   17  F1  UNL     1      21.677   6.960  47.638  1.00  0.00    -0.204 F 
HETATM   18  C17 UNL     1      21.830   6.014  49.774  1.00  0.00     0.074 A 
HETATM   19 CL1  UNL     1      21.032   7.408  50.477  1.00  0.00    -0.081 Cl
HETATM   20  C18 UNL     1      22.237   4.952  50.588  1.00  0.00     0.057 A 
ENDBRANCH  12  13
BRANCH   7  21
HETATM   21  O1  UNL     1      26.475  -1.112  54.307  1.00  0.00    -0.264 OA
BRANCH  21  22
HETATM   22  N1  UNL     1      27.404  -1.633  53.446  1.00  0.00    -0.209 NA
HETATM   23  H5  UNL     1      28.302  -1.164  53.604  1.00  0.00     0.150 HD
HETATM   24  H6  UNL     1      27.117  -1.636  52.452  1.00  0.00     0.150 HD
ENDBRANCH  21  22
ENDBRANCH   7  21
BRANCH   8  25
HETATM   25  O2  UNL     1      27.758   1.313  54.545  1.00  0.00    -0.353 OA
HETATM   26  C9  UNL     1      28.793   2.024  53.908  1.00  0.00     0.210 C 
ENDBRANCH   8  25
TORSDOF 4
ENDMDL
MODEL 9
REMARK VINA RESULT:      -7.7      1.463      2.005
REMARK  4 active torsions:
REMARK  status: ('A' for Active; 'I' for Inactive)
REMARK    1  A    between atoms: C7_7  and  O1_8 
REMARK    2  A    between atoms: O1_8  and  N1_9 
REMARK    3  A    between atoms: C8_10  and  O2_11 
REMARK    4  A    between atoms: N2_16  and  C13_17 
ROOT
HETATM    1  C1  UNL     1      19.417   4.117  51.568  1.00  0.00     0.019 C 
HETATM    2  C2  UNL     1      20.406   3.420  51.721  1.00  0.00    -0.059 C 
HETATM    3  C3  UNL     1      21.576   2.579  51.891  1.00  0.00     0.089 A 
HETATM    4  C4  UNL     1      22.756   3.115  52.159  1.00  0.00     0.026 A 
HETATM    5  C5  UNL     1      23.943   2.299  52.327  1.00  0.00     0.071 A 
HETATM    6  C6  UNL     1      24.990   2.712  53.253  1.00  0.00     0.028 C 
HETATM    7  C7  UNL     1      25.733   1.715  53.661  1.00  0.00     0.122 C 
HETATM    8  C8  UNL     1      25.690   0.277  53.453  1.00  0.00     0.103 C 
HETATM    9  C10 UNL     1      24.647  -0.165  52.723  1.00  0.00     0.049 C 
HETATM   10  C11 UNL     1      23.720   0.868  52.306  1.00  0.00    -0.028 A 
HETATM   11  C12 UNL     1      22.518   0.328  52.056  1.00  0.00     0.106 A 
HETATM   12  N2  UNL     1      21.366   1.164  51.819  1.00  0.00    -0.315 N 
ENDROOT
BRANCH  12  13
HETATM   13  C13 UNL     1      20.075   0.642  51.530  1.00  0.00     0.041 A 
HETATM   14  C14 UNL     1      19.335   0.854  50.385  1.00  0.00     0.033 A 
HETATM   15  C15 UNL     1      18.089   0.288  50.228  1.00  0.00     0.046 A 
HETATM   16  C16 UNL     1      17.603  -0.510  51.267  1.00  0.00     0.138 A 
HETATM   17  F1  UNL     1      16.381  -1.087  51.154  1.00  0.00    -0.204 F 
HETATM   18  C17 UNL     1      18.314  -0.746  52.429  1.00  0.00     0.074 A 
HETATM   19 CL1  UNL     1      17.675  -1.753  53.715  1.00  0.00    -0.081 Cl
HETATM   20  C18 UNL     1      19.576  -0.157  52.559  1.00  0.00     0.057 A 
ENDBRANCH  12  13
BRANCH   7  21
HETATM   21  O1  UNL     1      26.774   2.106  54.522  1.00  0.00    -0.264 OA
BRANCH  21  22
HETATM   22  N1  UNL     1      27.942   2.496  53.923  1.00  0.00    -0.209 NA
HETATM   23  H5  UNL     1      27.798   3.406  53.476  1.00  0.00     0.150 HD
HETATM   24  H6  UNL     1      28.357   1.791  53.288  1.00  0.00     0.150 HD
ENDBRANCH  21  22
ENDBRANCH   7  21
BRANCH   8  25
HETATM   25  O2  UNL     1      26.657  -0.590  53.971  1.00  0.00    -0.353 OA
HETATM   26  C9  UNL     1      27.682  -1.068  53.132  1.00  0.00     0.210 C 
ENDBRANCH   8  25
TORSDOF 4
ENDMDL
