MODEL 1
REMARK VINA RESULT:      -7.9      0.000      0.000
REMARK  4 active torsions:
REMARK  status: ('A' for Active; 'I' for Inactive)
REMARK    1  A    between atoms: C2_2  and  N1_3 
REMARK    2  A    between atoms: C6_8  and  O2_9 
REMARK    3  A    between atoms: C10_13  and  N2_14 
REMARK    4  A    between atoms: N2_14  and  C11_15 
ROOT
HETATM    1  N1  UNL     1      24.820   0.634  52.674  1.00  0.00    -0.385 N 
HETATM    2  C3  UNL     1      24.264  -0.524  53.286  1.00  0.00     0.124 C 
HETATM    3  C4  UNL     1      23.065  -0.401  54.119  1.00  0.00     0.046 C 
HETATM    4  C5  UNL     1      21.819   0.145  53.575  1.00  0.00     0.179 C 
HETATM    5  O1  UNL     1      21.222  -0.425  52.448  1.00  0.00    -0.329 OA
HETATM    6  C6  UNL     1      20.041   0.293  51.987  1.00  0.00     0.203 C 
HETATM    7  C8  UNL     1      20.438   0.909  50.764  1.00  0.00     0.073 C 
HETATM    8  C9  UNL     1      21.711   0.889  50.003  1.00  0.00     0.122 C 
HETATM    9  C10 UNL     1      22.435   2.261  50.201  1.00  0.00     0.152 C 
HETATM   10  C17 UNL     1      23.328   1.985  51.325  1.00  0.00     0.053 C 
HETATM   11  C18 UNL     1      24.130   1.894  52.436  1.00  0.00     0.003 C 
HETATM   12  C19 UNL     1      24.419   2.925  53.414  1.00  0.00     0.068 C 
HETATM   13  N3  UNL     1      21.439   3.259  50.377  1.00  0.00    -0.248 NA
HETATM   14  C20 UNL     1      20.158   3.050  50.252  1.00  0.00     0.204 C 
HETATM   15  N4  UNL     1      19.262   1.824  50.410  1.00  0.00    -0.350 N 
HETATM   16  H26 UNL     1      18.670   1.094  50.496  1.00  0.00     0.166 HD
ENDROOT
BRANCH   9  17
HETATM   17  N2  UNL     1      23.152   2.534  48.977  1.00  0.00    -0.358 N 
HETATM   18  H17 UNL     1      23.118   2.079  48.025  1.00  0.00     0.162 HD
BRANCH  17  19
HETATM   19  C11 UNL     1      24.096   3.632  49.077  1.00  0.00     0.032 A 
HETATM   20  C12 UNL     1      25.418   3.434  49.436  1.00  0.00     0.032 A 
HETATM   21  C13 UNL     1      26.316   4.466  49.527  1.00  0.00     0.046 A 
HETATM   22  C14 UNL     1      25.940   5.768  49.262  1.00  0.00     0.138 A 
HETATM   23  F1  UNL     1      26.827   6.794  49.335  1.00  0.00    -0.204 F 
HETATM   24  C15 UNL     1      24.625   5.994  48.903  1.00  0.00     0.074 A 
HETATM   25 CL1  UNL     1      24.160   7.651  48.583  1.00  0.00    -0.081 Cl
HETATM   26  C16 UNL     1      23.742   4.960  48.818  1.00  0.00     0.056 A 
ENDBRANCH  17  19
ENDBRANCH   9  17
BRANCH   6  27
HETATM   27  O2  UNL     1      19.266  -0.002  52.885  1.00  0.00    -0.334 OA
HETATM   28  C7  UNL     1      18.147  -0.894  52.940  1.00  0.00     0.212 C 
ENDBRANCH   6  27
BRANCH   1  29
HETATM   29  C2  UNL     1      26.111   0.754  52.046  1.00  0.00     0.118 C 
HETATM   30  C1  UNL     1      27.093  -0.328  52.445  1.00  0.00     0.026 C 
ENDBRANCH   1  29
TORSDOF 4
ENDMDL
MODEL 2
REMARK VINA RESULT:      -7.9      2.280      4.705
REMARK  4 active torsions:
REMARK  status: ('A' for Active; 'I' for Inactive)
REMARK    1  A    between atoms: C2_2  and  N1_3 
REMARK    2  A    between atoms: C6_8  and  O2_9 
REMARK    3  A    between atoms: C10_13  and  N2_14 
REMARK    4  A    between atoms: N2_14  and  C11_15 
ROOT
HETATM    1  N1  UNL     1      21.251   1.268  52.623  1.00  0.00    -0.385 N 
HETATM    2  C3  UNL     1      21.357   0.243  53.604  1.00  0.00     0.124 C 
HETATM    3  C4  UNL     1      22.221  -0.914  53.356  1.00  0.00     0.046 C 
HETATM    4  C5  UNL     1      23.653  -0.748  53.098  1.00  0.00     0.179 C 
HETATM    5  O1  UNL     1      24.470  -0.081  54.015  1.00  0.00    -0.329 OA
HETATM    6  C6  UNL     1      25.846   0.075  53.565  1.00  0.00     0.203 C 
HETATM    7  C8  UNL     1      25.989   1.466  53.288  1.00  0.00     0.073 C 
HETATM    8  C9  UNL     1      25.051   2.610  53.411  1.00  0.00     0.122 C 
HETATM    9  C10 UNL     1      24.565   3.016  51.981  1.00  0.00     0.152 C 
HETATM   10  C17 UNL     1      23.321   2.261  51.847  1.00  0.00     0.053 C 
HETATM   11  C18 UNL     1      22.198   1.528  51.548  1.00  0.00     0.003 C 
HETATM   12  C19 UNL     1      21.800   0.992  50.260  1.00  0.00     0.068 C 
HETATM   13  N3  UNL     1      25.614   2.729  51.065  1.00  0.00    -0.248 NA
HETATM   14  C20 UNL     1      26.806   2.329  51.414  1.00  0.00     0.204 C 
HETATM   15  N4  UNL     1      27.361   1.575  52.618  1.00  0.00    -0.350 N 
HETATM   16  H26 UNL     1      27.749   1.111  53.344  1.00  0.00     0.166 HD
ENDROOT
BRANCH   9  17
HETATM   17  N2  UNL     1      24.348   4.444  52.004  1.00  0.00    -0.358 N 
HETATM   18  H17 UNL     1      24.270   5.130  52.801  1.00  0.00     0.162 HD
BRANCH  17  19
HETATM   19  C11 UNL     1      24.207   5.042  50.688  1.00  0.00     0.032 A 
HETATM   20  C12 UNL     1      23.008   5.022  49.998  1.00  0.00     0.032 A 
HETATM   21  C13 UNL     1      22.866   5.589  48.758  1.00  0.00     0.046 A 
HETATM   22  C14 UNL     1      23.926   6.214  48.131  1.00  0.00     0.138 A 
HETATM   23  F1  UNL     1      23.790   6.792  46.910  1.00  0.00    -0.204 F 
HETATM   24  C15 UNL     1      25.136   6.246  48.798  1.00  0.00     0.074 A 
HETATM   25 CL1  UNL     1      26.474   7.030  47.985  1.00  0.00    -0.081 Cl
HETATM   26  C16 UNL     1      25.264   5.677  50.029  1.00  0.00     0.056 A 
ENDBRANCH  17  19
ENDBRANCH   9  17
BRANCH   6  27
HETATM   27  O2  UNL     1      26.219  -1.085  53.660  1.00  0.00    -0.334 OA
HETATM   28  C7  UNL     1      27.003  -1.920  52.798  1.00  0.00     0.212 C 
ENDBRANCH   6  27
BRANCH   1  29
HETATM   29  C2  UNL     1      20.279   2.330  52.572  1.00  0.00     0.118 C 
HETATM   30  C1  UNL     1      18.964   1.932  51.935  1.00  0.00     0.026 C 
ENDBRANCH   1  29
TORSDOF 4
ENDMDL
MODEL 3
REMARK VINA RESULT:      -7.5      9.971     12.333
REMARK  4 active torsions:
REMARK  status: ('A' for Active; 'I' for Inactive)
REMARK    1  A    between atoms: C2_2  and  N1_3 
REMARK    2  A    between atoms: C6_8  and  O2_9 
REMARK    3  A    between atoms: C10_13  and  N2_14 
REMARK    4  A    between atoms: N2_14  and  C11_15 
ROOT
HETATM    1  N1  UNL     1      33.282   9.362  46.381  1.00  0.00    -0.385 N 
HETATM    2  C3  UNL     1      33.488  10.769  46.377  1.00  0.00     0.124 C 
HETATM    3  C4  UNL     1      32.406  11.661  45.950  1.00  0.00     0.046 C 
HETATM    4  C5  UNL     1      31.111  11.659  46.633  1.00  0.00     0.179 C 
HETATM    5  O1  UNL     1      31.029  11.889  48.009  1.00  0.00    -0.329 OA
HETATM    6  C6  UNL     1      29.680  11.764  48.542  1.00  0.00     0.203 C 
HETATM    7  C8  UNL     1      29.699  10.569  49.318  1.00  0.00     0.073 C 
HETATM    8  C9  UNL     1      30.775   9.594  49.624  1.00  0.00     0.122 C 
HETATM    9  C10 UNL     1      30.534   8.299  48.782  1.00  0.00     0.152 C 
HETATM   10  C17 UNL     1      31.355   8.539  47.597  1.00  0.00     0.053 C 
HETATM   11  C18 UNL     1      31.994   8.682  46.389  1.00  0.00     0.003 C 
HETATM   12  C19 UNL     1      31.562   8.206  45.090  1.00  0.00     0.068 C 
HETATM   13  N3  UNL     1      29.132   8.153  48.598  1.00  0.00    -0.248 NA
HETATM   14  C20 UNL     1      28.233   8.909  49.163  1.00  0.00     0.204 C 
HETATM   15  N4  UNL     1      28.231  10.341  49.690  1.00  0.00    -0.350 N 
HETATM   16  H26 UNL     1      28.183  11.222  50.029  1.00  0.00     0.166 HD
ENDROOT
BRANCH   9  17
HETATM   17  N2  UNL     1      31.014   7.191  49.575  1.00  0.00    -0.358 N 
HETATM   18  H17 UNL     1      31.062   7.041  50.618  1.00  0.00     0.162 HD
BRANCH  17  19
HETATM   19  C11 UNL     1      31.529   6.082  48.791  1.00  0.00     0.032 A 
HETATM   20  C12 UNL     1      30.719   5.341  47.948  1.00  0.00     0.032 A 
HETATM   21  C13 UNL     1      31.199   4.297  47.201  1.00  0.00     0.046 A 
HETATM   22  C14 UNL     1      32.529   3.930  47.254  1.00  0.00     0.138 A 
HETATM   23  F1  UNL     1      33.016   2.907  46.506  1.00  0.00    -0.204 F 
HETATM   24  C15 UNL     1      33.360   4.653  48.090  1.00  0.00     0.074 A 
HETATM   25 CL1  UNL     1      35.040   4.168  48.157  1.00  0.00    -0.081 Cl
HETATM   26  C16 UNL     1      32.870   5.688  48.828  1.00  0.00     0.056 A 
ENDBRANCH  17  19
ENDBRANCH   9  17
BRANCH   6  27
HETATM   27  O2  UNL     1      29.183  12.774  48.066  1.00  0.00    -0.334 OA
HETATM   28  C7  UNL     1      28.035  13.550  48.432  1.00  0.00     0.212 C 
ENDBRANCH   6  27
BRANCH   1  29
HETATM   29  C2  UNL     1      34.282   8.334  46.516  1.00  0.00     0.118 C 
HETATM   30  C1  UNL     1      35.095   8.429  47.790  1.00  0.00     0.026 C 
ENDBRANCH   1  29
TORSDOF 4
ENDMDL
MODEL 4
REMARK VINA RESULT:      -7.4      1.830      4.219
REMARK  4 active torsions:
REMARK  status: ('A' for Active; 'I' for Inactive)
REMARK    1  A    between atoms: C2_2  and  N1_3 
REMARK    2  A    between atoms: C6_8  and  O2_9 
REMARK    3  A    between atoms: C10_13  and  N2_14 
REMARK    4  A    between atoms: N2_14  and  C11_15 
ROOT
HETATM    1  N1  UNL     1      20.374   3.217  49.468  1.00  0.00    -0.385 N 
HETATM    2  C3  UNL     1      18.975   3.024  49.640  1.00  0.00     0.124 C 
HETATM    3  C4  UNL     1      18.421   1.668  49.624  1.00  0.00     0.046 C 
HETATM    4  C5  UNL     1      18.873   0.655  50.581  1.00  0.00     0.179 C 
HETATM    5  O1  UNL     1      18.795   0.887  51.956  1.00  0.00    -0.329 OA
HETATM    6  C6  UNL     1      19.368  -0.182  52.762  1.00  0.00     0.203 C 
HETATM    7  C8  UNL     1      20.562   0.369  53.312  1.00  0.00     0.073 C 
HETATM    8  C9  UNL     1      21.187   1.711  53.200  1.00  0.00     0.122 C 
HETATM    9  C10 UNL     1      22.418   1.613  52.242  1.00  0.00     0.152 C 
HETATM   10  C17 UNL     1      21.842   1.987  50.952  1.00  0.00     0.053 C 
HETATM   11  C18 UNL     1      21.410   2.213  49.668  1.00  0.00     0.003 C 
HETATM   12  C19 UNL     1      21.885   1.594  48.445  1.00  0.00     0.068 C 
HETATM   13  N3  UNL     1      22.966   0.307  52.368  1.00  0.00    -0.248 NA
HETATM   14  C20 UNL     1      22.568  -0.577  53.240  1.00  0.00     0.204 C 
HETATM   15  N4  UNL     1      21.254  -0.826  53.974  1.00  0.00    -0.350 N 
HETATM   16  H26 UNL     1      20.461  -1.018  54.451  1.00  0.00     0.166 HD
ENDROOT
BRANCH   9  17
HETATM   17  N2  UNL     1      23.391   2.570  52.714  1.00  0.00    -0.358 N 
HETATM   18  H17 UNL     1      23.498   3.066  53.640  1.00  0.00     0.162 HD
BRANCH  17  19
HETATM   19  C11 UNL     1      24.404   2.917  51.733  1.00  0.00     0.032 A 
HETATM   20  C12 UNL     1      25.547   2.158  51.560  1.00  0.00     0.032 A 
HETATM   21  C13 UNL     1      26.505   2.476  50.632  1.00  0.00     0.046 A 
HETATM   22  C14 UNL     1      26.373   3.583  49.817  1.00  0.00     0.138 A 
HETATM   23  F1  UNL     1      27.309   3.896  48.884  1.00  0.00    -0.204 F 
HETATM   24  C15 UNL     1      25.240   4.359  49.970  1.00  0.00     0.074 A 
HETATM   25 CL1  UNL     1      25.092   5.766  48.939  1.00  0.00    -0.081 Cl
HETATM   26  C16 UNL     1      24.296   4.033  50.897  1.00  0.00     0.056 A 
ENDBRANCH  17  19
ENDBRANCH   9  17
BRANCH   6  27
HETATM   27  O2  UNL     1      18.520  -1.043  52.582  1.00  0.00    -0.334 OA
HETATM   28  C7  UNL     1      17.532  -1.622  53.445  1.00  0.00     0.212 C 
ENDBRANCH   6  27
BRANCH   1  29
HETATM   29  C2  UNL     1      21.058   4.457  49.201  1.00  0.00     0.118 C 
HETATM   30  C1  UNL     1      20.576   5.619  50.044  1.00  0.00     0.026 C 
ENDBRANCH   1  29
TORSDOF 4
ENDMDL
MODEL 5
REMARK VINA RESULT:      -7.2      2.650      4.608
REMARK  4 active torsions:
REMARK  status: ('A' for Active; 'I' for Inactive)
REMARK    1  A    between atoms: C2_2  and  N1_3 
REMARK    2  A    between atoms: C6_8  and  O2_9 
REMARK    3  A    between atoms: C10_13  and  N2_14 
REMARK    4  A    between atoms: N2_14  and  C11_15 
ROOT
HETATM    1  N1  UNL     1      24.427   3.264  51.200  1.00  0.00    -0.385 N 
HETATM    2  C3  UNL     1      25.657   2.550  51.230  1.00  0.00     0.124 C 
HETATM    3  C4  UNL     1      26.224   2.132  52.515  1.00  0.00     0.046 C 
HETATM    4  C5  UNL     1      25.476   1.260  53.424  1.00  0.00     0.179 C 
HETATM    5  O1  UNL     1      25.009   0.015  52.996  1.00  0.00    -0.329 OA
HETATM    6  C6  UNL     1      24.210  -0.684  53.992  1.00  0.00     0.203 C 
HETATM    7  C8  UNL     1      22.877  -0.646  53.489  1.00  0.00     0.073 C 
HETATM    8  C9  UNL     1      22.295  -0.087  52.243  1.00  0.00     0.122 C 
HETATM    9  C10 UNL     1      21.532   1.232  52.593  1.00  0.00     0.152 C 
HETATM   10  C17 UNL     1      22.547   2.255  52.348  1.00  0.00     0.053 C 
HETATM   11  C18 UNL     1      23.431   3.302  52.262  1.00  0.00     0.003 C 
HETATM   12  C19 UNL     1      23.487   4.492  53.089  1.00  0.00     0.068 C 
HETATM   13  N3  UNL     1      21.026   1.106  53.915  1.00  0.00    -0.248 NA
HETATM   14  C20 UNL     1      21.089   0.014  54.626  1.00  0.00     0.204 C 
HETATM   15  N4  UNL     1      22.027  -1.189  54.641  1.00  0.00    -0.350 N 
HETATM   16  H26 UNL     1      22.581  -1.953  54.687  1.00  0.00     0.166 HD
ENDROOT
BRANCH   9  17
HETATM   17  N2  UNL     1      20.418   1.325  51.678  1.00  0.00    -0.358 N 
HETATM   18  H17 UNL     1      19.390   1.120  51.798  1.00  0.00     0.162 HD
BRANCH  17  19
HETATM   19  C11 UNL     1      20.782   1.779  50.347  1.00  0.00     0.032 A 
HETATM   20  C12 UNL     1      21.522   0.993  49.481  1.00  0.00     0.032 A 
HETATM   21  C13 UNL     1      21.865   1.413  48.222  1.00  0.00     0.046 A 
HETATM   22  C14 UNL     1      21.484   2.655  47.753  1.00  0.00     0.138 A 
HETATM   23  F1  UNL     1      21.806   3.072  46.501  1.00  0.00    -0.204 F 
HETATM   24  C15 UNL     1      20.745   3.460  48.599  1.00  0.00     0.074 A 
HETATM   25 CL1  UNL     1      20.281   5.036  47.995  1.00  0.00    -0.081 Cl
HETATM   26  C16 UNL     1      20.412   3.032  49.848  1.00  0.00     0.056 A 
ENDBRANCH  17  19
ENDBRANCH   9  17
BRANCH   6  27
HETATM   27  O2  UNL     1      25.092  -0.980  54.784  1.00  0.00    -0.334 OA
HETATM   28  C7  UNL     1      25.137  -1.004  56.216  1.00  0.00     0.212 C 
ENDBRANCH   6  27
BRANCH   1  29
HETATM   29  C2  UNL     1      23.855   3.969  50.082  1.00  0.00     0.118 C 
HETATM   30  C1  UNL     1      24.878   4.610  49.168  1.00  0.00     0.026 C 
ENDBRANCH   1  29
TORSDOF 4
ENDMDL
MODEL 6
REMARK VINA RESULT:      -7.2      1.961      4.473
REMARK  4 active torsions:
REMARK  status: ('A' for Active; 'I' for Inactive)
REMARK    1  A    between atoms: C2_2  and  N1_3 
REMARK    2  A    between atoms: C6_8  and  O2_9 
REMARK    3  A    between atoms: C10_13  and  N2_14 
REMARK    4  A    between atoms: N2_14  and  C11_15 
ROOT
HETATM    1  N1  UNL     1      20.797   3.318  49.402  1.00  0.00    -0.385 N 
HETATM    2  C3  UNL     1      19.870   2.415  49.991  1.00  0.00     0.124 C 
HETATM    3  C4  UNL     1      20.222   0.999  50.127  1.00  0.00     0.046 C 
HETATM    4  C5  UNL     1      21.404   0.583  50.886  1.00  0.00     0.179 C 
HETATM    5  O1  UNL     1      21.562   0.958  52.223  1.00  0.00    -0.329 OA
HETATM    6  C6  UNL     1      22.831   0.538  52.801  1.00  0.00     0.203 C 
HETATM    7  C8  UNL     1      23.577   1.742  52.966  1.00  0.00     0.073 C 
HETATM    8  C9  UNL     1      23.255   3.163  52.687  1.00  0.00     0.122 C 
HETATM    9  C10 UNL     1      24.019   3.607  51.397  1.00  0.00     0.152 C 
HETATM   10  C17 UNL     1      23.026   3.377  50.350  1.00  0.00     0.053 C 
HETATM   11  C18 UNL     1      22.231   3.108  49.262  1.00  0.00     0.003 C 
HETATM   12  C19 UNL     1      22.643   2.663  47.945  1.00  0.00     0.068 C 
HETATM   13  N3  UNL     1      25.232   2.867  51.332  1.00  0.00    -0.248 NA
HETATM   14  C20 UNL     1      25.659   2.071  52.272  1.00  0.00     0.204 C 
HETATM   15  N4  UNL     1      24.975   1.262  53.370  1.00  0.00    -0.350 N 
HETATM   16  H26 UNL     1      24.594   0.745  54.063  1.00  0.00     0.166 HD
ENDROOT
BRANCH   9  17
HETATM   17  N2  UNL     1      24.339   5.006  51.562  1.00  0.00    -0.358 N 
HETATM   18  H17 UNL     1      24.345   5.630  52.413  1.00  0.00     0.162 HD
BRANCH  17  19
HETATM   19  C11 UNL     1      24.715   5.675  50.330  1.00  0.00     0.032 A 
HETATM   20  C12 UNL     1      23.809   6.414  49.590  1.00  0.00     0.032 A 
HETATM   21  C13 UNL     1      24.159   7.054  48.429  1.00  0.00     0.046 A 
HETATM   22  C14 UNL     1      25.448   6.990  47.936  1.00  0.00     0.138 A 
HETATM   23  F1  UNL     1      25.806   7.633  46.795  1.00  0.00    -0.204 F 
HETATM   24  C15 UNL     1      26.372   6.256  48.655  1.00  0.00     0.074 A 
HETATM   25 CL1  UNL     1      27.998   6.173  48.012  1.00  0.00    -0.081 Cl
HETATM   26  C16 UNL     1      26.012   5.624  49.807  1.00  0.00     0.056 A 
ENDBRANCH  17  19
ENDBRANCH   9  17
BRANCH   6  27
HETATM   27  O2  UNL     1      22.627  -0.664  52.877  1.00  0.00    -0.334 OA
HETATM   28  C7  UNL     1      21.995  -1.475  53.876  1.00  0.00     0.212 C 
ENDBRANCH   6  27
BRANCH   1  29
HETATM   29  C2  UNL     1      20.540   4.664  48.955  1.00  0.00     0.118 C 
HETATM   30  C1  UNL     1      19.547   5.419  49.814  1.00  0.00     0.026 C 
ENDBRANCH   1  29
TORSDOF 4
ENDMDL
MODEL 7
REMARK VINA RESULT:      -6.9      4.259      7.054
REMARK  4 active torsions:
REMARK  status: ('A' for Active; 'I' for Inactive)
REMARK    1  A    between atoms: C2_2  and  N1_3 
REMARK    2  A    between atoms: C6_8  and  O2_9 
REMARK    3  A    between atoms: C10_13  and  N2_14 
REMARK    4  A    between atoms: N2_14  and  C11_15 
ROOT
HETATM    1  N1  UNL     1      24.914   2.941  50.550  1.00  0.00    -0.385 N 
HETATM    2  C3  UNL     1      26.301   3.250  50.478  1.00  0.00     0.124 C 
HETATM    3  C4  UNL     1      26.831   3.943  49.300  1.00  0.00     0.046 C 
HETATM    4  C5  UNL     1      26.321   5.257  48.903  1.00  0.00     0.179 C 
HETATM    5  O1  UNL     1      26.346   6.332  49.796  1.00  0.00    -0.329 OA
HETATM    6  C6  UNL     1      25.721   7.539  49.274  1.00  0.00     0.203 C 
HETATM    7  C8  UNL     1      24.515   7.683  50.020  1.00  0.00     0.073 C 
HETATM    8  C9  UNL     1      23.920   6.884  51.121  1.00  0.00     0.122 C 
HETATM    9  C10 UNL     1      22.728   6.051  50.548  1.00  0.00     0.152 C 
HETATM   10  C17 UNL     1      23.364   4.775  50.225  1.00  0.00     0.053 C 
HETATM   11  C18 UNL     1      23.853   3.572  49.778  1.00  0.00     0.003 C 
HETATM   12  C19 UNL     1      23.418   2.806  48.625  1.00  0.00     0.068 C 
HETATM   13  N3  UNL     1      22.152   6.791  49.479  1.00  0.00    -0.248 NA
HETATM   14  C20 UNL     1      22.497   8.006  49.156  1.00  0.00     0.204 C 
HETATM   15  N4  UNL     1      23.775   8.824  49.317  1.00  0.00    -0.350 N 
HETATM   16  H26 UNL     1      24.543   9.368  49.395  1.00  0.00     0.166 HD
ENDROOT
BRANCH   9  17
HETATM   17  N2  UNL     1      21.754   5.933  51.608  1.00  0.00    -0.358 N 
HETATM   18  H17 UNL     1      21.528   6.559  52.427  1.00  0.00     0.162 HD
BRANCH  17  19
HETATM   19  C11 UNL     1      20.942   4.732  51.534  1.00  0.00     0.032 A 
HETATM   20  C12 UNL     1      19.926   4.589  50.605  1.00  0.00     0.032 A 
HETATM   21  C13 UNL     1      19.159   3.456  50.526  1.00  0.00     0.046 A 
HETATM   22  C14 UNL     1      19.365   2.391  51.380  1.00  0.00     0.138 A 
HETATM   23  F1  UNL     1      18.619   1.258  51.298  1.00  0.00    -0.204 F 
HETATM   24  C15 UNL     1      20.372   2.508  52.319  1.00  0.00     0.074 A 
HETATM   25 CL1  UNL     1      20.613   1.155  53.403  1.00  0.00    -0.081 Cl
HETATM   26  C16 UNL     1      21.127   3.640  52.388  1.00  0.00     0.056 A 
ENDBRANCH  17  19
ENDBRANCH   9  17
BRANCH   6  27
HETATM   27  O2  UNL     1      26.560   7.855  48.443  1.00  0.00    -0.334 OA
HETATM   28  C7  UNL     1      27.686   8.740  48.496  1.00  0.00     0.212 C 
ENDBRANCH   6  27
BRANCH   1  29
HETATM   29  C2  UNL     1      24.265   2.057  51.484  1.00  0.00     0.118 C 
HETATM   30  C1  UNL     1      24.579   2.356  52.935  1.00  0.00     0.026 C 
ENDBRANCH   1  29
TORSDOF 4
ENDMDL
MODEL 8
REMARK VINA RESULT:      -6.9      8.158     11.191
REMARK  4 active torsions:
REMARK  status: ('A' for Active; 'I' for Inactive)
REMARK    1  A    between atoms: C2_2  and  N1_3 
REMARK    2  A    between atoms: C6_8  and  O2_9 
REMARK    3  A    between atoms: C10_13  and  N2_14 
REMARK    4  A    between atoms: N2_14  and  C11_15 
ROOT
HETATM    1  N1  UNL     1      27.789   7.986  48.263  1.00  0.00    -0.385 N 
HETATM    2  C3  UNL     1      27.596   6.698  48.835  1.00  0.00     0.124 C 
HETATM    3  C4  UNL     1      28.209   5.524  48.207  1.00  0.00     0.046 C 
HETATM    4  C5  UNL     1      29.659   5.436  48.022  1.00  0.00     0.179 C 
HETATM    5  O1  UNL     1      30.526   5.556  49.111  1.00  0.00    -0.329 OA
HETATM    6  C6  UNL     1      31.935   5.534  48.742  1.00  0.00     0.203 C 
HETATM    7  C8  UNL     1      32.393   6.867  48.957  1.00  0.00     0.073 C 
HETATM    8  C9  UNL     1      31.715   8.087  49.462  1.00  0.00     0.122 C 
HETATM    9  C10 UNL     1      31.440   9.044  48.256  1.00  0.00     0.152 C 
HETATM   10  C17 UNL     1      30.078   8.681  47.873  1.00  0.00     0.053 C 
HETATM   11  C18 UNL     1      28.851   8.365  47.341  1.00  0.00     0.003 C 
HETATM   12  C19 UNL     1      28.449   8.393  45.948  1.00  0.00     0.068 C 
HETATM   13  N3  UNL     1      32.472   8.847  47.298  1.00  0.00    -0.248 NA
HETATM   14  C20 UNL     1      33.519   8.094  47.489  1.00  0.00     0.204 C 
HETATM   15  N4  UNL     1      33.805   6.876  48.364  1.00  0.00    -0.350 N 
HETATM   16  H26 UNL     1      34.027   6.122  48.888  1.00  0.00     0.166 HD
ENDROOT
BRANCH   9  17
HETATM   17  N2  UNL     1      31.533  10.393  48.765  1.00  0.00    -0.358 N 
HETATM   18  H17 UNL     1      32.066  10.802  49.578  1.00  0.00     0.162 HD
BRANCH  17  19
HETATM   19  C11 UNL     1      30.743  11.360  48.024  1.00  0.00     0.032 A 
HETATM   20  C12 UNL     1      31.044  11.705  46.718  1.00  0.00     0.032 A 
HETATM   21  C13 UNL     1      30.300  12.613  46.010  1.00  0.00     0.046 A 
HETATM   22  C14 UNL     1      29.202  13.234  46.573  1.00  0.00     0.138 A 
HETATM   23  F1  UNL     1      28.450  14.123  45.874  1.00  0.00    -0.204 F 
HETATM   24  C15 UNL     1      28.881  12.909  47.877  1.00  0.00     0.074 A 
HETATM   25 CL1  UNL     1      27.496  13.713  48.582  1.00  0.00    -0.081 Cl
HETATM   26  C16 UNL     1      29.630  12.006  48.571  1.00  0.00     0.056 A 
ENDBRANCH  17  19
ENDBRANCH   9  17
BRANCH   6  27
HETATM   27  O2  UNL     1      32.042   4.356  48.435  1.00  0.00    -0.334 OA
HETATM   28  C7  UNL     1      32.847   3.682  47.460  1.00  0.00     0.212 C 
ENDBRANCH   6  27
BRANCH   1  29
HETATM   29  C2  UNL     1      27.074   9.196  48.578  1.00  0.00     0.118 C 
HETATM   30  C1  UNL     1      27.093   9.558  50.048  1.00  0.00     0.026 C 
ENDBRANCH   1  29
TORSDOF 4
ENDMDL
MODEL 9
REMARK VINA RESULT:      -6.9      3.217      5.738
REMARK  4 active torsions:
REMARK  status: ('A' for Active; 'I' for Inactive)
REMARK    1  A    between atoms: C2_2  and  N1_3 
REMARK    2  A    between atoms: C6_8  and  O2_9 
REMARK    3  A    between atoms: C10_13  and  N2_14 
REMARK    4  A    between atoms: N2_14  and  C11_15 
ROOT
HETATM    1  N1  UNL     1      22.919   3.447  50.134  1.00  0.00    -0.385 N 
HETATM    2  C3  UNL     1      24.293   3.088  50.052  1.00  0.00     0.124 C 
HETATM    3  C4  UNL     1      25.111   3.060  51.268  1.00  0.00     0.046 C 
HETATM    4  C5  UNL     1      24.755   2.201  52.400  1.00  0.00     0.179 C 
HETATM    5  O1  UNL     1      24.604   0.823  52.229  1.00  0.00    -0.329 OA
HETATM    6  C6  UNL     1      24.163   0.130  53.432  1.00  0.00     0.203 C 
HETATM    7  C8  UNL     1      22.820  -0.262  53.160  1.00  0.00     0.073 C 
HETATM    8  C9  UNL     1      21.954  -0.099  51.965  1.00  0.00     0.122 C 
HETATM    9  C10 UNL     1      20.904   1.022  52.257  1.00  0.00     0.152 C 
HETATM   10  C17 UNL     1      21.554   2.211  51.708  1.00  0.00     0.053 C 
HETATM   11  C18 UNL     1      22.094   3.417  51.333  1.00  0.00     0.003 C 
HETATM   12  C19 UNL     1      21.919   4.708  51.969  1.00  0.00     0.068 C 
HETATM   13  N3  UNL     1      20.623   1.006  53.651  1.00  0.00    -0.248 NA
HETATM   14  C20 UNL     1      21.076   0.110  54.482  1.00  0.00     0.204 C 
HETATM   15  N4  UNL     1      22.307  -0.793  54.502  1.00  0.00    -0.350 N 
HETATM   16  H26 UNL     1      23.053  -1.369  54.556  1.00  0.00     0.166 HD
ENDROOT
BRANCH   9  17
HETATM   17  N2  UNL     1      19.702   0.665  51.539  1.00  0.00    -0.358 N 
HETATM   18  H17 UNL     1      19.222  -0.262  51.390  1.00  0.00     0.162 HD
BRANCH  17  19
HETATM   19  C11 UNL     1      19.038   1.789  50.902  1.00  0.00     0.032 A 
HETATM   20  C12 UNL     1      18.412   2.782  51.634  1.00  0.00     0.032 A 
HETATM   21  C13 UNL     1      17.788   3.848  51.040  1.00  0.00     0.046 A 
HETATM   22  C14 UNL     1      17.754   3.983  49.666  1.00  0.00     0.138 A 
HETATM   23  F1  UNL     1      17.152   5.044  49.070  1.00  0.00    -0.204 F 
HETATM   24  C15 UNL     1      18.371   3.004  48.911  1.00  0.00     0.074 A 
HETATM   25 CL1  UNL     1      18.308   3.182  47.171  1.00  0.00    -0.081 Cl
HETATM   26  C16 UNL     1      18.986   1.948  49.513  1.00  0.00     0.056 A 
ENDBRANCH  17  19
ENDBRANCH   9  17
BRANCH   6  27
HETATM   27  O2  UNL     1      25.185   0.213  54.096  1.00  0.00    -0.334 OA
HETATM   28  C7  UNL     1      26.463  -0.427  53.986  1.00  0.00     0.212 C 
ENDBRANCH   6  27
BRANCH   1  29
HETATM   29  C2  UNL     1      22.037   3.774  49.043  1.00  0.00     0.118 C 
HETATM   30  C1  UNL     1      22.226   2.907  47.816  1.00  0.00     0.026 C 
ENDBRANCH   1  29
TORSDOF 4
ENDMDL
