MODEL 1
REMARK VINA RESULT:      -7.4      0.000      0.000
REMARK  6 active torsions:
REMARK  status: ('A' for Active; 'I' for Inactive)
REMARK    1  A    between atoms: N1_1  and  C1_2 
REMARK    2  A    between atoms: C2_3  and  C3_4 
REMARK    3  A    between atoms: C3_4  and  C4_5 
REMARK    4  A    between atoms: C4_5  and  C5_6 
REMARK    5  A    between atoms: C4_5  and  C6_8 
REMARK    6  A    between atoms: C6_8  and  C7_9 
ROOT
HETATM    1  C1  UNL     1      25.086   2.142  53.171  1.00  0.00     0.091 A 
HETATM    2  C2  UNL     1      24.040   1.374  52.719  1.00  0.00     0.067 A 
HETATM    3  N2  UNL     1      24.409   0.097  52.517  1.00  0.00    -0.232 NA
HETATM    4  C8  UNL     1      25.643  -0.382  52.728  1.00  0.00     0.151 A 
HETATM    5  N3  UNL     1      26.647   0.391  53.171  1.00  0.00    -0.215 NA
HETATM    6  C9  UNL     1      26.355   1.680  53.394  1.00  0.00     0.131 A 
HETATM    7  N4  UNL     1      27.346   2.599  53.853  1.00  0.00    -0.266 NA
HETATM    8  C10 UNL     1      28.528   2.141  54.004  1.00  0.00     0.219 A 
HETATM    9  C11 UNL     1      29.734   1.355  54.077  1.00  0.00     0.013 A 
HETATM   10  C12 UNL     1      30.038   0.100  53.837  1.00  0.00    -0.002 A 
HETATM   11  C13 UNL     1      29.614  -1.255  53.414  1.00  0.00    -0.017 A 
HETATM   12  C14 UNL     1      28.283  -1.222  53.127  1.00  0.00     0.042 A 
HETATM   13  C15 UNL     1      27.289  -2.244  52.661  1.00  0.00    -0.013 A 
HETATM   14  C16 UNL     1      26.077  -1.738  52.507  1.00  0.00     0.049 A 
ENDROOT
BRANCH   2  15
HETATM   15  C3  UNL     1      22.687   1.847  52.467  1.00  0.00     0.067 C 
BRANCH  15  16
HETATM   16  C4  UNL     1      21.678   0.744  52.507  1.00  0.00     0.001 C 
BRANCH  16  17
HETATM   17  C5  UNL     1      21.090   0.567  51.140  1.00  0.00     0.084 C 
HETATM   18  I1  UNL     1      18.969   0.650  51.306  1.00  0.00    -0.090 I 
ENDBRANCH  16  17
BRANCH  16  19
HETATM   19  C6  UNL     1      20.701   0.859  53.625  1.00  0.00     0.016 C 
BRANCH  19  20
HETATM   20  C7  UNL     1      20.967   0.023  54.826  1.00  0.00     0.085 C 
HETATM   21 BR1  UNL     1      21.808  -1.665  54.451  1.00  0.00    -0.096 Br
ENDBRANCH  19  20
ENDBRANCH  16  19
ENDBRANCH  15  16
ENDBRANCH   2  15
BRANCH   1  22
HETATM   22  N1  UNL     1      24.872   3.512  53.434  1.00  0.00    -0.395 N 
HETATM   23  H1  UNL     1      24.749   4.526  53.614  1.00  0.00     0.156 HD
HETATM   24  H2  UNL     1      25.171   4.532  53.425  1.00  0.00     0.156 HD
ENDBRANCH   1  22
TORSDOF 6
ENDMDL
MODEL 2
REMARK VINA RESULT:      -7.0      3.465      7.305
REMARK  6 active torsions:
REMARK  status: ('A' for Active; 'I' for Inactive)
REMARK    1  A    between atoms: N1_1  and  C1_2 
REMARK    2  A    between atoms: C2_3  and  C3_4 
REMARK    3  A    between atoms: C3_4  and  C4_5 
REMARK    4  A    between atoms: C4_5  and  C5_6 
REMARK    5  A    between atoms: C4_5  and  C6_8 
REMARK    6  A    between atoms: C6_8  and  C7_9 
ROOT
HETATM    1  C1  UNL     1      23.274  -0.605  54.117  1.00  0.00     0.091 A 
HETATM    2  C2  UNL     1      24.252   0.086  53.444  1.00  0.00     0.067 A 
HETATM    3  N2  UNL     1      23.766   0.704  52.353  1.00  0.00    -0.232 NA
HETATM    4  C8  UNL     1      22.486   0.661  51.960  1.00  0.00     0.151 A 
HETATM    5  N3  UNL     1      21.550  -0.023  52.637  1.00  0.00    -0.215 NA
HETATM    6  C9  UNL     1      21.960  -0.668  53.737  1.00  0.00     0.131 A 
HETATM    7  N4  UNL     1      21.056  -1.438  54.529  1.00  0.00    -0.266 NA
HETATM    8  C10 UNL     1      19.850  -1.511  54.117  1.00  0.00     0.219 A 
HETATM    9  C11 UNL     1      18.593  -1.411  53.418  1.00  0.00     0.013 A 
HETATM   10  C12 UNL     1      18.185  -0.805  52.327  1.00  0.00    -0.002 A 
HETATM   11  C13 UNL     1      18.485   0.059  51.161  1.00  0.00    -0.017 A 
HETATM   12  C14 UNL     1      19.801   0.407  51.209  1.00  0.00     0.042 A 
HETATM   13  C15 UNL     1      20.692   1.245  50.340  1.00  0.00    -0.013 A 
HETATM   14  C16 UNL     1      21.935   1.296  50.789  1.00  0.00     0.049 A 
ENDROOT
BRANCH   2  15
HETATM   15  C3  UNL     1      25.655   0.159  53.824  1.00  0.00     0.067 C 
BRANCH  15  16
HETATM   16  C4  UNL     1      26.575  -0.116  52.678  1.00  0.00     0.001 C 
BRANCH  16  17
HETATM   17  C5  UNL     1      27.297  -1.405  52.927  1.00  0.00     0.084 C 
HETATM   18  I1  UNL     1      29.283  -0.952  53.548  1.00  0.00    -0.090 I 
ENDBRANCH  16  17
BRANCH  16  19
HETATM   19  C6  UNL     1      27.427   1.043  52.296  1.00  0.00     0.016 C 
BRANCH  19  20
HETATM   20  C7  UNL     1      26.760   2.373  52.258  1.00  0.00     0.085 C 
HETATM   21 BR1  UNL     1      26.294   2.979  50.494  1.00  0.00    -0.096 Br
ENDBRANCH  19  20
ENDBRANCH  16  19
ENDBRANCH  15  16
ENDBRANCH   2  15
BRANCH   1  22
HETATM   22  N1  UNL     1      23.613  -1.315  55.289  1.00  0.00    -0.395 N 
HETATM   23  H1  UNL     1      23.829  -1.826  56.165  1.00  0.00     0.156 HD
HETATM   24  H2  UNL     1      23.408  -1.668  56.270  1.00  0.00     0.156 HD
ENDBRANCH   1  22
TORSDOF 6
ENDMDL
MODEL 3
REMARK VINA RESULT:      -6.9      4.561      6.087
REMARK  6 active torsions:
REMARK  status: ('A' for Active; 'I' for Inactive)
REMARK    1  A    between atoms: N1_1  and  C1_2 
REMARK    2  A    between atoms: C2_3  and  C3_4 
REMARK    3  A    between atoms: C3_4  and  C4_5 
REMARK    4  A    between atoms: C4_5  and  C5_6 
REMARK    5  A    between atoms: C4_5  and  C6_8 
REMARK    6  A    between atoms: C6_8  and  C7_9 
ROOT
HETATM    1  C1  UNL     1      23.638   4.953  51.760  1.00  0.00     0.091 A 
HETATM    2  C2  UNL     1      23.982   3.626  51.853  1.00  0.00     0.067 A 
HETATM    3  N2  UNL     1      25.040   3.329  51.077  1.00  0.00    -0.232 NA
HETATM    4  C8  UNL     1      25.690   4.210  50.305  1.00  0.00     0.151 A 
HETATM    5  N3  UNL     1      25.333   5.502  50.234  1.00  0.00    -0.215 NA
HETATM    6  C9  UNL     1      24.283   5.874  50.979  1.00  0.00     0.131 A 
HETATM    7  N4  UNL     1      23.805   7.219  50.972  1.00  0.00    -0.266 NA
HETATM    8  C10 UNL     1      24.403   8.038  50.196  1.00  0.00     0.219 A 
HETATM    9  C11 UNL     1      25.252   8.711  49.246  1.00  0.00     0.013 A 
HETATM   10  C12 UNL     1      26.266   8.353  48.493  1.00  0.00    -0.002 A 
HETATM   11  C13 UNL     1      27.202   7.301  48.032  1.00  0.00    -0.017 A 
HETATM   12  C14 UNL     1      26.895   6.138  48.672  1.00  0.00     0.042 A 
HETATM   13  C15 UNL     1      27.459   4.749  48.643  1.00  0.00    -0.013 A 
HETATM   14  C16 UNL     1      26.815   3.924  49.451  1.00  0.00     0.049 A 
ENDROOT
BRANCH   2  15
HETATM   15  C3  UNL     1      23.305   2.629  52.669  1.00  0.00     0.067 C 
BRANCH  15  16
HETATM   16  C4  UNL     1      23.346   1.265  52.058  1.00  0.00     0.001 C 
BRANCH  16  17
HETATM   17  C5  UNL     1      22.007   0.953  51.463  1.00  0.00     0.084 C 
HETATM   18  I1  UNL     1      20.707   0.325  53.028  1.00  0.00    -0.090 I 
ENDBRANCH  16  17
BRANCH  16  19
HETATM   19  C6  UNL     1      23.920   0.221  52.951  1.00  0.00     0.016 C 
BRANCH  19  20
HETATM   20  C7  UNL     1      25.285   0.479  53.482  1.00  0.00     0.085 C 
HETATM   21 BR1  UNL     1      26.706   0.107  52.240  1.00  0.00    -0.096 Br
ENDBRANCH  19  20
ENDBRANCH  16  19
ENDBRANCH  15  16
ENDBRANCH   2  15
BRANCH   1  22
HETATM   22  N1  UNL     1      22.545   5.437  52.510  1.00  0.00    -0.395 N 
HETATM   23  H1  UNL     1      21.722   5.762  53.050  1.00  0.00     0.156 HD
HETATM   24  H2  UNL     1      21.550   5.370  52.878  1.00  0.00     0.156 HD
ENDBRANCH   1  22
TORSDOF 6
ENDMDL
MODEL 4
REMARK VINA RESULT:      -6.7      4.335      6.710
REMARK  6 active torsions:
REMARK  status: ('A' for Active; 'I' for Inactive)
REMARK    1  A    between atoms: N1_1  and  C1_2 
REMARK    2  A    between atoms: C2_3  and  C3_4 
REMARK    3  A    between atoms: C3_4  and  C4_5 
REMARK    4  A    between atoms: C4_5  and  C5_6 
REMARK    5  A    between atoms: C4_5  and  C6_8 
REMARK    6  A    between atoms: C6_8  and  C7_9 
ROOT
HETATM    1  C1  UNL     1      22.435   2.455  50.534  1.00  0.00     0.091 A 
HETATM    2  C2  UNL     1      23.759   2.792  50.389  1.00  0.00     0.067 A 
HETATM    3  N2  UNL     1      24.547   2.091  51.224  1.00  0.00    -0.232 NA
HETATM    4  C8  UNL     1      24.107   1.172  52.094  1.00  0.00     0.151 A 
HETATM    5  N3  UNL     1      22.807   0.862  52.215  1.00  0.00    -0.215 NA
HETATM    6  C9  UNL     1      21.959   1.522  51.415  1.00  0.00     0.131 A 
HETATM    7  N4  UNL     1      20.552   1.285  51.466  1.00  0.00    -0.266 NA
HETATM    8  C10 UNL     1      20.142   0.442  52.333  1.00  0.00     0.219 A 
HETATM    9  C11 UNL     1      19.984  -0.532  53.383  1.00  0.00     0.013 A 
HETATM   10  C12 UNL     1      20.803  -1.167  54.189  1.00  0.00    -0.002 A 
HETATM   11  C13 UNL     1      22.185  -1.425  54.656  1.00  0.00    -0.017 A 
HETATM   12  C14 UNL     1      23.039  -0.655  53.926  1.00  0.00     0.042 A 
HETATM   13  C15 UNL     1      24.527  -0.467  53.916  1.00  0.00    -0.013 A 
HETATM   14  C16 UNL     1      24.920   0.415  53.013  1.00  0.00     0.049 A 
ENDROOT
BRANCH   2  15
HETATM   15  C3  UNL     1      24.286   3.786  49.466  1.00  0.00     0.067 C 
BRANCH  15  16
HETATM   16  C4  UNL     1      25.103   4.831  50.154  1.00  0.00     0.001 C 
BRANCH  16  17
HETATM   17  C5  UNL     1      24.190   5.763  50.890  1.00  0.00     0.084 C 
HETATM   18  I1  UNL     1      24.462   7.725  50.110  1.00  0.00    -0.090 I 
ENDBRANCH  16  17
BRANCH  16  19
HETATM   19  C6  UNL     1      26.121   5.475  49.279  1.00  0.00     0.016 C 
BRANCH  19  20
HETATM   20  C7  UNL     1      27.261   4.621  48.848  1.00  0.00     0.085 C 
HETATM   21 BR1  UNL     1      28.806   5.598  48.251  1.00  0.00    -0.096 Br
ENDBRANCH  19  20
ENDBRANCH  16  19
ENDBRANCH  15  16
ENDBRANCH   2  15
BRANCH   1  22
HETATM   22  N1  UNL     1      21.468   3.098  49.733  1.00  0.00    -0.395 N 
HETATM   23  H1  UNL     1      20.784   3.583  49.121  1.00  0.00     0.156 HD
HETATM   24  H2  UNL     1      21.174   3.684  48.896  1.00  0.00     0.156 HD
ENDBRANCH   1  22
TORSDOF 6
ENDMDL
MODEL 5
REMARK VINA RESULT:      -6.7      4.179      5.775
REMARK  6 active torsions:
REMARK  status: ('A' for Active; 'I' for Inactive)
REMARK    1  A    between atoms: N1_1  and  C1_2 
REMARK    2  A    between atoms: C2_3  and  C3_4 
REMARK    3  A    between atoms: C3_4  and  C4_5 
REMARK    4  A    between atoms: C4_5  and  C5_6 
REMARK    5  A    between atoms: C4_5  and  C6_8 
REMARK    6  A    between atoms: C6_8  and  C7_9 
ROOT
HETATM    1  C1  UNL     1      25.661   2.319  51.628  1.00  0.00     0.091 A 
HETATM    2  C2  UNL     1      24.776   2.716  50.654  1.00  0.00     0.067 A 
HETATM    3  N2  UNL     1      23.563   2.160  50.825  1.00  0.00    -0.232 NA
HETATM    4  C8  UNL     1      23.243   1.322  51.819  1.00  0.00     0.151 A 
HETATM    5  N3  UNL     1      24.127   0.951  52.759  1.00  0.00    -0.215 NA
HETATM    6  C9  UNL     1      25.360   1.464  52.654  1.00  0.00     0.131 A 
HETATM    7  N4  UNL     1      26.386   1.130  53.588  1.00  0.00    -0.266 NA
HETATM    8  C10 UNL     1      26.081   0.293  54.503  1.00  0.00     0.219 A 
HETATM    9  C11 UNL     1      25.456  -0.651  55.394  1.00  0.00     0.013 A 
HETATM   10  C12 UNL     1      24.258  -1.180  55.492  1.00  0.00    -0.002 A 
HETATM   11  C13 UNL     1      22.871  -1.297  54.983  1.00  0.00    -0.017 A 
HETATM   12  C14 UNL     1      22.740  -0.486  53.896  1.00  0.00     0.042 A 
HETATM   13  C15 UNL     1      21.612  -0.167  52.962  1.00  0.00    -0.013 A 
HETATM   14  C16 UNL     1      21.960   0.697  52.023  1.00  0.00     0.049 A 
ENDROOT
BRANCH   2  15
HETATM   15  C3  UNL     1      25.076   3.617  49.551  1.00  0.00     0.067 C 
BRANCH  15  16
HETATM   16  C4  UNL     1      25.255   5.032  49.999  1.00  0.00     0.001 C 
BRANCH  16  17
HETATM   17  C5  UNL     1      23.912   5.688  50.101  1.00  0.00     0.084 C 
HETATM   18  I1  UNL     1      23.214   6.097  48.132  1.00  0.00    -0.090 I 
ENDBRANCH  16  17
BRANCH  16  19
HETATM   19  C6  UNL     1      26.288   5.781  49.233  1.00  0.00     0.016 C 
BRANCH  19  20
HETATM   20  C7  UNL     1      27.406   4.979  48.666  1.00  0.00     0.085 C 
HETATM   21 BR1  UNL     1      28.948   6.010  48.158  1.00  0.00    -0.096 Br
ENDBRANCH  19  20
ENDBRANCH  16  19
ENDBRANCH  15  16
ENDBRANCH   2  15
BRANCH   1  22
HETATM   22  N1  UNL     1      26.983   2.809  51.600  1.00  0.00    -0.395 N 
HETATM   23  H1  UNL     1      27.948   3.190  51.610  1.00  0.00     0.156 HD
HETATM   24  H2  UNL     1      27.778   3.402  51.982  1.00  0.00     0.156 HD
ENDBRANCH   1  22
TORSDOF 6
ENDMDL
MODEL 6
REMARK VINA RESULT:      -6.6      4.296      5.168
REMARK  6 active torsions:
REMARK  status: ('A' for Active; 'I' for Inactive)
REMARK    1  A    between atoms: N1_1  and  C1_2 
REMARK    2  A    between atoms: C2_3  and  C3_4 
REMARK    3  A    between atoms: C3_4  and  C4_5 
REMARK    4  A    between atoms: C4_5  and  C5_6 
REMARK    5  A    between atoms: C4_5  and  C6_8 
REMARK    6  A    between atoms: C6_8  and  C7_9 
ROOT
HETATM    1  C1  UNL     1      25.806   3.197  50.523  1.00  0.00     0.091 A 
HETATM    2  C2  UNL     1      24.541   3.221  49.987  1.00  0.00     0.067 A 
HETATM    3  N2  UNL     1      23.706   2.393  50.640  1.00  0.00    -0.232 NA
HETATM    4  C8  UNL     1      24.052   1.634  51.688  1.00  0.00     0.151 A 
HETATM    5  N3  UNL     1      25.296   1.630  52.192  1.00  0.00    -0.215 NA
HETATM    6  C9  UNL     1      26.187   2.431  51.592  1.00  0.00     0.131 A 
HETATM    7  N4  UNL     1      27.542   2.498  52.034  1.00  0.00    -0.266 NA
HETATM    8  C10 UNL     1      27.870   1.734  53.002  1.00  0.00     0.219 A 
HETATM    9  C11 UNL     1      27.940   0.780  54.080  1.00  0.00     0.013 A 
HETATM   10  C12 UNL     1      27.083  -0.027  54.660  1.00  0.00    -0.002 A 
HETATM   11  C13 UNL     1      25.706  -0.567  54.758  1.00  0.00    -0.017 A 
HETATM   12  C14 UNL     1      24.937   0.036  53.809  1.00  0.00     0.042 A 
HETATM   13  C15 UNL     1      23.496  -0.074  53.408  1.00  0.00    -0.013 A 
HETATM   14  C16 UNL     1      23.189   0.725  52.400  1.00  0.00     0.049 A 
ENDROOT
BRANCH   2  15
HETATM   15  C3  UNL     1      24.118   4.021  48.847  1.00  0.00     0.067 C 
BRANCH  15  16
HETATM   16  C4  UNL     1      23.715   5.407  49.238  1.00  0.00     0.001 C 
BRANCH  16  17
HETATM   17  C5  UNL     1      22.281   5.397  49.674  1.00  0.00     0.084 C 
HETATM   18  I1  UNL     1      21.713   7.391  50.158  1.00  0.00    -0.090 I 
ENDBRANCH  16  17
BRANCH  16  19
HETATM   19  C6  UNL     1      24.083   6.447  48.239  1.00  0.00     0.016 C 
BRANCH  19  20
HETATM   20  C7  UNL     1      25.467   6.986  48.323  1.00  0.00     0.085 C 
HETATM   21 BR1  UNL     1      25.956   7.659  50.057  1.00  0.00    -0.096 Br
ENDBRANCH  19  20
ENDBRANCH  16  19
ENDBRANCH  15  16
ENDBRANCH   2  15
BRANCH   1  22
HETATM   22  N1  UNL     1      26.811   4.009  49.957  1.00  0.00    -0.395 N 
HETATM   23  H1  UNL     1      27.526   4.617  49.514  1.00  0.00     0.156 HD
HETATM   24  H2  UNL     1      27.169   4.701  49.233  1.00  0.00     0.156 HD
ENDBRANCH   1  22
TORSDOF 6
ENDMDL
MODEL 7
REMARK VINA RESULT:      -6.6      3.603      4.420
REMARK  6 active torsions:
REMARK  status: ('A' for Active; 'I' for Inactive)
REMARK    1  A    between atoms: N1_1  and  C1_2 
REMARK    2  A    between atoms: C2_3  and  C3_4 
REMARK    3  A    between atoms: C3_4  and  C4_5 
REMARK    4  A    between atoms: C4_5  and  C5_6 
REMARK    5  A    between atoms: C4_5  and  C6_8 
REMARK    6  A    between atoms: C6_8  and  C7_9 
ROOT
HETATM    1  C1  UNL     1      25.768   3.333  50.579  1.00  0.00     0.091 A 
HETATM    2  C2  UNL     1      24.537   3.426  49.975  1.00  0.00     0.067 A 
HETATM    3  N2  UNL     1      23.646   2.581  50.523  1.00  0.00    -0.232 NA
HETATM    4  C8  UNL     1      23.912   1.745  51.536  1.00  0.00     0.151 A 
HETATM    5  N3  UNL     1      25.125   1.674  52.108  1.00  0.00    -0.215 NA
HETATM    6  C9  UNL     1      26.067   2.488  51.614  1.00  0.00     0.131 A 
HETATM    7  N4  UNL     1      27.396   2.489  52.135  1.00  0.00    -0.266 NA
HETATM    8  C10 UNL     1      27.649   1.655  53.067  1.00  0.00     0.219 A 
HETATM    9  C11 UNL     1      27.634   0.631  54.081  1.00  0.00     0.013 A 
HETATM   10  C12 UNL     1      26.725  -0.189  54.557  1.00  0.00    -0.002 A 
HETATM   11  C13 UNL     1      25.333  -0.696  54.541  1.00  0.00    -0.017 A 
HETATM   12  C14 UNL     1      24.635  -0.011  53.592  1.00  0.00     0.042 A 
HETATM   13  C15 UNL     1      23.217  -0.055  53.104  1.00  0.00    -0.013 A 
HETATM   14  C16 UNL     1      22.989   0.816  52.135  1.00  0.00     0.049 A 
ENDROOT
BRANCH   2  15
HETATM   15  C3  UNL     1      24.200   4.310  48.869  1.00  0.00     0.067 C 
BRANCH  15  16
HETATM   16  C4  UNL     1      22.907   5.030  49.085  1.00  0.00     0.001 C 
BRANCH  16  17
HETATM   17  C5  UNL     1      22.382   5.502  47.764  1.00  0.00     0.084 C 
HETATM   18  I1  UNL     1      21.606   3.822  46.711  1.00  0.00    -0.090 I 
ENDBRANCH  16  17
BRANCH  16  19
HETATM   19  C6  UNL     1      22.958   6.052  50.166  1.00  0.00     0.016 C 
BRANCH  19  20
HETATM   20  C7  UNL     1      22.061   5.829  51.332  1.00  0.00     0.085 C 
HETATM   21 BR1  UNL     1      20.653   4.557  51.021  1.00  0.00    -0.096 Br
ENDBRANCH  19  20
ENDBRANCH  16  19
ENDBRANCH  15  16
ENDBRANCH   2  15
BRANCH   1  22
HETATM   22  N1  UNL     1      26.823   4.152  50.125  1.00  0.00    -0.395 N 
HETATM   23  H1  UNL     1      27.602   4.768  49.826  1.00  0.00     0.156 HD
HETATM   24  H2  UNL     1      27.576   4.888  50.271  1.00  0.00     0.156 HD
ENDBRANCH   1  22
TORSDOF 6
ENDMDL
MODEL 8
REMARK VINA RESULT:      -6.4      4.849      6.304
REMARK  6 active torsions:
REMARK  status: ('A' for Active; 'I' for Inactive)
REMARK    1  A    between atoms: N1_1  and  C1_2 
REMARK    2  A    between atoms: C2_3  and  C3_4 
REMARK    3  A    between atoms: C3_4  and  C4_5 
REMARK    4  A    between atoms: C4_5  and  C5_6 
REMARK    5  A    between atoms: C4_5  and  C6_8 
REMARK    6  A    between atoms: C6_8  and  C7_9 
ROOT
HETATM    1  C1  UNL     1      23.696   4.458  50.913  1.00  0.00     0.091 A 
HETATM    2  C2  UNL     1      24.146   3.188  50.640  1.00  0.00     0.067 A 
HETATM    3  N2  UNL     1      25.314   3.204  49.974  1.00  0.00    -0.232 NA
HETATM    4  C8  UNL     1      25.971   4.316  49.615  1.00  0.00     0.151 A 
HETATM    5  N3  UNL     1      25.509   5.545  49.895  1.00  0.00    -0.215 NA
HETATM    6  C9  UNL     1      24.346   5.609  50.558  1.00  0.00     0.131 A 
HETATM    7  N4  UNL     1      23.752   6.862  50.897  1.00  0.00    -0.266 NA
HETATM    8  C10 UNL     1      24.363   7.912  50.508  1.00  0.00     0.219 A 
HETATM    9  C11 UNL     1      25.258   8.893  49.947  1.00  0.00     0.013 A 
HETATM   10  C12 UNL     1      26.385   8.843  49.275  1.00  0.00    -0.002 A 
HETATM   11  C13 UNL     1      27.463   8.038  48.653  1.00  0.00    -0.017 A 
HETATM   12  C14 UNL     1      27.186   6.719  48.851  1.00  0.00     0.042 A 
HETATM   13  C15 UNL     1      27.874   5.440  48.476  1.00  0.00    -0.013 A 
HETATM   14  C16 UNL     1      27.213   4.371  48.887  1.00  0.00     0.049 A 
ENDROOT
BRANCH   2  15
HETATM   15  C3  UNL     1      23.468   1.952  51.001  1.00  0.00     0.067 C 
BRANCH  15  16
HETATM   16  C4  UNL     1      23.762   1.525  52.403  1.00  0.00     0.001 C 
BRANCH  16  17
HETATM   17  C5  UNL     1      24.993   0.671  52.408  1.00  0.00     0.084 C 
HETATM   18  I1  UNL     1      26.493   1.662  53.548  1.00  0.00    -0.090 I 
ENDBRANCH  16  17
BRANCH  16  19
HETATM   19  C6  UNL     1      22.584   0.971  53.125  1.00  0.00     0.016 C 
BRANCH  19  20
HETATM   20  C7  UNL     1      22.460  -0.511  53.154  1.00  0.00     0.085 C 
HETATM   21 BR1  UNL     1      22.356  -1.267  54.919  1.00  0.00    -0.096 Br
ENDBRANCH  19  20
ENDBRANCH  16  19
ENDBRANCH  15  16
ENDBRANCH   2  15
BRANCH   1  22
HETATM   22  N1  UNL     1      22.480   4.624  51.609  1.00  0.00    -0.395 N 
HETATM   23  H1  UNL     1      21.571   4.719  52.099  1.00  0.00     0.156 HD
HETATM   24  H2  UNL     1      21.466   4.377  51.807  1.00  0.00     0.156 HD
ENDBRANCH   1  22
TORSDOF 6
ENDMDL
MODEL 9
REMARK VINA RESULT:      -6.2      7.924     10.173
REMARK  6 active torsions:
REMARK  status: ('A' for Active; 'I' for Inactive)
REMARK    1  A    between atoms: N1_1  and  C1_2 
REMARK    2  A    between atoms: C2_3  and  C3_4 
REMARK    3  A    between atoms: C3_4  and  C4_5 
REMARK    4  A    between atoms: C4_5  and  C5_6 
REMARK    5  A    between atoms: C4_5  and  C6_8 
REMARK    6  A    between atoms: C6_8  and  C7_9 
ROOT
HETATM    1  C1  UNL     1      28.472   7.324  48.323  1.00  0.00     0.091 A 
HETATM    2  C2  UNL     1      29.234   6.217  48.041  1.00  0.00     0.067 A 
HETATM    3  N2  UNL     1      28.602   5.077  48.373  1.00  0.00    -0.232 NA
HETATM    4  C8  UNL     1      27.377   5.015  48.913  1.00  0.00     0.151 A 
HETATM    5  N3  UNL     1      26.653   6.114  49.179  1.00  0.00    -0.215 NA
HETATM    6  C9  UNL     1      27.219   7.290  48.875  1.00  0.00     0.131 A 
HETATM    7  N4  UNL     1      26.549   8.525  49.126  1.00  0.00    -0.266 NA
HETATM    8  C10 UNL     1      25.403   8.454  49.685  1.00  0.00     0.219 A 
HETATM    9  C11 UNL     1      24.164   8.065  50.308  1.00  0.00     0.013 A 
HETATM   10  C12 UNL     1      23.609   6.919  50.633  1.00  0.00    -0.002 A 
HETATM   11  C13 UNL     1      23.672   5.439  50.673  1.00  0.00    -0.017 A 
HETATM   12  C14 UNL     1      24.851   5.041  50.119  1.00  0.00     0.042 A 
HETATM   13  C15 UNL     1      25.490   3.708  49.869  1.00  0.00    -0.013 A 
HETATM   14  C16 UNL     1      26.677   3.815  49.296  1.00  0.00     0.049 A 
ENDROOT
BRANCH   2  15
HETATM   15  C3  UNL     1      30.570   6.231  47.463  1.00  0.00     0.067 C 
BRANCH  15  16
HETATM   16  C4  UNL     1      31.440   5.142  48.004  1.00  0.00     0.001 C 
BRANCH  16  17
HETATM   17  C5  UNL     1      32.361   5.717  49.036  1.00  0.00     0.084 C 
HETATM   18  I1  UNL     1      33.404   7.356  48.165  1.00  0.00    -0.090 I 
ENDBRANCH  16  17
BRANCH  16  19
HETATM   19  C6  UNL     1      32.082   4.304  46.954  1.00  0.00     0.016 C 
BRANCH  19  20
HETATM   20  C7  UNL     1      33.015   3.247  47.428  1.00  0.00     0.085 C 
HETATM   21 BR1  UNL     1      34.828   3.454  46.820  1.00  0.00    -0.096 Br
ENDBRANCH  19  20
ENDBRANCH  16  19
ENDBRANCH  15  16
ENDBRANCH   2  15
BRANCH   1  22
HETATM   22  N1  UNL     1      28.985   8.607  48.037  1.00  0.00    -0.395 N 
HETATM   23  H1  UNL     1      29.339   9.564  47.851  1.00  0.00     0.156 HD
HETATM   24  H2  UNL     1      29.017   9.662  48.168  1.00  0.00     0.156 HD
ENDBRANCH   1  22
TORSDOF 6
ENDMDL
