MODEL 1
REMARK VINA RESULT:      -7.3      0.000      0.000
REMARK  7 active torsions:
REMARK  status: ('A' for Active; 'I' for Inactive)
REMARK    1  A    between atoms: C2_2  and  N1_3 
REMARK    2  A    between atoms: N1_3  and  C3_4 
REMARK    3  A    between atoms: N1_3  and  C5_7 
REMARK    4  A    between atoms: C3_4  and  C4_5 
REMARK    5  A    between atoms: C8_10  and  C9_11 
REMARK       I    between atoms: C9_11  and  N2_13 
REMARK    6  A    between atoms: N2_13  and  C10_14 
REMARK    7  A    between atoms: C13_17  and  O2_18 
ROOT
HETATM    1  C5  UNL     1      26.012   0.113  53.890  1.00  0.00     0.030 A 
HETATM    2  C6  UNL     1      25.045   0.505  52.990  1.00  0.00     0.030 A 
HETATM    3  C7  UNL     1      23.717   0.147  53.070  1.00  0.00     0.019 A 
HETATM    4  C8  UNL     1      23.276  -0.656  54.098  1.00  0.00     0.032 A 
HETATM    5  C17 UNL     1      24.202  -1.077  55.026  1.00  0.00     0.019 A 
HETATM    6  C18 UNL     1      25.521  -0.685  54.896  1.00  0.00     0.030 A 
ENDROOT
BRANCH   4   7
HETATM    7  C9  UNL     1      21.864  -0.993  54.123  1.00  0.00     0.256 C 
HETATM    8  O1  UNL     1      21.419  -1.727  55.026  1.00  0.00    -0.267 OA
HETATM    9  N2  UNL     1      20.971  -0.502  53.135  1.00  0.00    -0.323 N 
HETATM   10  H12 UNL     1      21.256   0.106  52.363  1.00  0.00     0.169 HD
BRANCH   9  11
HETATM   11  C10 UNL     1      19.587  -0.648  52.896  1.00  0.00     0.035 A 
HETATM   12  C11 UNL     1      18.642  -1.388  53.547  1.00  0.00     0.032 A 
HETATM   13  C12 UNL     1      17.324  -1.407  53.172  1.00  0.00     0.039 A 
HETATM   14  C13 UNL     1      16.925  -0.641  52.080  1.00  0.00     0.068 A 
HETATM   15  C15 UNL     1      17.854   0.111  51.405  1.00  0.00     0.039 A 
HETATM   16  C16 UNL     1      19.196   0.122  51.798  1.00  0.00     0.032 A 
BRANCH  14  17
HETATM   17  O2  UNL     1      15.605  -0.627  51.661  1.00  0.00    -0.356 OA
HETATM   18  C14 UNL     1      14.807  -1.812  51.731  1.00  0.00     0.210 C 
ENDBRANCH  14  17
ENDBRANCH   9  11
ENDBRANCH   4   7
BRANCH   1  19
HETATM   19  N1  UNL     1      27.391   0.482  53.828  1.00  0.00    -0.380 N 
BRANCH  19  20
HETATM   20  C2  UNL     1      27.914   1.502  52.952  1.00  0.00     0.118 C 
HETATM   21  C1  UNL     1      28.713   2.582  53.604  1.00  0.00     0.026 C 
ENDBRANCH  19  20
BRANCH  19  22
HETATM   22  C3  UNL     1      28.389  -0.136  54.644  1.00  0.00     0.138 C 
BRANCH  22  23
HETATM   23  C4  UNL     1      29.504  -0.840  53.968  1.00  0.00     0.134 C 
HETATM   24 CL1  UNL     1      28.930  -2.302  53.089  1.00  0.00    -0.129 Cl
ENDBRANCH  22  23
ENDBRANCH  19  22
ENDBRANCH   1  19
TORSDOF 7
ENDMDL
MODEL 2
REMARK VINA RESULT:      -7.1      1.550      2.186
REMARK  7 active torsions:
REMARK  status: ('A' for Active; 'I' for Inactive)
REMARK    1  A    between atoms: C2_2  and  N1_3 
REMARK    2  A    between atoms: N1_3  and  C3_4 
REMARK    3  A    between atoms: N1_3  and  C5_7 
REMARK    4  A    between atoms: C3_4  and  C4_5 
REMARK    5  A    between atoms: C8_10  and  C9_11 
REMARK       I    between atoms: C9_11  and  N2_13 
REMARK    6  A    between atoms: N2_13  and  C10_14 
REMARK    7  A    between atoms: C13_17  and  O2_18 
ROOT
HETATM    1  C5  UNL     1      25.242   1.117  53.179  1.00  0.00     0.030 A 
HETATM    2  C6  UNL     1      24.393   0.055  53.404  1.00  0.00     0.030 A 
HETATM    3  C7  UNL     1      23.023   0.110  53.268  1.00  0.00     0.019 A 
HETATM    4  C8  UNL     1      22.411   1.282  52.883  1.00  0.00     0.032 A 
HETATM    5  C17 UNL     1      23.213   2.376  52.645  1.00  0.00     0.019 A 
HETATM    6  C18 UNL     1      24.582   2.262  52.797  1.00  0.00     0.030 A 
ENDROOT
BRANCH   4   7
HETATM    7  C9  UNL     1      20.965   1.269  52.756  1.00  0.00     0.256 C 
HETATM    8  O1  UNL     1      20.312   2.294  53.030  1.00  0.00    -0.267 OA
HETATM    9  N2  UNL     1      20.273   0.108  52.324  1.00  0.00    -0.323 N 
HETATM   10  H12 UNL     1      20.735  -0.771  52.079  1.00  0.00     0.169 HD
BRANCH   9  11
HETATM   11  C10 UNL     1      18.914  -0.206  52.108  1.00  0.00     0.035 A 
HETATM   12  C11 UNL     1      18.054   0.181  51.120  1.00  0.00     0.032 A 
HETATM   13  C12 UNL     1      16.748  -0.231  51.067  1.00  0.00     0.039 A 
HETATM   14  C13 UNL     1      16.271  -1.082  52.060  1.00  0.00     0.068 A 
HETATM   15  C15 UNL     1      17.112  -1.488  53.067  1.00  0.00     0.039 A 
HETATM   16  C16 UNL     1      18.443  -1.059  53.109  1.00  0.00     0.032 A 
BRANCH  14  17
HETATM   17  O2  UNL     1      14.959  -1.527  52.051  1.00  0.00    -0.356 OA
HETATM   18  C14 UNL     1      14.594  -2.699  51.315  1.00  0.00     0.210 C 
ENDBRANCH  14  17
ENDBRANCH   9  11
ENDBRANCH   4   7
BRANCH   1  19
HETATM   19  N1  UNL     1      26.664   1.076  53.307  1.00  0.00    -0.380 N 
BRANCH  19  20
HETATM   20  C2  UNL     1      27.551   2.079  52.771  1.00  0.00     0.118 C 
HETATM   21  C1  UNL     1      28.679   2.501  53.654  1.00  0.00     0.026 C 
ENDBRANCH  19  20
BRANCH  19  22
HETATM   22  C3  UNL     1      27.343   0.023  53.993  1.00  0.00     0.138 C 
BRANCH  22  23
HETATM   23  C4  UNL     1      28.052  -0.995  53.181  1.00  0.00     0.134 C 
HETATM   24 CL1  UNL     1      29.817  -1.012  53.535  1.00  0.00    -0.129 Cl
ENDBRANCH  22  23
ENDBRANCH  19  22
ENDBRANCH   1  19
TORSDOF 7
ENDMDL
MODEL 3
REMARK VINA RESULT:      -7.0      6.525      9.058
REMARK  7 active torsions:
REMARK  status: ('A' for Active; 'I' for Inactive)
REMARK    1  A    between atoms: C2_2  and  N1_3 
REMARK    2  A    between atoms: N1_3  and  C3_4 
REMARK    3  A    between atoms: N1_3  and  C5_7 
REMARK    4  A    between atoms: C3_4  and  C4_5 
REMARK    5  A    between atoms: C8_10  and  C9_11 
REMARK       I    between atoms: C9_11  and  N2_13 
REMARK    6  A    between atoms: N2_13  and  C10_14 
REMARK    7  A    between atoms: C13_17  and  O2_18 
ROOT
HETATM    1  C5  UNL     1      27.911   7.251  47.938  1.00  0.00     0.030 A 
HETATM    2  C6  UNL     1      26.625   7.225  48.433  1.00  0.00     0.030 A 
HETATM    3  C7  UNL     1      26.027   6.117  48.992  1.00  0.00     0.019 A 
HETATM    4  C8  UNL     1      26.718   4.929  49.084  1.00  0.00     0.032 A 
HETATM    5  C17 UNL     1      28.008   4.899  48.604  1.00  0.00     0.019 A 
HETATM    6  C18 UNL     1      28.557   6.042  48.055  1.00  0.00     0.030 A 
ENDROOT
BRANCH   4   7
HETATM    7  C9  UNL     1      26.029   3.802  49.686  1.00  0.00     0.256 C 
HETATM    8  O1  UNL     1      24.976   3.377  49.174  1.00  0.00    -0.267 OA
HETATM    9  N2  UNL     1      26.531   3.168  50.852  1.00  0.00    -0.323 N 
HETATM   10  H12 UNL     1      27.388   3.455  51.331  1.00  0.00     0.169 HD
BRANCH   9  11
HETATM   11  C10 UNL     1      26.101   2.084  51.648  1.00  0.00     0.035 A 
HETATM   12  C11 UNL     1      26.667   0.861  51.871  1.00  0.00     0.032 A 
HETATM   13  C12 UNL     1      26.101  -0.082  52.690  1.00  0.00     0.039 A 
HETATM   14  C13 UNL     1      24.898   0.214  53.324  1.00  0.00     0.068 A 
HETATM   15  C15 UNL     1      24.305   1.435  53.117  1.00  0.00     0.039 A 
HETATM   16  C16 UNL     1      24.893   2.388  52.279  1.00  0.00     0.032 A 
BRANCH  14  17
HETATM   17  O2  UNL     1      24.286  -0.705  54.161  1.00  0.00    -0.356 OA
HETATM   18  C14 UNL     1      22.859  -0.772  54.246  1.00  0.00     0.210 C 
ENDBRANCH  14  17
ENDBRANCH   9  11
ENDBRANCH   4   7
BRANCH   1  19
HETATM   19  N1  UNL     1      28.550   8.392  47.364  1.00  0.00    -0.380 N 
BRANCH  19  20
HETATM   20  C2  UNL     1      29.074   8.431  46.020  1.00  0.00     0.118 C 
HETATM   21  C1  UNL     1      28.067   8.565  44.925  1.00  0.00     0.026 C 
ENDBRANCH  19  20
BRANCH  19  22
HETATM   22  C3  UNL     1      28.724   9.616  48.080  1.00  0.00     0.138 C 
BRANCH  22  23
HETATM   23  C4  UNL     1      29.479   9.576  49.355  1.00  0.00     0.134 C 
HETATM   24 CL1  UNL     1      30.990   8.610  49.202  1.00  0.00    -0.129 Cl
ENDBRANCH  22  23
ENDBRANCH  19  22
ENDBRANCH   1  19
TORSDOF 7
ENDMDL
MODEL 4
REMARK VINA RESULT:      -6.8      1.853      2.370
REMARK  7 active torsions:
REMARK  status: ('A' for Active; 'I' for Inactive)
REMARK    1  A    between atoms: C2_2  and  N1_3 
REMARK    2  A    between atoms: N1_3  and  C3_4 
REMARK    3  A    between atoms: N1_3  and  C5_7 
REMARK    4  A    between atoms: C3_4  and  C4_5 
REMARK    5  A    between atoms: C8_10  and  C9_11 
REMARK       I    between atoms: C9_11  and  N2_13 
REMARK    6  A    between atoms: N2_13  and  C10_14 
REMARK    7  A    between atoms: C13_17  and  O2_18 
ROOT
HETATM    1  C5  UNL     1      25.280   0.089  53.441  1.00  0.00     0.030 A 
HETATM    2  C6  UNL     1      24.269  -0.645  54.022  1.00  0.00     0.030 A 
HETATM    3  C7  UNL     1      22.926  -0.407  53.832  1.00  0.00     0.019 A 
HETATM    4  C8  UNL     1      22.513   0.624  53.017  1.00  0.00     0.032 A 
HETATM    5  C17 UNL     1      23.483   1.391  52.411  1.00  0.00     0.019 A 
HETATM    6  C18 UNL     1      24.816   1.104  52.638  1.00  0.00     0.030 A 
ENDROOT
BRANCH   4   7
HETATM    7  C9  UNL     1      21.083   0.818  52.859  1.00  0.00     0.256 C 
HETATM    8  O1  UNL     1      20.586   1.942  53.061  1.00  0.00    -0.267 OA
HETATM    9  N2  UNL     1      20.231  -0.251  52.477  1.00  0.00    -0.323 N 
HETATM   10  H12 UNL     1      20.561  -1.202  52.291  1.00  0.00     0.169 HD
BRANCH   9  11
HETATM   11  C10 UNL     1      18.843  -0.373  52.249  1.00  0.00     0.035 A 
HETATM   12  C11 UNL     1      17.850  -0.883  53.036  1.00  0.00     0.032 A 
HETATM   13  C12 UNL     1      16.537  -0.918  52.646  1.00  0.00     0.039 A 
HETATM   14  C13 UNL     1      16.193  -0.414  51.394  1.00  0.00     0.068 A 
HETATM   15  C15 UNL     1      17.171   0.104  50.581  1.00  0.00     0.039 A 
HETATM   16  C16 UNL     1      18.507   0.134  50.991  1.00  0.00     0.032 A 
BRANCH  14  17
HETATM   17  O2  UNL     1      14.880  -0.427  50.954  1.00  0.00    -0.356 OA
HETATM   18  C14 UNL     1      14.492  -1.249  49.849  1.00  0.00     0.210 C 
ENDBRANCH  14  17
ENDBRANCH   9  11
ENDBRANCH   4   7
BRANCH   1  19
HETATM   19  N1  UNL     1      26.678  -0.149  53.620  1.00  0.00    -0.380 N 
BRANCH  19  20
HETATM   20  C2  UNL     1      27.506  -0.840  52.662  1.00  0.00     0.118 C 
HETATM   21  C1  UNL     1      27.315  -2.318  52.573  1.00  0.00     0.026 C 
ENDBRANCH  19  20
BRANCH  19  22
HETATM   22  C3  UNL     1      27.388   0.286  54.780  1.00  0.00     0.138 C 
BRANCH  22  23
HETATM   23  C4  UNL     1      28.712   0.926  54.588  1.00  0.00     0.134 C 
HETATM   24 CL1  UNL     1      28.579   2.458  53.653  1.00  0.00    -0.129 Cl
ENDBRANCH  22  23
ENDBRANCH  19  22
ENDBRANCH   1  19
TORSDOF 7
ENDMDL
MODEL 5
REMARK VINA RESULT:      -6.7      7.665     12.589
REMARK  7 active torsions:
REMARK  status: ('A' for Active; 'I' for Inactive)
REMARK    1  A    between atoms: C2_2  and  N1_3 
REMARK    2  A    between atoms: N1_3  and  C3_4 
REMARK    3  A    between atoms: N1_3  and  C5_7 
REMARK    4  A    between atoms: C3_4  and  C4_5 
REMARK    5  A    between atoms: C8_10  and  C9_11 
REMARK       I    between atoms: C9_11  and  N2_13 
REMARK    6  A    between atoms: N2_13  and  C10_14 
REMARK    7  A    between atoms: C13_17  and  O2_18 
ROOT
HETATM    1  C5  UNL     1      24.558   4.151  49.645  1.00  0.00     0.030 A 
HETATM    2  C6  UNL     1      25.821   3.599  49.653  1.00  0.00     0.030 A 
HETATM    3  C7  UNL     1      26.957   4.248  49.222  1.00  0.00     0.019 A 
HETATM    4  C8  UNL     1      26.880   5.536  48.741  1.00  0.00     0.032 A 
HETATM    5  C17 UNL     1      25.641   6.135  48.710  1.00  0.00     0.019 A 
HETATM    6  C18 UNL     1      24.535   5.436  49.156  1.00  0.00     0.030 A 
ENDROOT
BRANCH   4   7
HETATM    7  C9  UNL     1      28.115   6.161  48.306  1.00  0.00     0.256 C 
HETATM    8  O1  UNL     1      28.087   7.034  47.418  1.00  0.00    -0.267 OA
HETATM    9  N2  UNL     1      29.364   5.798  48.873  1.00  0.00    -0.323 N 
HETATM   10  H12 UNL     1      29.473   5.093  49.606  1.00  0.00     0.169 HD
BRANCH   9  11
HETATM   11  C10 UNL     1      30.698   6.212  48.667  1.00  0.00     0.035 A 
HETATM   12  C11 UNL     1      31.365   7.324  49.097  1.00  0.00     0.032 A 
HETATM   13  C12 UNL     1      32.681   7.564  48.799  1.00  0.00     0.039 A 
HETATM   14  C13 UNL     1      33.374   6.639  48.023  1.00  0.00     0.068 A 
HETATM   15  C15 UNL     1      32.729   5.512  47.575  1.00  0.00     0.039 A 
HETATM   16  C16 UNL     1      31.386   5.279  47.887  1.00  0.00     0.032 A 
BRANCH  14  17
HETATM   17  O2  UNL     1      34.705   6.836  47.693  1.00  0.00    -0.356 OA
HETATM   18  C14 UNL     1      35.457   7.887  48.307  1.00  0.00     0.210 C 
ENDBRANCH  14  17
ENDBRANCH   9  11
ENDBRANCH   4   7
BRANCH   1  19
HETATM   19  N1  UNL     1      23.371   3.496  50.095  1.00  0.00    -0.380 N 
BRANCH  19  20
HETATM   20  C2  UNL     1      22.940   2.199  49.631  1.00  0.00     0.118 C 
HETATM   21  C1  UNL     1      21.849   1.549  50.416  1.00  0.00     0.026 C 
ENDBRANCH  19  20
BRANCH  19  22
HETATM   22  C3  UNL     1      22.493   4.076  51.062  1.00  0.00     0.138 C 
BRANCH  22  23
HETATM   23  C4  UNL     1      23.047   4.405  52.397  1.00  0.00     0.134 C 
HETATM   24 CL1  UNL     1      24.189   3.138  52.973  1.00  0.00    -0.129 Cl
ENDBRANCH  22  23
ENDBRANCH  19  22
ENDBRANCH   1  19
TORSDOF 7
ENDMDL
MODEL 6
REMARK VINA RESULT:      -6.7      6.831      9.525
REMARK  7 active torsions:
REMARK  status: ('A' for Active; 'I' for Inactive)
REMARK    1  A    between atoms: C2_2  and  N1_3 
REMARK    2  A    between atoms: N1_3  and  C3_4 
REMARK    3  A    between atoms: N1_3  and  C5_7 
REMARK    4  A    between atoms: C3_4  and  C4_5 
REMARK    5  A    between atoms: C8_10  and  C9_11 
REMARK       I    between atoms: C9_11  and  N2_13 
REMARK    6  A    between atoms: N2_13  and  C10_14 
REMARK    7  A    between atoms: C13_17  and  O2_18 
ROOT
HETATM    1  C5  UNL     1      27.700   7.220  47.739  1.00  0.00     0.030 A 
HETATM    2  C6  UNL     1      26.402   7.140  48.198  1.00  0.00     0.030 A 
HETATM    3  C7  UNL     1      25.871   6.045  48.842  1.00  0.00     0.019 A 
HETATM    4  C8  UNL     1      26.645   4.928  49.066  1.00  0.00     0.032 A 
HETATM    5  C17 UNL     1      27.949   4.954  48.626  1.00  0.00     0.019 A 
HETATM    6  C18 UNL     1      28.429   6.081  47.986  1.00  0.00     0.030 A 
ENDROOT
BRANCH   4   7
HETATM    7  C9  UNL     1      26.022   3.811  49.752  1.00  0.00     0.256 C 
HETATM    8  O1  UNL     1      25.019   3.263  49.257  1.00  0.00    -0.267 OA
HETATM    9  N2  UNL     1      26.533   3.325  50.983  1.00  0.00    -0.323 N 
HETATM   10  H12 UNL     1      27.352   3.717  51.454  1.00  0.00     0.169 HD
BRANCH   9  11
HETATM   11  C10 UNL     1      26.159   2.287  51.865  1.00  0.00     0.035 A 
HETATM   12  C11 UNL     1      25.030   2.114  52.612  1.00  0.00     0.032 A 
HETATM   13  C12 UNL     1      24.834   1.026  53.423  1.00  0.00     0.039 A 
HETATM   14  C13 UNL     1      25.826   0.052  53.491  1.00  0.00     0.068 A 
HETATM   15  C15 UNL     1      26.973   0.199  52.751  1.00  0.00     0.039 A 
HETATM   16  C16 UNL     1      27.160   1.314  51.928  1.00  0.00     0.032 A 
BRANCH  14  17
HETATM   17  O2  UNL     1      25.676  -1.066  54.295  1.00  0.00    -0.356 OA
HETATM   18  C14 UNL     1      24.664  -1.104  55.307  1.00  0.00     0.210 C 
ENDBRANCH  14  17
ENDBRANCH   9  11
ENDBRANCH   4   7
BRANCH   1  19
HETATM   19  N1  UNL     1      28.270   8.350  47.076  1.00  0.00    -0.380 N 
BRANCH  19  20
HETATM   20  C2  UNL     1      28.494   9.627  47.710  1.00  0.00     0.118 C 
HETATM   21  C1  UNL     1      29.598   9.678  48.714  1.00  0.00     0.026 C 
ENDBRANCH  19  20
BRANCH  19  22
HETATM   22  C3  UNL     1      28.679   8.313  45.708  1.00  0.00     0.138 C 
BRANCH  22  23
HETATM   23  C4  UNL     1      27.849   9.033  44.713  1.00  0.00     0.134 C 
HETATM   24 CL1  UNL     1      26.167   8.397  44.666  1.00  0.00    -0.129 Cl
ENDBRANCH  22  23
ENDBRANCH  19  22
ENDBRANCH   1  19
TORSDOF 7
ENDMDL
MODEL 7
REMARK VINA RESULT:      -6.7      5.916      7.953
REMARK  7 active torsions:
REMARK  status: ('A' for Active; 'I' for Inactive)
REMARK    1  A    between atoms: C2_2  and  N1_3 
REMARK    2  A    between atoms: N1_3  and  C3_4 
REMARK    3  A    between atoms: N1_3  and  C5_7 
REMARK    4  A    between atoms: C3_4  and  C4_5 
REMARK    5  A    between atoms: C8_10  and  C9_11 
REMARK       I    between atoms: C9_11  and  N2_13 
REMARK    6  A    between atoms: N2_13  and  C10_14 
REMARK    7  A    between atoms: C13_17  and  O2_18 
ROOT
HETATM    1  C5  UNL     1      27.473   6.610  48.223  1.00  0.00     0.030 A 
HETATM    2  C6  UNL     1      26.118   6.758  48.431  1.00  0.00     0.030 A 
HETATM    3  C7  UNL     1      25.292   5.769  48.917  1.00  0.00     0.019 A 
HETATM    4  C8  UNL     1      25.805   4.530  49.232  1.00  0.00     0.032 A 
HETATM    5  C17 UNL     1      27.153   4.327  49.043  1.00  0.00     0.019 A 
HETATM    6  C18 UNL     1      27.934   5.357  48.552  1.00  0.00     0.030 A 
ENDROOT
BRANCH   4   7
HETATM    7  C9  UNL     1      24.879   3.535  49.742  1.00  0.00     0.256 C 
HETATM    8  O1  UNL     1      23.892   3.201  49.059  1.00  0.00    -0.267 OA
HETATM    9  N2  UNL     1      25.073   2.929  51.011  1.00  0.00    -0.323 N 
HETATM   10  H12 UNL     1      25.858   3.146  51.631  1.00  0.00     0.169 HD
BRANCH   9  11
HETATM   11  C10 UNL     1      24.370   1.960  51.759  1.00  0.00     0.035 A 
HETATM   12  C11 UNL     1      23.030   1.770  51.938  1.00  0.00     0.032 A 
HETATM   13  C12 UNL     1      22.518   0.758  52.709  1.00  0.00     0.039 A 
HETATM   14  C13 UNL     1      23.399  -0.117  53.339  1.00  0.00     0.068 A 
HETATM   15  C15 UNL     1      24.752   0.050  53.178  1.00  0.00     0.039 A 
HETATM   16  C16 UNL     1      25.260   1.087  52.389  1.00  0.00     0.032 A 
BRANCH  14  17
HETATM   17  O2  UNL     1      22.932  -1.155  54.129  1.00  0.00    -0.356 OA
HETATM   18  C14 UNL     1      21.538  -1.267  54.432  1.00  0.00     0.210 C 
ENDBRANCH  14  17
ENDBRANCH   9  11
ENDBRANCH   4   7
BRANCH   1  19
HETATM   19  N1  UNL     1      28.345   7.626  47.727  1.00  0.00    -0.380 N 
BRANCH  19  20
HETATM   20  C2  UNL     1      28.283   9.009  48.133  1.00  0.00     0.118 C 
HETATM   21  C1  UNL     1      28.456   9.275  49.593  1.00  0.00     0.026 C 
ENDBRANCH  19  20
BRANCH  19  22
HETATM   22  C3  UNL     1      29.374   7.357  46.774  1.00  0.00     0.138 C 
BRANCH  22  23
HETATM   23  C4  UNL     1      30.782   7.390  47.238  1.00  0.00     0.134 C 
HETATM   24 CL1  UNL     1      31.401   5.739  47.595  1.00  0.00    -0.129 Cl
ENDBRANCH  22  23
ENDBRANCH  19  22
ENDBRANCH   1  19
TORSDOF 7
ENDMDL
MODEL 8
REMARK VINA RESULT:      -6.5      6.217      8.667
REMARK  7 active torsions:
REMARK  status: ('A' for Active; 'I' for Inactive)
REMARK    1  A    between atoms: C2_2  and  N1_3 
REMARK    2  A    between atoms: N1_3  and  C3_4 
REMARK    3  A    between atoms: N1_3  and  C5_7 
REMARK    4  A    between atoms: C3_4  and  C4_5 
REMARK    5  A    between atoms: C8_10  and  C9_11 
REMARK       I    between atoms: C9_11  and  N2_13 
REMARK    6  A    between atoms: N2_13  and  C10_14 
REMARK    7  A    between atoms: C13_17  and  O2_18 
ROOT
HETATM    1  C5  UNL     1      26.206   0.899  52.620  1.00  0.00     0.030 A 
HETATM    2  C6  UNL     1      26.828   1.499  51.546  1.00  0.00     0.030 A 
HETATM    3  C7  UNL     1      26.375   2.641  50.923  1.00  0.00     0.019 A 
HETATM    4  C8  UNL     1      25.228   3.263  51.363  1.00  0.00     0.032 A 
HETATM    5  C17 UNL     1      24.566   2.705  52.433  1.00  0.00     0.019 A 
HETATM    6  C18 UNL     1      25.067   1.558  53.020  1.00  0.00     0.030 A 
ENDROOT
BRANCH   4   7
HETATM    7  C9  UNL     1      24.810   4.464  50.662  1.00  0.00     0.256 C 
HETATM    8  O1  UNL     1      23.613   4.609  50.346  1.00  0.00    -0.267 OA
HETATM    9  N2  UNL     1      25.738   5.483  50.326  1.00  0.00    -0.323 N 
HETATM   10  H12 UNL     1      26.735   5.440  50.551  1.00  0.00     0.169 HD
BRANCH   9  11
HETATM   11  C10 UNL     1      25.640   6.728  49.667  1.00  0.00     0.035 A 
HETATM   12  C11 UNL     1      25.050   7.898  50.051  1.00  0.00     0.032 A 
HETATM   13  C12 UNL     1      25.055   9.025  49.272  1.00  0.00     0.039 A 
HETATM   14  C13 UNL     1      25.689   8.982  48.033  1.00  0.00     0.068 A 
HETATM   15  C15 UNL     1      26.291   7.819  47.619  1.00  0.00     0.039 A 
HETATM   16  C16 UNL     1      26.277   6.676  48.425  1.00  0.00     0.032 A 
BRANCH  14  17
HETATM   17  O2  UNL     1      25.723  10.094  47.208  1.00  0.00    -0.356 OA
HETATM   18  C14 UNL     1      25.823  11.409  47.764  1.00  0.00     0.210 C 
ENDBRANCH  14  17
ENDBRANCH   9  11
ENDBRANCH   4   7
BRANCH   1  19
HETATM   19  N1  UNL     1      26.665  -0.280  53.284  1.00  0.00    -0.380 N 
BRANCH  19  20
HETATM   20  C2  UNL     1      26.475  -1.617  52.774  1.00  0.00     0.118 C 
HETATM   21  C1  UNL     1      27.696  -2.473  52.702  1.00  0.00     0.026 C 
ENDBRANCH  19  20
BRANCH  19  22
HETATM   22  C3  UNL     1      27.366  -0.238  54.527  1.00  0.00     0.138 C 
BRANCH  22  23
HETATM   23  C4  UNL     1      28.554   0.644  54.628  1.00  0.00     0.134 C 
HETATM   24 CL1  UNL     1      29.884   0.092  53.549  1.00  0.00    -0.129 Cl
ENDBRANCH  22  23
ENDBRANCH  19  22
ENDBRANCH   1  19
TORSDOF 7
ENDMDL
MODEL 9
REMARK VINA RESULT:      -6.4      5.505      9.579
REMARK  7 active torsions:
REMARK  status: ('A' for Active; 'I' for Inactive)
REMARK    1  A    between atoms: C2_2  and  N1_3 
REMARK    2  A    between atoms: N1_3  and  C3_4 
REMARK    3  A    between atoms: N1_3  and  C5_7 
REMARK    4  A    between atoms: C3_4  and  C4_5 
REMARK    5  A    between atoms: C8_10  and  C9_11 
REMARK       I    between atoms: C9_11  and  N2_13 
REMARK    6  A    between atoms: N2_13  and  C10_14 
REMARK    7  A    between atoms: C13_17  and  O2_18 
ROOT
HETATM    1  C5  UNL     1      20.913   1.382  52.122  1.00  0.00     0.030 A 
HETATM    2  C6  UNL     1      22.088   1.163  51.435  1.00  0.00     0.030 A 
HETATM    3  C7  UNL     1      22.982   2.152  51.089  1.00  0.00     0.019 A 
HETATM    4  C8  UNL     1      22.732   3.463  51.426  1.00  0.00     0.032 A 
HETATM    5  C17 UNL     1      21.570   3.738  52.113  1.00  0.00     0.019 A 
HETATM    6  C18 UNL     1      20.710   2.706  52.435  1.00  0.00     0.030 A 
ENDROOT
BRANCH   4   7
HETATM    7  C9  UNL     1      23.717   4.454  51.032  1.00  0.00     0.256 C 
HETATM    8  O1  UNL     1      23.833   5.505  51.690  1.00  0.00    -0.267 OA
HETATM    9  N2  UNL     1      24.558   4.251  49.907  1.00  0.00    -0.323 N 
HETATM   10  H12 UNL     1      24.527   3.415  49.318  1.00  0.00     0.169 HD
BRANCH   9  11
HETATM   11  C10 UNL     1      25.581   5.004  49.292  1.00  0.00     0.035 A 
HETATM   12  C11 UNL     1      25.574   6.273  48.785  1.00  0.00     0.032 A 
HETATM   13  C12 UNL     1      26.678   6.853  48.218  1.00  0.00     0.039 A 
HETATM   14  C13 UNL     1      27.862   6.122  48.151  1.00  0.00     0.068 A 
HETATM   15  C15 UNL     1      27.898   4.844  48.651  1.00  0.00     0.039 A 
HETATM   16  C16 UNL     1      26.764   4.264  49.228  1.00  0.00     0.032 A 
BRANCH  14  17
HETATM   17  O2  UNL     1      29.005   6.663  47.586  1.00  0.00    -0.356 OA
HETATM   18  C14 UNL     1      30.283   6.061  47.813  1.00  0.00     0.210 C 
ENDBRANCH  14  17
ENDBRANCH   9  11
ENDBRANCH   4   7
BRANCH   1  19
HETATM   19  N1  UNL     1      19.978   0.369  52.497  1.00  0.00    -0.380 N 
BRANCH  19  20
HETATM   20  C2  UNL     1      18.955  -0.148  51.620  1.00  0.00     0.118 C 
HETATM   21  C1  UNL     1      18.639   0.681  50.418  1.00  0.00     0.026 C 
ENDBRANCH  19  20
BRANCH  19  22
HETATM   22  C3  UNL     1      19.977  -0.234  53.792  1.00  0.00     0.138 C 
BRANCH  22  23
HETATM   23  C4  UNL     1      20.883  -1.383  54.027  1.00  0.00     0.134 C 
HETATM   24 CL1  UNL     1      22.505  -0.845  54.590  1.00  0.00    -0.129 Cl
ENDBRANCH  22  23
ENDBRANCH  19  22
ENDBRANCH   1  19
TORSDOF 7
ENDMDL
