MODEL 1
REMARK VINA RESULT:      -8.1      0.000      0.000
REMARK  4 active torsions:
REMARK  status: ('A' for Active; 'I' for Inactive)
REMARK    1  A    between atoms: N2_4  and  C3_5 
REMARK    2  A    between atoms: C3_5  and  S1_6 
REMARK    3  A    between atoms: S1_6  and  C4_7 
REMARK    4  A    between atoms: C8_13  and  C9_14 
ROOT
HETATM    1  C1  UNL     1      22.267  -0.518  52.841  1.00  0.00     0.067 C 
HETATM    2  C2  UNL     1      23.345   0.493  52.690  1.00  0.00     0.031 C 
HETATM    3  N1  UNL     1      24.483   0.574  53.240  1.00  0.00    -0.185 NA
HETATM    4  N2  UNL     1      25.258   1.656  52.875  1.00  0.00    -0.286 N 
HETATM    5  C8  UNL     1      24.780   1.796  51.513  1.00  0.00     0.143 C 
HETATM    6  C15 UNL     1      23.281   1.700  51.777  1.00  0.00     0.088 C 
ENDROOT
BRANCH   4   7
HETATM    7  C3  UNL     1      26.191   2.241  53.851  1.00  0.00     0.226 C 
BRANCH   7   8
HETATM    8  S1  UNL     1      27.877   1.957  53.333  1.00  0.00    -0.088 SA
BRANCH   8   9
HETATM    9  C4  UNL     1      28.377   0.255  53.503  1.00  0.00     0.103 C 
HETATM   10  C5  UNL     1      29.656  -0.088  53.385  1.00  0.00     0.010 C 
HETATM   11  C6  UNL     1      29.867  -1.297  53.893  1.00  0.00     0.017 C 
HETATM   12  C7  UNL     1      29.055  -2.305  53.178  1.00  0.00     0.229 C 
HETATM   13  O1  UNL     1      27.691  -2.051  53.203  1.00  0.00    -0.276 OA
HETATM   14  N3  UNL     1      27.501  -0.840  53.765  1.00  0.00    -0.259 N 
HETATM   15  H9  UNL     1      26.716  -0.593  54.429  1.00  0.00     0.195 HD
ENDBRANCH   8   9
ENDBRANCH   7   8
ENDBRANCH   4   7
BRANCH   5  16
HETATM   16  C9  UNL     1      25.189   2.980  50.799  1.00  0.00    -0.033 A 
HETATM   17  C10 UNL     1      26.350   2.919  50.028  1.00  0.00     0.011 A 
HETATM   18  C11 UNL     1      26.829   3.990  49.321  1.00  0.00     0.019 A 
HETATM   19  C12 UNL     1      26.168   5.194  49.345  1.00  0.00     0.011 A 
HETATM   20 BR1  UNL     1      26.808   6.702  48.373  1.00  0.00    -0.051 Br
HETATM   21  C13 UNL     1      25.012   5.309  50.096  1.00  0.00     0.019 A 
HETATM   22  C14 UNL     1      24.567   4.203  50.792  1.00  0.00     0.011 A 
ENDBRANCH   5  16
TORSDOF 4
ENDMDL
MODEL 2
REMARK VINA RESULT:      -7.5      3.662      6.489
REMARK  4 active torsions:
REMARK  status: ('A' for Active; 'I' for Inactive)
REMARK    1  A    between atoms: N2_4  and  C3_5 
REMARK    2  A    between atoms: C3_5  and  S1_6 
REMARK    3  A    between atoms: S1_6  and  C4_7 
REMARK    4  A    between atoms: C8_13  and  C9_14 
ROOT
HETATM    1  C1  UNL     1      27.599   0.278  54.099  1.00  0.00     0.067 C 
HETATM    2  C2  UNL     1      26.241   0.755  53.732  1.00  0.00     0.031 C 
HETATM    3  N1  UNL     1      25.871   1.803  53.124  1.00  0.00    -0.185 NA
HETATM    4  N2  UNL     1      24.511   1.950  52.940  1.00  0.00    -0.286 N 
HETATM    5  C8  UNL     1      24.170   0.544  52.834  1.00  0.00     0.143 C 
HETATM    6  C15 UNL     1      24.952   0.020  54.034  1.00  0.00     0.088 C 
ENDROOT
BRANCH   4   7
HETATM    7  C3  UNL     1      23.925   3.299  52.915  1.00  0.00     0.226 C 
BRANCH   7   8
HETATM    8  S1  UNL     1      23.627   3.807  51.228  1.00  0.00    -0.088 SA
BRANCH   8   9
HETATM    9  C4  UNL     1      25.108   4.339  50.393  1.00  0.00     0.103 C 
HETATM   10  C5  UNL     1      25.044   5.226  49.404  1.00  0.00     0.010 C 
HETATM   11  C6  UNL     1      26.240   5.754  49.169  1.00  0.00     0.017 C 
HETATM   12  C7  UNL     1      27.200   4.700  48.776  1.00  0.00     0.229 C 
HETATM   13  O1  UNL     1      27.345   3.690  49.717  1.00  0.00    -0.276 OA
HETATM   14  N3  UNL     1      26.429   3.889  50.688  1.00  0.00    -0.259 N 
HETATM   15  H9  UNL     1      26.594   3.735  51.721  1.00  0.00     0.195 HD
ENDBRANCH   8   9
ENDBRANCH   7   8
ENDBRANCH   4   7
BRANCH   5  16
HETATM   16  C9  UNL     1      22.766   0.215  52.842  1.00  0.00    -0.033 A 
HETATM   17  C10 UNL     1      22.245  -0.433  53.962  1.00  0.00     0.011 A 
HETATM   18  C11 UNL     1      20.929  -0.797  54.065  1.00  0.00     0.019 A 
HETATM   19  C12 UNL     1      20.050  -0.533  53.042  1.00  0.00     0.011 A 
HETATM   20 BR1  UNL     1      18.213  -1.027  53.152  1.00  0.00    -0.051 Br
HETATM   21  C13 UNL     1      20.515   0.106  51.907  1.00  0.00     0.019 A 
HETATM   22  C14 UNL     1      21.850   0.455  51.848  1.00  0.00     0.011 A 
ENDBRANCH   5  16
TORSDOF 4
ENDMDL
MODEL 3
REMARK VINA RESULT:      -7.4      3.368      5.794
REMARK  4 active torsions:
REMARK  status: ('A' for Active; 'I' for Inactive)
REMARK    1  A    between atoms: N2_4  and  C3_5 
REMARK    2  A    between atoms: C3_5  and  S1_6 
REMARK    3  A    between atoms: S1_6  and  C4_7 
REMARK    4  A    between atoms: C8_13  and  C9_14 
ROOT
HETATM    1  C1  UNL     1      19.837  -0.030  52.956  1.00  0.00     0.067 C 
HETATM    2  C2  UNL     1      21.214   0.399  52.595  1.00  0.00     0.031 C 
HETATM    3  N1  UNL     1      21.618   1.395  51.926  1.00  0.00    -0.185 NA
HETATM    4  N2  UNL     1      22.985   1.507  51.771  1.00  0.00    -0.286 N 
HETATM    5  C8  UNL     1      23.380   0.905  53.030  1.00  0.00     0.143 C 
HETATM    6  C15 UNL     1      22.481  -0.326  52.997  1.00  0.00     0.088 C 
ENDROOT
BRANCH   4   7
HETATM    7  C3  UNL     1      23.528   2.115  50.547  1.00  0.00     0.226 C 
BRANCH   7   8
HETATM    8  S1  UNL     1      23.721   3.877  50.771  1.00  0.00    -0.088 SA
BRANCH   8   9
HETATM    9  C4  UNL     1      25.224   4.507  50.052  1.00  0.00     0.103 C 
HETATM   10  C5  UNL     1      25.179   5.438  49.102  1.00  0.00     0.010 C 
HETATM   11  C6  UNL     1      26.363   6.024  48.963  1.00  0.00     0.017 C 
HETATM   12  C7  UNL     1      27.389   5.029  48.583  1.00  0.00     0.229 C 
HETATM   13  O1  UNL     1      27.522   3.982  49.484  1.00  0.00    -0.276 OA
HETATM   14  N3  UNL     1      26.543   4.097  50.405  1.00  0.00    -0.259 N 
HETATM   15  H9  UNL     1      26.654   3.902  51.438  1.00  0.00     0.195 HD
ENDBRANCH   8   9
ENDBRANCH   7   8
ENDBRANCH   4   7
BRANCH   5  16
HETATM   16  C9  UNL     1      24.783   0.620  53.202  1.00  0.00    -0.033 A 
HETATM   17  C10 UNL     1      25.616   1.644  53.652  1.00  0.00     0.011 A 
HETATM   18  C11 UNL     1      26.963   1.479  53.839  1.00  0.00     0.019 A 
HETATM   19  C12 UNL     1      27.559   0.267  53.582  1.00  0.00     0.011 A 
HETATM   20 BR1  UNL     1      29.430   0.005  53.830  1.00  0.00    -0.051 Br
HETATM   21  C13 UNL     1      26.779  -0.782  53.131  1.00  0.00     0.019 A 
HETATM   22  C14 UNL     1      25.426  -0.568  52.958  1.00  0.00     0.011 A 
ENDBRANCH   5  16
TORSDOF 4
ENDMDL
MODEL 4
REMARK VINA RESULT:      -7.3      3.309      5.094
REMARK  4 active torsions:
REMARK  status: ('A' for Active; 'I' for Inactive)
REMARK    1  A    between atoms: N2_4  and  C3_5 
REMARK    2  A    between atoms: C3_5  and  S1_6 
REMARK    3  A    between atoms: S1_6  and  C4_7 
REMARK    4  A    between atoms: C8_13  and  C9_14 
ROOT
HETATM    1  C1  UNL     1      27.490   4.933  48.689  1.00  0.00     0.067 C 
HETATM    2  C2  UNL     1      26.684   4.006  49.525  1.00  0.00     0.031 C 
HETATM    3  N1  UNL     1      27.023   3.266  50.496  1.00  0.00    -0.185 NA
HETATM    4  N2  UNL     1      26.015   2.514  51.065  1.00  0.00    -0.286 N 
HETATM    5  C8  UNL     1      24.918   3.433  50.826  1.00  0.00     0.143 C 
HETATM    6  C15 UNL     1      25.199   3.761  49.364  1.00  0.00     0.088 C 
ENDROOT
BRANCH   4   7
HETATM    7  C3  UNL     1      26.332   1.201  51.649  1.00  0.00     0.226 C 
BRANCH   7   8
HETATM    8  S1  UNL     1      26.060   1.234  53.415  1.00  0.00    -0.088 SA
BRANCH   8   9
HETATM    9  C4  UNL     1      24.838   0.054  53.950  1.00  0.00     0.103 C 
HETATM   10  C5  UNL     1      23.587   0.130  53.505  1.00  0.00     0.010 C 
HETATM   11  C6  UNL     1      22.943  -1.013  53.717  1.00  0.00     0.017 C 
HETATM   12  C7  UNL     1      22.897  -1.318  55.163  1.00  0.00     0.229 C 
HETATM   13  O1  UNL     1      24.146  -1.401  55.762  1.00  0.00    -0.276 OA
HETATM   14  N3  UNL     1      25.071  -1.023  54.855  1.00  0.00    -0.259 N 
HETATM   15  H9  UNL     1      26.021  -1.470  54.732  1.00  0.00     0.195 HD
ENDBRANCH   8   9
ENDBRANCH   7   8
ENDBRANCH   4   7
BRANCH   5  16
HETATM   16  C9  UNL     1      23.589   2.939  51.086  1.00  0.00    -0.033 A 
HETATM   17  C10 UNL     1      23.082   1.935  50.260  1.00  0.00     0.011 A 
HETATM   18  C11 UNL     1      21.829   1.406  50.418  1.00  0.00     0.019 A 
HETATM   19  C12 UNL     1      21.003   1.855  51.420  1.00  0.00     0.011 A 
HETATM   20 BR1  UNL     1      19.253   1.140  51.664  1.00  0.00    -0.051 Br
HETATM   21  C13 UNL     1      21.455   2.851  52.266  1.00  0.00     0.019 A 
HETATM   22  C14 UNL     1      22.726   3.354  52.070  1.00  0.00     0.011 A 
ENDBRANCH   5  16
TORSDOF 4
ENDMDL
MODEL 5
REMARK VINA RESULT:      -7.1      3.706      6.124
REMARK  4 active torsions:
REMARK  status: ('A' for Active; 'I' for Inactive)
REMARK    1  A    between atoms: N2_4  and  C3_5 
REMARK    2  A    between atoms: C3_5  and  S1_6 
REMARK    3  A    between atoms: S1_6  and  C4_7 
REMARK    4  A    between atoms: C8_13  and  C9_14 
ROOT
HETATM    1  C1  UNL     1      20.512   2.648  52.307  1.00  0.00     0.067 C 
HETATM    2  C2  UNL     1      21.959   2.562  51.978  1.00  0.00     0.031 C 
HETATM    3  N1  UNL     1      22.672   3.267  51.206  1.00  0.00    -0.185 NA
HETATM    4  N2  UNL     1      24.005   2.918  51.124  1.00  0.00    -0.286 N 
HETATM    5  C8  UNL     1      24.166   2.418  52.475  1.00  0.00     0.143 C 
HETATM    6  C15 UNL     1      22.920   1.542  52.554  1.00  0.00     0.088 C 
ENDROOT
BRANCH   4   7
HETATM    7  C3  UNL     1      24.734   3.133  49.864  1.00  0.00     0.226 C 
BRANCH   7   8
HETATM    8  S1  UNL     1      24.692   4.863  49.420  1.00  0.00    -0.088 SA
BRANCH   8   9
HETATM    9  C4  UNL     1      26.304   5.523  49.046  1.00  0.00     0.103 C 
HETATM   10  C5  UNL     1      26.428   6.676  48.396  1.00  0.00     0.010 C 
HETATM   11  C6  UNL     1      27.655   7.165  48.536  1.00  0.00     0.017 C 
HETATM   12  C7  UNL     1      28.652   6.221  47.987  1.00  0.00     0.229 C 
HETATM   13  O1  UNL     1      28.613   4.960  48.566  1.00  0.00    -0.276 OA
HETATM   14  N3  UNL     1      27.546   4.910  49.390  1.00  0.00    -0.259 N 
HETATM   15  H9  UNL     1      27.526   4.431  50.332  1.00  0.00     0.195 HD
ENDBRANCH   8   9
ENDBRANCH   7   8
ENDBRANCH   4   7
BRANCH   5  16
HETATM   16  C9  UNL     1      25.400   1.733  52.772  1.00  0.00    -0.033 A 
HETATM   17  C10 UNL     1      25.507   0.385  52.432  1.00  0.00     0.011 A 
HETATM   18  C11 UNL     1      26.631  -0.357  52.679  1.00  0.00     0.019 A 
HETATM   19  C12 UNL     1      27.723   0.214  53.288  1.00  0.00     0.011 A 
HETATM   20 BR1  UNL     1      29.302  -0.791  53.648  1.00  0.00    -0.051 Br
HETATM   21  C13 UNL     1      27.669   1.548  53.649  1.00  0.00     0.019 A 
HETATM   22  C14 UNL     1      26.515   2.256  53.379  1.00  0.00     0.011 A 
ENDBRANCH   5  16
TORSDOF 4
ENDMDL
MODEL 6
REMARK VINA RESULT:      -7.1      4.184      7.343
REMARK  4 active torsions:
REMARK  status: ('A' for Active; 'I' for Inactive)
REMARK    1  A    between atoms: N2_4  and  C3_5 
REMARK    2  A    between atoms: C3_5  and  S1_6 
REMARK    3  A    between atoms: S1_6  and  C4_7 
REMARK    4  A    between atoms: C8_13  and  C9_14 
ROOT
HETATM    1  C1  UNL     1      28.060   0.064  54.477  1.00  0.00     0.067 C 
HETATM    2  C2  UNL     1      26.700   0.538  54.110  1.00  0.00     0.031 C 
HETATM    3  N1  UNL     1      26.330   1.560  53.460  1.00  0.00    -0.185 NA
HETATM    4  N2  UNL     1      24.968   1.711  53.291  1.00  0.00    -0.286 N 
HETATM    5  C8  UNL     1      24.613   0.305  53.256  1.00  0.00     0.143 C 
HETATM    6  C15 UNL     1      25.410  -0.171  54.466  1.00  0.00     0.088 C 
ENDROOT
BRANCH   4   7
HETATM    7  C3  UNL     1      24.394   3.063  53.214  1.00  0.00     0.226 C 
BRANCH   7   8
HETATM    8  S1  UNL     1      24.292   3.588  51.509  1.00  0.00    -0.088 SA
BRANCH   8   9
HETATM    9  C4  UNL     1      23.677   5.251  51.332  1.00  0.00     0.103 C 
HETATM   10  C5  UNL     1      22.600   5.498  50.592  1.00  0.00     0.010 C 
HETATM   11  C6  UNL     1      22.100   6.695  50.874  1.00  0.00     0.017 C 
HETATM   12  C7  UNL     1      23.098   7.750  50.596  1.00  0.00     0.229 C 
HETATM   13  O1  UNL     1      24.289   7.597  51.292  1.00  0.00    -0.276 OA
HETATM   14  N3  UNL     1      24.249   6.411  51.933  1.00  0.00    -0.259 N 
HETATM   15  H9  UNL     1      24.624   6.232  52.906  1.00  0.00     0.195 HD
ENDBRANCH   8   9
ENDBRANCH   7   8
ENDBRANCH   4   7
BRANCH   5  16
HETATM   16  C9  UNL     1      23.207  -0.010  53.302  1.00  0.00    -0.033 A 
HETATM   17  C10 UNL     1      22.426   0.285  52.185  1.00  0.00     0.011 A 
HETATM   18  C11 UNL     1      21.080   0.034  52.131  1.00  0.00     0.019 A 
HETATM   19  C12 UNL     1      20.433  -0.532  53.203  1.00  0.00     0.011 A 
HETATM   20 BR1  UNL     1      18.563  -0.893  53.161  1.00  0.00    -0.051 Br
HETATM   21  C13 UNL     1      21.160  -0.842  54.338  1.00  0.00     0.019 A 
HETATM   22  C14 UNL     1      22.514  -0.571  54.346  1.00  0.00     0.011 A 
ENDBRANCH   5  16
TORSDOF 4
ENDMDL
MODEL 7
REMARK VINA RESULT:      -7.1      3.942      6.823
REMARK  4 active torsions:
REMARK  status: ('A' for Active; 'I' for Inactive)
REMARK    1  A    between atoms: N2_4  and  C3_5 
REMARK    2  A    between atoms: C3_5  and  S1_6 
REMARK    3  A    between atoms: S1_6  and  C4_7 
REMARK    4  A    between atoms: C8_13  and  C9_14 
ROOT
HETATM    1  C1  UNL     1      29.024   2.176  54.019  1.00  0.00     0.067 C 
HETATM    2  C2  UNL     1      27.704   2.136  53.337  1.00  0.00     0.031 C 
HETATM    3  N1  UNL     1      27.388   2.390  52.137  1.00  0.00    -0.185 NA
HETATM    4  N2  UNL     1      26.052   2.254  51.820  1.00  0.00    -0.286 N 
HETATM    5  C8  UNL     1      25.733   1.185  52.747  1.00  0.00     0.143 C 
HETATM    6  C15 UNL     1      26.397   1.750  53.997  1.00  0.00     0.088 C 
ENDROOT
BRANCH   4   7
HETATM    7  C3  UNL     1      25.461   3.119  50.787  1.00  0.00     0.226 C 
BRANCH   7   8
HETATM    8  S1  UNL     1      26.581   3.276  49.404  1.00  0.00    -0.088 SA
BRANCH   8   9
HETATM    9  C4  UNL     1      26.955   4.971  49.004  1.00  0.00     0.103 C 
HETATM   10  C5  UNL     1      25.976   5.855  48.827  1.00  0.00     0.010 C 
HETATM   11  C6  UNL     1      26.444   7.095  48.901  1.00  0.00     0.017 C 
HETATM   12  C7  UNL     1      27.464   7.325  47.855  1.00  0.00     0.229 C 
HETATM   13  O1  UNL     1      28.537   6.448  47.911  1.00  0.00    -0.276 OA
HETATM   14  N3  UNL     1      28.264   5.512  48.844  1.00  0.00    -0.259 N 
HETATM   15  H9  UNL     1      28.967   5.104  49.520  1.00  0.00     0.195 HD
ENDBRANCH   8   9
ENDBRANCH   7   8
ENDBRANCH   4   7
BRANCH   5  16
HETATM   16  C9  UNL     1      24.337   0.857  52.904  1.00  0.00    -0.033 A 
HETATM   17  C10 UNL     1      24.001  -0.447  53.267  1.00  0.00     0.011 A 
HETATM   18  C11 UNL     1      22.707  -0.862  53.433  1.00  0.00     0.019 A 
HETATM   19  C12 UNL     1      21.664   0.013  53.242  1.00  0.00     0.011 A 
HETATM   20 BR1  UNL     1      19.852  -0.534  53.464  1.00  0.00    -0.051 Br
HETATM   21  C13 UNL     1      21.942   1.318  52.879  1.00  0.00     0.019 A 
HETATM   22  C14 UNL     1      23.262   1.691  52.724  1.00  0.00     0.011 A 
ENDBRANCH   5  16
TORSDOF 4
ENDMDL
MODEL 8
REMARK VINA RESULT:      -7.1      2.034      2.329
REMARK  4 active torsions:
REMARK  status: ('A' for Active; 'I' for Inactive)
REMARK    1  A    between atoms: N2_4  and  C3_5 
REMARK    2  A    between atoms: C3_5  and  S1_6 
REMARK    3  A    between atoms: S1_6  and  C4_7 
REMARK    4  A    between atoms: C8_13  and  C9_14 
ROOT
HETATM    1  C1  UNL     1      21.220  -1.559  54.277  1.00  0.00     0.067 C 
HETATM    2  C2  UNL     1      22.071  -0.504  53.668  1.00  0.00     0.031 C 
HETATM    3  N1  UNL     1      23.327  -0.446  53.510  1.00  0.00    -0.185 NA
HETATM    4  N2  UNL     1      23.809   0.693  52.897  1.00  0.00    -0.286 N 
HETATM    5  C8  UNL     1      22.667   0.961  52.044  1.00  0.00     0.143 C 
HETATM    6  C15 UNL     1      21.556   0.790  53.074  1.00  0.00     0.088 C 
ENDROOT
BRANCH   4   7
HETATM    7  C3  UNL     1      25.142   1.200  53.259  1.00  0.00     0.226 C 
BRANCH   7   8
HETATM    8  S1  UNL     1      26.361   0.598  52.100  1.00  0.00    -0.088 SA
BRANCH   8   9
HETATM    9  C4  UNL     1      27.565  -0.475  52.856  1.00  0.00     0.103 C 
HETATM   10  C5  UNL     1      28.763  -0.010  53.199  1.00  0.00     0.010 C 
HETATM   11  C6  UNL     1      29.360  -0.834  54.053  1.00  0.00     0.017 C 
HETATM   12  C7  UNL     1      29.544  -2.167  53.441  1.00  0.00     0.229 C 
HETATM   13  O1  UNL     1      28.364  -2.759  53.013  1.00  0.00    -0.276 OA
HETATM   14  N3  UNL     1      27.370  -1.857  53.150  1.00  0.00    -0.259 N 
HETATM   15  H9  UNL     1      26.389  -2.078  53.474  1.00  0.00     0.195 HD
ENDBRANCH   8   9
ENDBRANCH   7   8
ENDBRANCH   4   7
BRANCH   5  16
HETATM   16  C9  UNL     1      22.657   2.226  51.353  1.00  0.00    -0.033 A 
HETATM   17  C10 UNL     1      23.265   2.301  50.100  1.00  0.00     0.011 A 
HETATM   18  C11 UNL     1      23.317   3.457  49.366  1.00  0.00     0.019 A 
HETATM   19  C12 UNL     1      22.759   4.615  49.851  1.00  0.00     0.011 A 
HETATM   20 BR1  UNL     1      22.816   6.240  48.856  1.00  0.00    -0.051 Br
HETATM   21  C13 UNL     1      22.145   4.597  51.090  1.00  0.00     0.019 A 
HETATM   22  C14 UNL     1      22.116   3.409  51.792  1.00  0.00     0.011 A 
ENDBRANCH   5  16
TORSDOF 4
ENDMDL
MODEL 9
REMARK VINA RESULT:      -7.0      2.922      4.447
REMARK  4 active torsions:
REMARK  status: ('A' for Active; 'I' for Inactive)
REMARK    1  A    between atoms: N2_4  and  C3_5 
REMARK    2  A    between atoms: C3_5  and  S1_6 
REMARK    3  A    between atoms: S1_6  and  C4_7 
REMARK    4  A    between atoms: C8_13  and  C9_14 
ROOT
HETATM    1  C1  UNL     1      26.882   4.334  49.078  1.00  0.00     0.067 C 
HETATM    2  C2  UNL     1      25.985   3.619  50.022  1.00  0.00     0.031 C 
HETATM    3  N1  UNL     1      26.124   3.356  51.253  1.00  0.00    -0.185 NA
HETATM    4  N2  UNL     1      25.087   2.666  51.847  1.00  0.00    -0.286 N 
HETATM    5  C8  UNL     1      24.004   3.196  51.041  1.00  0.00     0.143 C 
HETATM    6  C15 UNL     1      24.635   3.035  49.662  1.00  0.00     0.088 C 
ENDROOT
BRANCH   4   7
HETATM    7  C3  UNL     1      25.374   1.740  52.953  1.00  0.00     0.226 C 
BRANCH   7   8
HETATM    8  S1  UNL     1      25.823   0.135  52.309  1.00  0.00    -0.088 SA
BRANCH   8   9
HETATM    9  C4  UNL     1      27.313  -0.513  53.039  1.00  0.00     0.103 C 
HETATM   10  C5  UNL     1      28.291   0.305  53.416  1.00  0.00     0.010 C 
HETATM   11  C6  UNL     1      29.126  -0.311  54.246  1.00  0.00     0.017 C 
HETATM   12  C7  UNL     1      29.739  -1.483  53.584  1.00  0.00     0.229 C 
HETATM   13  O1  UNL     1      28.819  -2.412  53.117  1.00  0.00    -0.276 OA
HETATM   14  N3  UNL     1      27.584  -1.894  53.276  1.00  0.00    -0.259 N 
HETATM   15  H9  UNL     1      26.729  -2.438  53.577  1.00  0.00     0.195 HD
ENDBRANCH   8   9
ENDBRANCH   7   8
ENDBRANCH   4   7
BRANCH   5  16
HETATM   16  C9  UNL     1      22.716   2.566  51.189  1.00  0.00    -0.033 A 
HETATM   17  C10 UNL     1      22.422   1.463  50.388  1.00  0.00     0.011 A 
HETATM   18  C11 UNL     1      21.225   0.800  50.445  1.00  0.00     0.019 A 
HETATM   19  C12 UNL     1      20.243   1.208  51.315  1.00  0.00     0.011 A 
HETATM   20 BR1  UNL     1      18.566   0.309  51.418  1.00  0.00    -0.051 Br
HETATM   21  C13 UNL     1      20.481   2.298  52.132  1.00  0.00     0.019 A 
HETATM   22  C14 UNL     1      21.703   2.935  52.040  1.00  0.00     0.011 A 
ENDBRANCH   5  16
TORSDOF 4
ENDMDL
