MODEL 1
REMARK VINA RESULT:      -8.0      0.000      0.000
REMARK  5 active torsions:
REMARK  status: ('A' for Active; 'I' for Inactive)
REMARK    1  A    between atoms: C2_2  and  C3_3 
REMARK    2  A    between atoms: C8_8  and  C9_9 
REMARK    3  A    between atoms: C9_9  and  C10_10 
REMARK    4  A    between atoms: N1_13  and  C13_14 
REMARK    5  A    between atoms: C16_17  and  N2_18 
ROOT
HETATM    1  C10 UNL     1      24.241   2.719  52.309  1.00  0.00     0.053 A 
HETATM    2  C11 UNL     1      24.973   2.629  53.601  1.00  0.00     0.002 A 
HETATM    3  C12 UNL     1      26.016   1.868  53.891  1.00  0.00     0.115 A 
HETATM    4  N1  UNL     1      26.489   1.044  52.847  1.00  0.00    -0.245 N 
HETATM    5  N3  UNL     1      25.920   1.002  51.563  1.00  0.00    -0.184 NA
HETATM    6  C18 UNL     1      24.907   1.776  51.371  1.00  0.00     0.120 A 
ENDROOT
BRANCH   1   7
HETATM    7  C9  UNL     1      22.823   2.236  52.468  1.00  0.00     0.027 C 
BRANCH   7   8
HETATM    8  C8  UNL     1      22.616   0.780  52.220  1.00  0.00     0.041 C 
HETATM    9  C3  UNL     1      22.305  -0.010  53.402  1.00  0.00    -0.058 C 
HETATM   10  C4  UNL     1      21.091  -0.166  53.895  1.00  0.00    -0.016 C 
HETATM   11  C5  UNL     1      20.101   0.562  53.099  1.00  0.00     0.054 C 
HETATM   12  C6  UNL     1      20.342   0.577  51.652  1.00  0.00    -0.026 C 
HETATM   13  C7  UNL     1      21.569   0.684  51.155  1.00  0.00    -0.021 C 
BRANCH   9  14
HETATM   14  C2  UNL     1      23.360  -0.701  54.133  1.00  0.00    -0.019 C 
HETATM   15  C1  UNL     1      24.322  -1.075  54.926  1.00  0.00     0.031 C 
ENDBRANCH   9  14
ENDBRANCH   7   8
ENDBRANCH   1   7
BRANCH   4  16
HETATM   16  C13 UNL     1      27.607   0.199  53.087  1.00  0.00     0.071 C 
HETATM   17  C14 UNL     1      28.828   0.408  53.499  1.00  0.00     0.007 C 
HETATM   18  C15 UNL     1      29.501  -0.652  53.856  1.00  0.00     0.043 C 
HETATM   19  C16 UNL     1      28.673  -1.756  53.334  1.00  0.00     0.028 C 
HETATM   20  C17 UNL     1      27.527  -1.242  52.869  1.00  0.00     0.061 C 
BRANCH  19  21
HETATM   21  N2  UNL     1      29.042  -3.149  53.330  1.00  0.00    -0.399 N 
HETATM   22  H16 UNL     1      29.724  -3.665  53.953  1.00  0.00     0.156 HD
HETATM   23  H17 UNL     1      28.508  -3.646  52.567  1.00  0.00     0.156 HD
ENDBRANCH  19  21
ENDBRANCH   4  16
TORSDOF 5
ENDMDL
MODEL 2
REMARK VINA RESULT:      -7.5      2.121      3.998
REMARK  5 active torsions:
REMARK  status: ('A' for Active; 'I' for Inactive)
REMARK    1  A    between atoms: C2_2  and  C3_3 
REMARK    2  A    between atoms: C8_8  and  C9_9 
REMARK    3  A    between atoms: C9_9  and  C10_10 
REMARK    4  A    between atoms: N1_13  and  C13_14 
REMARK    5  A    between atoms: C16_17  and  N2_18 
ROOT
HETATM    1  C10 UNL     1      23.859   2.603  52.708  1.00  0.00     0.053 A 
HETATM    2  C11 UNL     1      23.947   1.207  52.206  1.00  0.00     0.002 A 
HETATM    3  C12 UNL     1      24.969   0.371  52.306  1.00  0.00     0.115 A 
HETATM    4  N1  UNL     1      26.110   0.868  52.971  1.00  0.00    -0.245 N 
HETATM    5  N3  UNL     1      26.202   2.163  53.510  1.00  0.00    -0.184 NA
HETATM    6  C18 UNL     1      25.159   2.907  53.364  1.00  0.00     0.120 A 
ENDROOT
BRANCH   1   7
HETATM    7  C9  UNL     1      23.722   3.572  51.562  1.00  0.00     0.027 C 
BRANCH   7   8
HETATM    8  C8  UNL     1      24.174   3.058  50.237  1.00  0.00     0.041 C 
HETATM    9  C3  UNL     1      23.184   3.137  49.174  1.00  0.00    -0.058 C 
HETATM   10  C4  UNL     1      22.981   4.203  48.422  1.00  0.00    -0.016 C 
HETATM   11  C5  UNL     1      23.880   5.294  48.801  1.00  0.00     0.054 C 
HETATM   12  C6  UNL     1      25.231   4.889  49.204  1.00  0.00    -0.026 C 
HETATM   13  C7  UNL     1      25.441   3.788  49.917  1.00  0.00    -0.021 C 
BRANCH   9  14
HETATM   14  C2  UNL     1      22.330   1.995  48.867  1.00  0.00    -0.019 C 
HETATM   15  C1  UNL     1      21.400   1.087  48.790  1.00  0.00     0.031 C 
ENDBRANCH   9  14
ENDBRANCH   7   8
ENDBRANCH   1   7
BRANCH   4  16
HETATM   16  C13 UNL     1      27.246   0.025  53.117  1.00  0.00     0.071 C 
HETATM   17  C14 UNL     1      28.485   0.229  53.476  1.00  0.00     0.007 C 
HETATM   18  C15 UNL     1      29.184  -0.837  53.752  1.00  0.00     0.043 C 
HETATM   19  C16 UNL     1      28.340  -1.927  53.225  1.00  0.00     0.028 C 
HETATM   20  C17 UNL     1      27.167  -1.406  52.840  1.00  0.00     0.061 C 
BRANCH  19  21
HETATM   21  N2  UNL     1      28.721  -3.314  53.141  1.00  0.00    -0.399 N 
HETATM   22  H16 UNL     1      28.309  -4.090  52.552  1.00  0.00     0.156 HD
HETATM   23  H17 UNL     1      29.532  -3.491  53.794  1.00  0.00     0.156 HD
ENDBRANCH  19  21
ENDBRANCH   4  16
TORSDOF 5
ENDMDL
MODEL 3
REMARK VINA RESULT:      -7.3      1.346      2.647
REMARK  5 active torsions:
REMARK  status: ('A' for Active; 'I' for Inactive)
REMARK    1  A    between atoms: C2_2  and  C3_3 
REMARK    2  A    between atoms: C8_8  and  C9_9 
REMARK    3  A    between atoms: C9_9  and  C10_10 
REMARK    4  A    between atoms: N1_13  and  C13_14 
REMARK    5  A    between atoms: C16_17  and  N2_18 
ROOT
HETATM    1  C10 UNL     1      22.803   1.673  52.878  1.00  0.00     0.053 A 
HETATM    2  C11 UNL     1      23.043   0.214  53.032  1.00  0.00     0.002 A 
HETATM    3  C12 UNL     1      24.206  -0.416  53.091  1.00  0.00     0.115 A 
HETATM    4  N1  UNL     1      25.354   0.399  52.998  1.00  0.00    -0.245 N 
HETATM    5  N3  UNL     1      25.315   1.796  52.850  1.00  0.00    -0.184 NA
HETATM    6  C18 UNL     1      24.139   2.323  52.801  1.00  0.00     0.120 A 
ENDROOT
BRANCH   1   7
HETATM    7  C9  UNL     1      22.111   1.962  51.571  1.00  0.00     0.027 C 
BRANCH   7   8
HETATM    8  C8  UNL     1      21.366   0.815  50.979  1.00  0.00     0.041 C 
HETATM    9  C3  UNL     1      19.935   0.805  51.241  1.00  0.00    -0.058 C 
HETATM   10  C4  UNL     1      19.040   1.450  50.517  1.00  0.00    -0.016 C 
HETATM   11  C5  UNL     1      19.677   2.177  49.417  1.00  0.00     0.054 C 
HETATM   12  C6  UNL     1      20.823   1.505  48.796  1.00  0.00    -0.026 C 
HETATM   13  C7  UNL     1      21.696   0.813  49.518  1.00  0.00    -0.021 C 
BRANCH   9  14
HETATM   14  C2  UNL     1      19.390   0.050  52.364  1.00  0.00    -0.019 C 
HETATM   15  C1  UNL     1      18.958  -0.846  53.203  1.00  0.00     0.031 C 
ENDBRANCH   9  14
ENDBRANCH   7   8
ENDBRANCH   1   7
BRANCH   4  16
HETATM   16  C13 UNL     1      26.639  -0.209  53.054  1.00  0.00     0.071 C 
HETATM   17  C14 UNL     1      27.846   0.243  53.258  1.00  0.00     0.007 C 
HETATM   18  C15 UNL     1      28.760  -0.655  53.505  1.00  0.00     0.043 C 
HETATM   19  C16 UNL     1      28.089  -1.915  53.134  1.00  0.00     0.028 C 
HETATM   20  C17 UNL     1      26.805  -1.646  52.861  1.00  0.00     0.061 C 
BRANCH  19  21
HETATM   21  N2  UNL     1      28.715  -3.212  53.077  1.00  0.00    -0.399 N 
HETATM   22  H16 UNL     1      28.711  -3.927  52.298  1.00  0.00     0.156 HD
HETATM   23  H17 UNL     1      29.227  -3.389  53.984  1.00  0.00     0.156 HD
ENDBRANCH  19  21
ENDBRANCH   4  16
TORSDOF 5
ENDMDL
MODEL 4
REMARK VINA RESULT:      -7.2      3.101      6.777
REMARK  5 active torsions:
REMARK  status: ('A' for Active; 'I' for Inactive)
REMARK    1  A    between atoms: C2_2  and  C3_3 
REMARK    2  A    between atoms: C8_8  and  C9_9 
REMARK    3  A    between atoms: C9_9  and  C10_10 
REMARK    4  A    between atoms: N1_13  and  C13_14 
REMARK    5  A    between atoms: C16_17  and  N2_18 
ROOT
HETATM    1  C10 UNL     1      22.748   2.277  51.053  1.00  0.00     0.053 A 
HETATM    2  C11 UNL     1      22.099   1.251  50.195  1.00  0.00     0.002 A 
HETATM    3  C12 UNL     1      20.983   0.581  50.434  1.00  0.00     0.115 A 
HETATM    4  N1  UNL     1      20.332   0.879  51.649  1.00  0.00    -0.245 N 
HETATM    5  N3  UNL     1      20.803   1.821  52.580  1.00  0.00    -0.184 NA
HETATM    6  C18 UNL     1      21.898   2.424  52.264  1.00  0.00     0.120 A 
ENDROOT
BRANCH   1   7
HETATM    7  C9  UNL     1      24.094   1.795  51.531  1.00  0.00     0.027 C 
BRANCH   7   8
HETATM    8  C8  UNL     1      24.200   1.560  53.000  1.00  0.00     0.041 C 
HETATM    9  C3  UNL     1      24.330   0.166  53.394  1.00  0.00    -0.058 C 
HETATM   10  C4  UNL     1      25.474  -0.490  53.449  1.00  0.00    -0.016 C 
HETATM   11  C5  UNL     1      26.593   0.369  53.058  1.00  0.00     0.054 C 
HETATM   12  C6  UNL     1      26.494   1.769  53.483  1.00  0.00    -0.026 C 
HETATM   13  C7  UNL     1      25.333   2.415  53.477  1.00  0.00    -0.021 C 
BRANCH   9  14
HETATM   14  C2  UNL     1      23.155  -0.613  53.768  1.00  0.00    -0.019 C 
HETATM   15  C1  UNL     1      22.235  -1.327  54.351  1.00  0.00     0.031 C 
ENDBRANCH   9  14
ENDBRANCH   7   8
ENDBRANCH   1   7
BRANCH   4  16
HETATM   16  C13 UNL     1      19.127   0.197  51.973  1.00  0.00     0.071 C 
HETATM   17  C14 UNL     1      17.921   0.204  51.474  1.00  0.00     0.007 C 
HETATM   18  C15 UNL     1      17.133  -0.759  51.867  1.00  0.00     0.043 C 
HETATM   19  C16 UNL     1      17.861  -1.328  53.018  1.00  0.00     0.028 C 
HETATM   20  C17 UNL     1      19.068  -0.750  53.082  1.00  0.00     0.061 C 
BRANCH  19  21
HETATM   21  N2  UNL     1      17.353  -2.335  53.914  1.00  0.00    -0.399 N 
HETATM   22  H16 UNL     1      17.409  -3.388  53.843  1.00  0.00     0.156 HD
HETATM   23  H17 UNL     1      16.872  -1.863  54.728  1.00  0.00     0.156 HD
ENDBRANCH  19  21
ENDBRANCH   4  16
TORSDOF 5
ENDMDL
MODEL 5
REMARK VINA RESULT:      -7.1      3.376      6.260
REMARK  5 active torsions:
REMARK  status: ('A' for Active; 'I' for Inactive)
REMARK    1  A    between atoms: C2_2  and  C3_3 
REMARK    2  A    between atoms: C8_8  and  C9_9 
REMARK    3  A    between atoms: C9_9  and  C10_10 
REMARK    4  A    between atoms: N1_13  and  C13_14 
REMARK    5  A    between atoms: C16_17  and  N2_18 
ROOT
HETATM    1  C10 UNL     1      22.756   4.201  49.630  1.00  0.00     0.053 A 
HETATM    2  C11 UNL     1      22.598   2.770  49.257  1.00  0.00     0.002 A 
HETATM    3  C12 UNL     1      22.574   1.719  50.061  1.00  0.00     0.115 A 
HETATM    4  N1  UNL     1      22.716   1.993  51.438  1.00  0.00    -0.245 N 
HETATM    5  N3  UNL     1      22.875   3.285  51.968  1.00  0.00    -0.184 NA
HETATM    6  C18 UNL     1      22.887   4.247  51.110  1.00  0.00     0.120 A 
ENDROOT
BRANCH   1   7
HETATM    7  C9  UNL     1      24.040   4.756  49.069  1.00  0.00     0.027 C 
BRANCH   7   8
HETATM    8  C8  UNL     1      25.141   4.936  50.059  1.00  0.00     0.041 C 
HETATM    9  C3  UNL     1      26.318   4.112  49.828  1.00  0.00    -0.058 C 
HETATM   10  C4  UNL     1      27.311   4.440  49.024  1.00  0.00    -0.016 C 
HETATM   11  C5  UNL     1      27.071   5.739  48.392  1.00  0.00     0.054 C 
HETATM   12  C6  UNL     1      26.409   6.739  49.237  1.00  0.00    -0.026 C 
HETATM   13  C7  UNL     1      25.443   6.402  50.084  1.00  0.00    -0.021 C 
BRANCH   9  14
HETATM   14  C2  UNL     1      26.471   2.829  50.504  1.00  0.00    -0.019 C 
HETATM   15  C1  UNL     1      26.481   1.815  51.321  1.00  0.00     0.031 C 
ENDBRANCH   9  14
ENDBRANCH   7   8
ENDBRANCH   1   7
BRANCH   4  16
HETATM   16  C13 UNL     1      22.700   0.912  52.363  1.00  0.00     0.071 C 
HETATM   17  C14 UNL     1      23.630   0.209  52.950  1.00  0.00     0.007 C 
HETATM   18  C15 UNL     1      23.241  -0.534  53.949  1.00  0.00     0.043 C 
HETATM   19  C16 UNL     1      21.771  -0.518  53.815  1.00  0.00     0.028 C 
HETATM   20  C17 UNL     1      21.443   0.358  52.856  1.00  0.00     0.061 C 
BRANCH  19  21
HETATM   21  N2  UNL     1      20.852  -1.312  54.591  1.00  0.00    -0.399 N 
HETATM   22  H16 UNL     1      20.043  -1.002  55.197  1.00  0.00     0.156 HD
HETATM   23  H17 UNL     1      21.096  -2.333  54.478  1.00  0.00     0.156 HD
ENDBRANCH  19  21
ENDBRANCH   4  16
TORSDOF 5
ENDMDL
MODEL 6
REMARK VINA RESULT:      -7.1      3.080      5.109
REMARK  5 active torsions:
REMARK  status: ('A' for Active; 'I' for Inactive)
REMARK    1  A    between atoms: C2_2  and  C3_3 
REMARK    2  A    between atoms: C8_8  and  C9_9 
REMARK    3  A    between atoms: C9_9  and  C10_10 
REMARK    4  A    between atoms: N1_13  and  C13_14 
REMARK    5  A    between atoms: C16_17  and  N2_18 
ROOT
HETATM    1  C10 UNL     1      22.199   2.928  51.724  1.00  0.00     0.053 A 
HETATM    2  C11 UNL     1      22.954   4.123  52.184  1.00  0.00     0.002 A 
HETATM    3  C12 UNL     1      24.033   4.661  51.638  1.00  0.00     0.115 A 
HETATM    4  N1  UNL     1      24.522   4.024  50.478  1.00  0.00    -0.245 N 
HETATM    5  N3  UNL     1      23.933   2.884  49.903  1.00  0.00    -0.184 NA
HETATM    6  C18 UNL     1      22.887   2.428  50.503  1.00  0.00     0.120 A 
ENDROOT
BRANCH   1   7
HETATM    7  C9  UNL     1      22.281   1.822  52.744  1.00  0.00     0.027 C 
BRANCH   7   8
HETATM    8  C8  UNL     1      22.896   0.553  52.259  1.00  0.00     0.041 C 
HETATM    9  C3  UNL     1      24.151   0.192  52.899  1.00  0.00    -0.058 C 
HETATM   10  C4  UNL     1      24.245  -0.477  54.033  1.00  0.00    -0.016 C 
HETATM   11  C5  UNL     1      22.919  -0.804  54.562  1.00  0.00     0.054 C 
HETATM   12  C6  UNL     1      21.903  -1.139  53.558  1.00  0.00    -0.026 C 
HETATM   13  C7  UNL     1      21.841  -0.500  52.396  1.00  0.00    -0.021 C 
BRANCH   9  14
HETATM   14  C2  UNL     1      25.427   0.562  52.296  1.00  0.00    -0.019 C 
HETATM   15  C1  UNL     1      26.505   1.147  51.861  1.00  0.00     0.031 C 
ENDBRANCH   9  14
ENDBRANCH   7   8
ENDBRANCH   1   7
BRANCH   4  16
HETATM   16  C13 UNL     1      25.678   4.547  49.837  1.00  0.00     0.071 C 
HETATM   17  C14 UNL     1      26.810   4.028  49.445  1.00  0.00     0.007 C 
HETATM   18  C15 UNL     1      27.532   4.764  48.647  1.00  0.00     0.043 C 
HETATM   19  C16 UNL     1      26.891   6.089  48.755  1.00  0.00     0.028 C 
HETATM   20  C17 UNL     1      25.768   5.958  49.474  1.00  0.00     0.061 C 
BRANCH  19  21
HETATM   21  N2  UNL     1      27.393   7.311  48.179  1.00  0.00    -0.399 N 
HETATM   22  H16 UNL     1      27.626   7.533  47.172  1.00  0.00     0.156 HD
HETATM   23  H17 UNL     1      27.515   8.029  48.943  1.00  0.00     0.156 HD
ENDBRANCH  19  21
ENDBRANCH   4  16
TORSDOF 5
ENDMDL
MODEL 7
REMARK VINA RESULT:      -7.1      2.321      3.974
REMARK  5 active torsions:
REMARK  status: ('A' for Active; 'I' for Inactive)
REMARK    1  A    between atoms: C2_2  and  C3_3 
REMARK    2  A    between atoms: C8_8  and  C9_9 
REMARK    3  A    between atoms: C9_9  and  C10_10 
REMARK    4  A    between atoms: N1_13  and  C13_14 
REMARK    5  A    between atoms: C16_17  and  N2_18 
ROOT
HETATM    1  C10 UNL     1      23.557   2.403  52.733  1.00  0.00     0.053 A 
HETATM    2  C11 UNL     1      23.574   0.916  52.728  1.00  0.00     0.002 A 
HETATM    3  C12 UNL     1      24.624   0.116  52.823  1.00  0.00     0.115 A 
HETATM    4  N1  UNL     1      25.877   0.754  52.946  1.00  0.00    -0.245 N 
HETATM    5  N3  UNL     1      26.048   2.149  52.969  1.00  0.00    -0.184 NA
HETATM    6  C18 UNL     1      24.969   2.849  52.869  1.00  0.00     0.120 A 
ENDROOT
BRANCH   1   7
HETATM    7  C9  UNL     1      23.067   2.933  51.410  1.00  0.00     0.027 C 
BRANCH   7   8
HETATM    8  C8  UNL     1      23.595   4.274  51.027  1.00  0.00     0.041 C 
HETATM    9  C3  UNL     1      24.089   4.376  49.663  1.00  0.00    -0.058 C 
HETATM   10  C4  UNL     1      23.334   4.639  48.613  1.00  0.00    -0.016 C 
HETATM   11  C5  UNL     1      21.933   4.813  49.003  1.00  0.00     0.054 C 
HETATM   12  C6  UNL     1      21.714   5.480  50.291  1.00  0.00    -0.026 C 
HETATM   13  C7  UNL     1      22.505   5.253  51.333  1.00  0.00    -0.021 C 
BRANCH   9  14
HETATM   14  C2  UNL     1      25.506   4.187  49.370  1.00  0.00    -0.019 C 
HETATM   15  C1  UNL     1      26.791   3.981  49.386  1.00  0.00     0.031 C 
ENDBRANCH   9  14
ENDBRANCH   7   8
ENDBRANCH   1   7
BRANCH   4  16
HETATM   16  C13 UNL     1      27.050  -0.043  53.053  1.00  0.00     0.071 C 
HETATM   17  C14 UNL     1      28.295   0.214  53.350  1.00  0.00     0.007 C 
HETATM   18  C15 UNL     1      29.047  -0.819  53.611  1.00  0.00     0.043 C 
HETATM   19  C16 UNL     1      28.222  -1.950  53.145  1.00  0.00     0.028 C 
HETATM   20  C17 UNL     1      27.013  -1.481  52.806  1.00  0.00     0.061 C 
BRANCH  19  21
HETATM   21  N2  UNL     1      28.651  -3.324  53.069  1.00  0.00    -0.399 N 
HETATM   22  H16 UNL     1      29.628  -3.726  53.116  1.00  0.00     0.156 HD
HETATM   23  H17 UNL     1      27.805  -3.944  52.949  1.00  0.00     0.156 HD
ENDBRANCH  19  21
ENDBRANCH   4  16
TORSDOF 5
ENDMDL
MODEL 8
REMARK VINA RESULT:      -7.0      3.521      6.295
REMARK  5 active torsions:
REMARK  status: ('A' for Active; 'I' for Inactive)
REMARK    1  A    between atoms: C2_2  and  C3_3 
REMARK    2  A    between atoms: C8_8  and  C9_9 
REMARK    3  A    between atoms: C9_9  and  C10_10 
REMARK    4  A    between atoms: N1_13  and  C13_14 
REMARK    5  A    between atoms: C16_17  and  N2_18 
ROOT
HETATM    1  C10 UNL     1      25.538   2.042  51.981  1.00  0.00     0.053 A 
HETATM    2  C11 UNL     1      24.561   3.148  51.801  1.00  0.00     0.002 A 
HETATM    3  C12 UNL     1      24.644   4.177  50.973  1.00  0.00     0.115 A 
HETATM    4  N1  UNL     1      25.800   4.229  50.166  1.00  0.00    -0.245 N 
HETATM    5  N3  UNL     1      26.826   3.268  50.204  1.00  0.00    -0.184 NA
HETATM    6  C18 UNL     1      26.660   2.301  51.040  1.00  0.00     0.120 A 
ENDROOT
BRANCH   1   7
HETATM    7  C9  UNL     1      26.127   2.074  53.368  1.00  0.00     0.027 C 
BRANCH   7   8
HETATM    8  C8  UNL     1      25.934   0.832  54.170  1.00  0.00     0.041 C 
HETATM    9  C3  UNL     1      25.414  -0.307  53.429  1.00  0.00    -0.058 C 
HETATM   10  C4  UNL     1      26.158  -1.152  52.741  1.00  0.00    -0.016 C 
HETATM   11  C5  UNL     1      27.575  -0.792  52.821  1.00  0.00     0.054 C 
HETATM   12  C6  UNL     1      28.019  -0.258  54.112  1.00  0.00    -0.026 C 
HETATM   13  C7  UNL     1      27.249   0.553  54.829  1.00  0.00    -0.021 C 
BRANCH   9  14
HETATM   14  C2  UNL     1      23.983  -0.588  53.406  1.00  0.00    -0.019 C 
HETATM   15  C1  UNL     1      22.714  -0.706  53.139  1.00  0.00     0.031 C 
ENDBRANCH   9  14
ENDBRANCH   7   8
ENDBRANCH   1   7
BRANCH   4  16
HETATM   16  C13 UNL     1      25.958   5.307  49.252  1.00  0.00     0.071 C 
HETATM   17  C14 UNL     1      25.139   6.182  48.735  1.00  0.00     0.007 C 
HETATM   18  C15 UNL     1      25.693   7.199  48.133  1.00  0.00     0.043 C 
HETATM   19  C16 UNL     1      27.100   6.775  48.004  1.00  0.00     0.028 C 
HETATM   20  C17 UNL     1      27.262   5.630  48.681  1.00  0.00     0.061 C 
BRANCH  19  21
HETATM   21  N2  UNL     1      28.123   7.479  47.272  1.00  0.00    -0.399 N 
HETATM   22  H16 UNL     1      28.811   8.207  47.611  1.00  0.00     0.156 HD
HETATM   23  H17 UNL     1      28.109   7.161  46.266  1.00  0.00     0.156 HD
ENDBRANCH  19  21
ENDBRANCH   4  16
TORSDOF 5
ENDMDL
MODEL 9
REMARK VINA RESULT:      -6.9      1.425      2.001
REMARK  5 active torsions:
REMARK  status: ('A' for Active; 'I' for Inactive)
REMARK    1  A    between atoms: C2_2  and  C3_3 
REMARK    2  A    between atoms: C8_8  and  C9_9 
REMARK    3  A    between atoms: C9_9  and  C10_10 
REMARK    4  A    between atoms: N1_13  and  C13_14 
REMARK    5  A    between atoms: C16_17  and  N2_18 
ROOT
HETATM    1  C10 UNL     1      23.789   3.487  51.562  1.00  0.00     0.053 A 
HETATM    2  C11 UNL     1      24.091   3.184  52.986  1.00  0.00     0.002 A 
HETATM    3  C12 UNL     1      25.061   2.422  53.465  1.00  0.00     0.115 A 
HETATM    4  N1  UNL     1      25.908   1.825  52.508  1.00  0.00    -0.245 N 
HETATM    5  N3  UNL     1      25.770   2.002  51.120  1.00  0.00    -0.184 NA
HETATM    6  C18 UNL     1      24.797   2.761  50.744  1.00  0.00     0.120 A 
ENDROOT
BRANCH   1   7
HETATM    7  C9  UNL     1      22.443   2.929  51.175  1.00  0.00     0.027 C 
BRANCH   7   8
HETATM    8  C8  UNL     1      22.451   1.512  50.711  1.00  0.00     0.041 C 
HETATM    9  C3  UNL     1      21.747   0.576  51.575  1.00  0.00    -0.058 C 
HETATM   10  C4  UNL     1      20.451   0.337  51.515  1.00  0.00    -0.016 C 
HETATM   11  C5  UNL     1      19.815   1.139  50.469  1.00  0.00     0.054 C 
HETATM   12  C6  UNL     1      20.612   1.340  49.254  1.00  0.00    -0.026 C 
HETATM   13  C7  UNL     1      21.925   1.530  49.310  1.00  0.00    -0.021 C 
BRANCH   9  14
HETATM   14  C2  UNL     1      22.467  -0.181  52.593  1.00  0.00    -0.019 C 
HETATM   15  C1  UNL     1      23.306  -0.659  53.465  1.00  0.00     0.031 C 
ENDBRANCH   9  14
ENDBRANCH   7   8
ENDBRANCH   1   7
BRANCH   4  16
HETATM   16  C13 UNL     1      26.973   0.992  52.950  1.00  0.00     0.071 C 
HETATM   17  C14 UNL     1      27.074  -0.281  53.217  1.00  0.00     0.007 C 
HETATM   18  C15 UNL     1      28.287  -0.744  53.344  1.00  0.00     0.043 C 
HETATM   19  C16 UNL     1      29.098   0.484  53.443  1.00  0.00     0.028 C 
HETATM   20  C17 UNL     1      28.303   1.536  53.204  1.00  0.00     0.061 C 
BRANCH  19  21
HETATM   21  N2  UNL     1      30.506   0.536  53.745  1.00  0.00    -0.399 N 
HETATM   22  H16 UNL     1      31.247  -0.209  53.625  1.00  0.00     0.156 HD
HETATM   23  H17 UNL     1      30.742   1.488  54.137  1.00  0.00     0.156 HD
ENDBRANCH  19  21
ENDBRANCH   4  16
TORSDOF 5
ENDMDL
