MODEL 1
REMARK VINA RESULT:      -8.4      0.000      0.000
REMARK  5 active torsions:
REMARK  status: ('A' for Active; 'I' for Inactive)
REMARK    1  A    between atoms: O1_2  and  C2_3 
REMARK    2  A    between atoms: C17_22  and  N4_23 
REMARK       I    between atoms: N4_23  and  C18_24 
REMARK    3  A    between atoms: C18_24  and  C19_26 
REMARK    4  A    between atoms: C20_27  and  C21_28 
REMARK    5  A    between atoms: C21_28  and  N5_30 
ROOT
HETATM    1  C2  UNL     1      23.705   6.184  49.916  1.00  0.00     0.097 C 
HETATM    2  C3  UNL     1      23.882   7.452  49.767  1.00  0.00     0.068 C 
HETATM    3  C4  UNL     1      24.939   8.399  49.500  1.00  0.00     0.064 A 
HETATM    4  N1  UNL     1      26.007   8.047  50.172  1.00  0.00    -0.262 NA
HETATM    5  C5  UNL     1      27.048   8.978  49.916  1.00  0.00     0.137 A 
HETATM    6  C6  UNL     1      26.645   9.926  49.080  1.00  0.00     0.068 A 
HETATM    7  C7  UNL     1      27.347  11.056  48.550  1.00  0.00     0.099 C 
HETATM    8  N2  UNL     1      27.918  11.975  48.140  1.00  0.00    -0.192 NA
HETATM    9  C8  UNL     1      25.218   9.665  48.704  1.00  0.00     0.175 A 
HETATM   10  N3  UNL     1      25.047   9.329  47.356  1.00  0.00    -0.405 N 
HETATM   11  C9  UNL     1      26.093   9.295  46.444  1.00  0.00     0.142 C 
HETATM   12  C10 UNL     1      27.121   8.300  46.856  1.00  0.00    -0.005 C 
HETATM   13  C11 UNL     1      28.353   7.856  47.030  1.00  0.00     0.039 C 
HETATM   14  C12 UNL     1      29.123   6.740  47.513  1.00  0.00     0.113 C 
HETATM   15  F1  UNL     1      30.431   6.884  47.297  1.00  0.00    -0.206 F 
HETATM   16  C13 UNL     1      28.799   5.634  48.115  1.00  0.00     0.025 C 
HETATM   17  C14 UNL     1      27.874   4.711  48.729  1.00  0.00     0.045 C 
HETATM   18  C15 UNL     1      26.764   4.233  49.228  1.00  0.00    -0.015 C 
HETATM   19  C16 UNL     1      25.388   4.181  49.673  1.00  0.00     0.029 C 
HETATM   20  C17 UNL     1      24.280   4.846  49.912  1.00  0.00     0.068 C 
HETATM   21  H7  UNL     1      24.323   8.589  47.148  1.00  0.00     0.154 HD
ENDROOT
BRANCH   1  22
HETATM   22  O1  UNL     1      22.307   6.150  50.177  1.00  0.00    -0.354 OA
HETATM   23  C1  UNL     1      21.822   7.303  50.856  1.00  0.00     0.210 C 
ENDBRANCH   1  22
BRANCH  20  24
HETATM   24  N4  UNL     1      23.313   3.847  50.319  1.00  0.00    -0.321 N 
HETATM   25  C18 UNL     1      23.168   3.504  51.698  1.00  0.00     0.245 C 
HETATM   26  O2  UNL     1      23.828   4.006  52.655  1.00  0.00    -0.268 OA
HETATM   27  H16 UNL     1      22.690   3.343  49.619  1.00  0.00     0.169 HD
BRANCH  25  28
HETATM   28  C19 UNL     1      22.178   2.489  52.064  1.00  0.00     0.072 C 
HETATM   29  C20 UNL     1      22.448   1.437  52.799  1.00  0.00     0.013 C 
BRANCH  29  30
HETATM   30  C21 UNL     1      21.484   0.394  53.189  1.00  0.00     0.241 C 
HETATM   31  C22 UNL     1      20.398   0.220  52.140  1.00  0.00     0.047 C 
BRANCH  30  32
HETATM   32  N5  UNL     1      22.195  -0.859  53.323  1.00  0.00     0.087 N 
HETATM   33  C23 UNL     1      23.582  -0.629  53.623  1.00  0.00     0.310 C 
HETATM   34  C24 UNL     1      21.614  -1.645  54.391  1.00  0.00     0.310 C 
ENDBRANCH  30  32
ENDBRANCH  29  30
ENDBRANCH  25  28
ENDBRANCH  20  24
TORSDOF 5
ENDMDL
MODEL 2
REMARK VINA RESULT:      -8.3      6.185      8.442
REMARK  5 active torsions:
REMARK  status: ('A' for Active; 'I' for Inactive)
REMARK    1  A    between atoms: O1_2  and  C2_3 
REMARK    2  A    between atoms: C17_22  and  N4_23 
REMARK       I    between atoms: N4_23  and  C18_24 
REMARK    3  A    between atoms: C18_24  and  C19_26 
REMARK    4  A    between atoms: C20_27  and  C21_28 
REMARK    5  A    between atoms: C21_28  and  N5_30 
ROOT
HETATM    1  C2  UNL     1      22.285   1.192  50.800  1.00  0.00     0.097 C 
HETATM    2  C3  UNL     1      23.452   1.739  50.844  1.00  0.00     0.068 C 
HETATM    3  C4  UNL     1      24.549   1.935  51.762  1.00  0.00     0.064 A 
HETATM    4  N1  UNL     1      24.068   2.213  52.948  1.00  0.00    -0.262 NA
HETATM    5  C5  UNL     1      25.145   2.411  53.854  1.00  0.00     0.137 A 
HETATM    6  C6  UNL     1      26.314   2.261  53.245  1.00  0.00     0.068 A 
HETATM    7  C7  UNL     1      27.647   2.367  53.756  1.00  0.00     0.099 C 
HETATM    8  N2  UNL     1      28.720   2.472  54.176  1.00  0.00    -0.192 NA
HETATM    9  C8  UNL     1      26.069   1.931  51.803  1.00  0.00     0.175 A 
HETATM   10  N3  UNL     1      26.470   0.637  51.450  1.00  0.00    -0.405 N 
HETATM   11  C9  UNL     1      27.084  -0.237  52.338  1.00  0.00     0.142 C 
HETATM   12  C10 UNL     1      26.196  -0.521  53.499  1.00  0.00    -0.005 C 
HETATM   13  C11 UNL     1      25.925  -0.724  54.775  1.00  0.00     0.039 C 
HETATM   14  C12 UNL     1      24.858  -0.992  55.704  1.00  0.00     0.113 C 
HETATM   15  F1  UNL     1      25.296  -1.210  56.944  1.00  0.00    -0.206 F 
HETATM   16  C13 UNL     1      23.566  -1.059  55.574  1.00  0.00     0.025 C 
HETATM   17  C14 UNL     1      22.327  -0.964  54.838  1.00  0.00     0.045 C 
HETATM   18  C15 UNL     1      21.492  -0.708  53.866  1.00  0.00    -0.015 C 
HETATM   19  C16 UNL     1      21.000  -0.243  52.587  1.00  0.00     0.029 C 
HETATM   20  C17 UNL     1      21.257   0.415  51.478  1.00  0.00     0.068 C 
HETATM   21  H7  UNL     1      25.847   0.126  50.768  1.00  0.00     0.154 HD
ENDROOT
BRANCH   1  22
HETATM   22  O1  UNL     1      21.902   1.516  49.469  1.00  0.00    -0.354 OA
HETATM   23  C1  UNL     1      22.071   2.890  49.140  1.00  0.00     0.210 C 
ENDBRANCH   1  22
BRANCH  20  24
HETATM   24  N4  UNL     1      20.057   0.299  50.676  1.00  0.00    -0.321 N 
HETATM   25  C18 UNL     1      18.931   1.138  50.939  1.00  0.00     0.245 C 
HETATM   26  O2  UNL     1      18.864   2.018  51.845  1.00  0.00    -0.268 OA
HETATM   27  H16 UNL     1      19.974  -0.401  49.879  1.00  0.00     0.169 HD
BRANCH  25  28
HETATM   28  C19 UNL     1      17.738   0.986  50.103  1.00  0.00     0.072 C 
HETATM   29  C20 UNL     1      16.846   0.040  50.267  1.00  0.00     0.013 C 
BRANCH  29  30
HETATM   30  C21 UNL     1      15.634  -0.148  49.450  1.00  0.00     0.241 C 
HETATM   31  C22 UNL     1      15.809  -1.278  48.449  1.00  0.00     0.047 C 
BRANCH  30  32
HETATM   32  N5  UNL     1      14.537  -0.483  50.331  1.00  0.00     0.087 N 
HETATM   33  C23 UNL     1      14.938  -1.476  51.291  1.00  0.00     0.310 C 
HETATM   34  C24 UNL     1      14.096   0.699  51.042  1.00  0.00     0.310 C 
ENDBRANCH  30  32
ENDBRANCH  29  30
ENDBRANCH  25  28
ENDBRANCH  20  24
TORSDOF 5
ENDMDL
MODEL 3
REMARK VINA RESULT:      -8.0      3.508      9.083
REMARK  5 active torsions:
REMARK  status: ('A' for Active; 'I' for Inactive)
REMARK    1  A    between atoms: O1_2  and  C2_3 
REMARK    2  A    between atoms: C17_22  and  N4_23 
REMARK       I    between atoms: N4_23  and  C18_24 
REMARK    3  A    between atoms: C18_24  and  C19_26 
REMARK    4  A    between atoms: C20_27  and  C21_28 
REMARK    5  A    between atoms: C21_28  and  N5_30 
ROOT
HETATM    1  C2  UNL     1      24.018   4.843  49.231  1.00  0.00     0.097 C 
HETATM    2  C3  UNL     1      22.793   4.457  49.121  1.00  0.00     0.068 C 
HETATM    3  C4  UNL     1      21.948   3.341  49.472  1.00  0.00     0.064 A 
HETATM    4  N1  UNL     1      22.608   2.227  49.274  1.00  0.00    -0.262 NA
HETATM    5  C5  UNL     1      21.778   1.125  49.615  1.00  0.00     0.137 A 
HETATM    6  C6  UNL     1      20.586   1.536  50.029  1.00  0.00     0.068 A 
HETATM    7  C7  UNL     1      19.447   0.788  50.467  1.00  0.00     0.099 C 
HETATM    8  N2  UNL     1      18.527   0.172  50.804  1.00  0.00    -0.192 NA
HETATM    9  C8  UNL     1      20.550   3.034  49.988  1.00  0.00     0.175 A 
HETATM   10  N3  UNL     1      20.458   3.626  51.252  1.00  0.00    -0.405 N 
HETATM   11  C9  UNL     1      20.355   2.895  52.428  1.00  0.00     0.142 C 
HETATM   12  C10 UNL     1      21.545   2.019  52.611  1.00  0.00    -0.005 C 
HETATM   13  C11 UNL     1      22.169   0.904  52.945  1.00  0.00     0.039 C 
HETATM   14  C12 UNL     1      23.463   0.277  53.010  1.00  0.00     0.113 C 
HETATM   15  F1  UNL     1      23.426  -0.925  53.586  1.00  0.00    -0.206 F 
HETATM   16  C13 UNL     1      24.648   0.646  52.620  1.00  0.00     0.025 C 
HETATM   17  C14 UNL     1      25.587   1.540  51.985  1.00  0.00     0.045 C 
HETATM   18  C15 UNL     1      26.049   2.548  51.292  1.00  0.00    -0.015 C 
HETATM   19  C16 UNL     1      26.056   3.733  50.462  1.00  0.00     0.029 C 
HETATM   20  C17 UNL     1      25.358   4.576  49.735  1.00  0.00     0.068 C 
HETATM   21  H7  UNL     1      21.010   4.515  51.393  1.00  0.00     0.154 HD
ENDROOT
BRANCH   1  22
HETATM   22  O1  UNL     1      23.953   6.095  48.559  1.00  0.00    -0.354 OA
HETATM   23  C1  UNL     1      22.968   6.978  49.085  1.00  0.00     0.210 C 
ENDBRANCH   1  22
BRANCH  20  24
HETATM   24  N4  UNL     1      26.305   5.581  49.296  1.00  0.00    -0.321 N 
HETATM   25  C18 UNL     1      27.534   5.192  48.680  1.00  0.00     0.245 C 
HETATM   26  O2  UNL     1      27.905   4.002  48.465  1.00  0.00    -0.268 OA
HETATM   27  H16 UNL     1      26.122   6.621  49.415  1.00  0.00     0.169 HD
BRANCH  25  28
HETATM   28  C19 UNL     1      28.462   6.241  48.252  1.00  0.00     0.072 C 
HETATM   29  C20 UNL     1      29.757   6.071  48.141  1.00  0.00     0.013 C 
BRANCH  29  30
HETATM   30  C21 UNL     1      30.724   7.097  47.715  1.00  0.00     0.241 C 
HETATM   31  C22 UNL     1      30.124   8.492  47.794  1.00  0.00     0.047 C 
BRANCH  30  32
HETATM   32  N5  UNL     1      31.868   7.041  48.597  1.00  0.00     0.087 N 
HETATM   33  C23 UNL     1      31.785   8.061  49.608  1.00  0.00     0.310 C 
HETATM   34  C24 UNL     1      31.929   5.748  49.247  1.00  0.00     0.310 C 
ENDBRANCH  30  32
ENDBRANCH  29  30
ENDBRANCH  25  28
ENDBRANCH  20  24
TORSDOF 5
ENDMDL
MODEL 4
REMARK VINA RESULT:      -7.9      3.045      9.108
REMARK  5 active torsions:
REMARK  status: ('A' for Active; 'I' for Inactive)
REMARK    1  A    between atoms: O1_2  and  C2_3 
REMARK    2  A    between atoms: C17_22  and  N4_23 
REMARK       I    between atoms: N4_23  and  C18_24 
REMARK    3  A    between atoms: C18_24  and  C19_26 
REMARK    4  A    between atoms: C20_27  and  C21_28 
REMARK    5  A    between atoms: C21_28  and  N5_30 
ROOT
HETATM    1  C2  UNL     1      24.194   5.482  48.730  1.00  0.00     0.097 C 
HETATM    2  C3  UNL     1      22.974   5.067  48.756  1.00  0.00     0.068 C 
HETATM    3  C4  UNL     1      22.201   3.927  49.186  1.00  0.00     0.064 A 
HETATM    4  N1  UNL     1      22.860   2.832  48.897  1.00  0.00    -0.262 NA
HETATM    5  C5  UNL     1      22.101   1.706  49.315  1.00  0.00     0.137 A 
HETATM    6  C6  UNL     1      20.956   2.082  49.870  1.00  0.00     0.068 A 
HETATM    7  C7  UNL     1      19.893   1.301  50.426  1.00  0.00     0.099 C 
HETATM    8  N2  UNL     1      19.033   0.658  50.857  1.00  0.00    -0.192 NA
HETATM    9  C8  UNL     1      20.881   3.579  49.856  1.00  0.00     0.175 A 
HETATM   10  N3  UNL     1      20.922   4.153  51.131  1.00  0.00    -0.405 N 
HETATM   11  C9  UNL     1      20.973   3.405  52.300  1.00  0.00     0.142 C 
HETATM   12  C10 UNL     1      22.197   2.557  52.331  1.00  0.00    -0.005 C 
HETATM   13  C11 UNL     1      22.881   1.454  52.573  1.00  0.00     0.039 C 
HETATM   14  C12 UNL     1      24.188   0.858  52.478  1.00  0.00     0.113 C 
HETATM   15  F1  UNL     1      24.245  -0.352  53.037  1.00  0.00    -0.206 F 
HETATM   16  C13 UNL     1      25.310   1.261  51.959  1.00  0.00     0.025 C 
HETATM   17  C14 UNL     1      26.149   2.185  51.234  1.00  0.00     0.045 C 
HETATM   18  C15 UNL     1      26.503   3.213  50.507  1.00  0.00    -0.015 C 
HETATM   19  C16 UNL     1      26.387   4.408  49.700  1.00  0.00     0.029 C 
HETATM   20  C17 UNL     1      25.590   5.242  49.071  1.00  0.00     0.068 C 
HETATM   21  H7  UNL     1      21.467   5.053  51.220  1.00  0.00     0.154 HD
ENDROOT
BRANCH   1  22
HETATM   22  O1  UNL     1      24.023   6.741  48.089  1.00  0.00    -0.354 OA
HETATM   23  C1  UNL     1      23.049   7.573  48.710  1.00  0.00     0.210 C 
ENDBRANCH   1  22
BRANCH  20  24
HETATM   24  N4  UNL     1      26.456   6.275  48.541  1.00  0.00    -0.321 N 
HETATM   25  C18 UNL     1      26.718   7.456  49.302  1.00  0.00     0.245 C 
HETATM   26  O2  UNL     1      26.251   7.710  50.450  1.00  0.00    -0.268 OA
HETATM   27  H16 UNL     1      26.916   6.194  47.586  1.00  0.00     0.169 HD
BRANCH  25  28
HETATM   28  C19 UNL     1      27.599   8.475  48.727  1.00  0.00     0.072 C 
HETATM   29  C20 UNL     1      28.209   9.396  49.432  1.00  0.00     0.013 C 
BRANCH  29  30
HETATM   30  C21 UNL     1      29.102  10.437  48.894  1.00  0.00     0.241 C 
HETATM   31  C22 UNL     1      30.541  10.213  49.329  1.00  0.00     0.047 C 
BRANCH  30  32
HETATM   32  N5  UNL     1      29.048  10.383  47.450  1.00  0.00     0.087 N 
HETATM   33  C23 UNL     1      28.477  11.590  46.915  1.00  0.00     0.310 C 
HETATM   34  C24 UNL     1      30.383  10.224  46.911  1.00  0.00     0.310 C 
ENDBRANCH  30  32
ENDBRANCH  29  30
ENDBRANCH  25  28
ENDBRANCH  20  24
TORSDOF 5
ENDMDL
MODEL 5
REMARK VINA RESULT:      -7.9      5.995      8.491
REMARK  5 active torsions:
REMARK  status: ('A' for Active; 'I' for Inactive)
REMARK    1  A    between atoms: O1_2  and  C2_3 
REMARK    2  A    between atoms: C17_22  and  N4_23 
REMARK       I    between atoms: N4_23  and  C18_24 
REMARK    3  A    between atoms: C18_24  and  C19_26 
REMARK    4  A    between atoms: C20_27  and  C21_28 
REMARK    5  A    between atoms: C21_28  and  N5_30 
ROOT
HETATM    1  C2  UNL     1      22.164   2.222  50.815  1.00  0.00     0.097 C 
HETATM    2  C3  UNL     1      23.393   2.601  50.901  1.00  0.00     0.068 C 
HETATM    3  C4  UNL     1      24.522   2.503  51.795  1.00  0.00     0.064 A 
HETATM    4  N1  UNL     1      24.103   2.639  53.029  1.00  0.00    -0.262 NA
HETATM    5  C5  UNL     1      25.212   2.546  53.912  1.00  0.00     0.137 A 
HETATM    6  C6  UNL     1      26.340   2.353  53.241  1.00  0.00     0.068 A 
HETATM    7  C7  UNL     1      27.684   2.204  53.711  1.00  0.00     0.099 C 
HETATM    8  N2  UNL     1      28.769   2.101  54.100  1.00  0.00    -0.192 NA
HETATM    9  C8  UNL     1      26.029   2.299  51.777  1.00  0.00     0.175 A 
HETATM   10  N3  UNL     1      26.250   1.042  51.203  1.00  0.00    -0.405 N 
HETATM   11  C9  UNL     1      26.760  -0.037  51.913  1.00  0.00     0.142 C 
HETATM   12  C10 UNL     1      25.863  -0.395  53.046  1.00  0.00    -0.005 C 
HETATM   13  C11 UNL     1      25.591  -0.771  54.282  1.00  0.00     0.039 C 
HETATM   14  C12 UNL     1      24.514  -1.052  55.196  1.00  0.00     0.113 C 
HETATM   15  F1  UNL     1      24.942  -1.526  56.367  1.00  0.00    -0.206 F 
HETATM   16  C13 UNL     1      23.222  -0.933  55.108  1.00  0.00     0.025 C 
HETATM   17  C14 UNL     1      21.994  -0.561  54.446  1.00  0.00     0.045 C 
HETATM   18  C15 UNL     1      21.182  -0.044  53.561  1.00  0.00    -0.015 C 
HETATM   19  C16 UNL     1      20.733   0.685  52.395  1.00  0.00     0.029 C 
HETATM   20  C17 UNL     1      21.055   1.479  51.398  1.00  0.00     0.068 C 
HETATM   21  H7  UNL     1      25.554   0.734  50.472  1.00  0.00     0.154 HD
ENDROOT
BRANCH   1  22
HETATM   22  O1  UNL     1      21.802   2.807  49.569  1.00  0.00    -0.354 OA
HETATM   23  C1  UNL     1      22.754   2.587  48.535  1.00  0.00     0.210 C 
ENDBRANCH   1  22
BRANCH  20  24
HETATM   24  N4  UNL     1      19.836   1.650  50.634  1.00  0.00    -0.321 N 
HETATM   25  C18 UNL     1      18.860   2.611  51.042  1.00  0.00     0.245 C 
HETATM   26  O2  UNL     1      18.950   3.370  52.050  1.00  0.00    -0.268 OA
HETATM   27  H16 UNL     1      19.628   1.078  49.763  1.00  0.00     0.169 HD
BRANCH  25  28
HETATM   28  C19 UNL     1      17.642   2.751  50.240  1.00  0.00     0.072 C 
HETATM   29  C20 UNL     1      16.444   2.900  50.751  1.00  0.00     0.013 C 
BRANCH  29  30
HETATM   30  C21 UNL     1      15.196   3.044  49.983  1.00  0.00     0.241 C 
HETATM   31  C22 UNL     1      14.179   1.983  50.372  1.00  0.00     0.047 C 
BRANCH  30  32
HETATM   32  N5  UNL     1      14.631   4.345  50.267  1.00  0.00     0.087 N 
HETATM   33  C23 UNL     1      14.301   5.035  49.050  1.00  0.00     0.310 C 
HETATM   34  C24 UNL     1      13.427   4.198  51.058  1.00  0.00     0.310 C 
ENDBRANCH  30  32
ENDBRANCH  29  30
ENDBRANCH  25  28
ENDBRANCH  20  24
TORSDOF 5
ENDMDL
MODEL 6
REMARK VINA RESULT:      -7.9      4.543      8.984
REMARK  5 active torsions:
REMARK  status: ('A' for Active; 'I' for Inactive)
REMARK    1  A    between atoms: O1_2  and  C2_3 
REMARK    2  A    between atoms: C17_22  and  N4_23 
REMARK       I    between atoms: N4_23  and  C18_24 
REMARK    3  A    between atoms: C18_24  and  C19_26 
REMARK    4  A    between atoms: C20_27  and  C21_28 
REMARK    5  A    between atoms: C21_28  and  N5_30 
ROOT
HETATM    1  C2  UNL     1      24.416   3.346  50.083  1.00  0.00     0.097 C 
HETATM    2  C3  UNL     1      25.539   3.048  50.641  1.00  0.00     0.068 C 
HETATM    3  C4  UNL     1      26.050   2.403  51.827  1.00  0.00     0.064 A 
HETATM    4  N1  UNL     1      25.315   2.755  52.854  1.00  0.00    -0.262 NA
HETATM    5  C5  UNL     1      25.817   2.126  54.024  1.00  0.00     0.137 A 
HETATM    6  C6  UNL     1      26.873   1.373  53.746  1.00  0.00     0.068 A 
HETATM    7  C7  UNL     1      27.690   0.568  54.602  1.00  0.00     0.099 C 
HETATM    8  N2  UNL     1      28.354  -0.067  55.306  1.00  0.00    -0.192 NA
HETATM    9  C8  UNL     1      27.155   1.460  52.277  1.00  0.00     0.175 A 
HETATM   10  N3  UNL     1      26.947   0.256  51.594  1.00  0.00    -0.405 N 
HETATM   11  C9  UNL     1      26.568  -0.920  52.228  1.00  0.00     0.142 C 
HETATM   12  C10 UNL     1      25.257  -0.752  52.913  1.00  0.00    -0.005 C 
HETATM   13  C11 UNL     1      24.394  -0.915  53.899  1.00  0.00     0.039 C 
HETATM   14  C12 UNL     1      23.061  -0.593  54.335  1.00  0.00     0.113 C 
HETATM   15  F1  UNL     1      22.730  -1.199  55.477  1.00  0.00    -0.206 F 
HETATM   16  C13 UNL     1      22.126   0.167  53.843  1.00  0.00     0.025 C 
HETATM   17  C14 UNL     1      21.579   1.100  52.888  1.00  0.00     0.045 C 
HETATM   18  C15 UNL     1      21.517   1.944  51.891  1.00  0.00    -0.015 C 
HETATM   19  C16 UNL     1      21.950   2.779  50.792  1.00  0.00     0.029 C 
HETATM   20  C17 UNL     1      22.961   3.282  50.119  1.00  0.00     0.068 C 
HETATM   21  H7  UNL     1      26.525   0.333  50.630  1.00  0.00     0.154 HD
ENDROOT
BRANCH   1  22
HETATM   22  O1  UNL     1      24.880   4.012  48.914  1.00  0.00    -0.354 OA
HETATM   23  C1  UNL     1      25.894   4.978  49.169  1.00  0.00     0.210 C 
ENDBRANCH   1  22
BRANCH  20  24
HETATM   24  N4  UNL     1      22.365   4.037  49.036  1.00  0.00    -0.321 N 
HETATM   25  C18 UNL     1      22.117   3.413  47.775  1.00  0.00     0.245 C 
HETATM   26  O2  UNL     1      22.374   2.209  47.486  1.00  0.00    -0.268 OA
HETATM   27  H16 UNL     1      22.098   5.061  49.140  1.00  0.00     0.169 HD
BRANCH  25  28
HETATM   28  C19 UNL     1      21.513   4.215  46.708  1.00  0.00     0.072 C 
HETATM   29  C20 UNL     1      21.793   4.067  45.436  1.00  0.00     0.013 C 
BRANCH  29  30
HETATM   30  C21 UNL     1      21.209   4.850  44.333  1.00  0.00     0.241 C 
HETATM   31  C22 UNL     1      19.760   4.465  44.084  1.00  0.00     0.047 C 
BRANCH  30  32
HETATM   32  N5  UNL     1      21.254   6.250  44.693  1.00  0.00     0.087 N 
HETATM   33  C23 UNL     1      22.168   6.967  43.845  1.00  0.00     0.310 C 
HETATM   34  C24 UNL     1      19.937   6.838  44.556  1.00  0.00     0.310 C 
ENDBRANCH  30  32
ENDBRANCH  29  30
ENDBRANCH  25  28
ENDBRANCH  20  24
TORSDOF 5
ENDMDL
MODEL 7
REMARK VINA RESULT:      -7.6      5.947      8.361
REMARK  5 active torsions:
REMARK  status: ('A' for Active; 'I' for Inactive)
REMARK    1  A    between atoms: O1_2  and  C2_3 
REMARK    2  A    between atoms: C17_22  and  N4_23 
REMARK       I    between atoms: N4_23  and  C18_24 
REMARK    3  A    between atoms: C18_24  and  C19_26 
REMARK    4  A    between atoms: C20_27  and  C21_28 
REMARK    5  A    between atoms: C21_28  and  N5_30 
ROOT
HETATM    1  C2  UNL     1      20.730   1.328  52.190  1.00  0.00     0.097 C 
HETATM    2  C3  UNL     1      19.519   1.289  51.750  1.00  0.00     0.068 C 
HETATM    3  C4  UNL     1      18.502   2.170  51.228  1.00  0.00     0.064 A 
HETATM    4  N1  UNL     1      18.511   3.286  51.913  1.00  0.00    -0.262 NA
HETATM    5  C5  UNL     1      17.508   4.154  51.405  1.00  0.00     0.137 A 
HETATM    6  C6  UNL     1      16.856   3.591  50.396  1.00  0.00     0.068 A 
HETATM    7  C7  UNL     1      15.781   4.089  49.593  1.00  0.00     0.099 C 
HETATM    8  N2  UNL     1      14.902   4.496  48.960  1.00  0.00    -0.192 NA
HETATM    9  C8  UNL     1      17.425   2.226  50.155  1.00  0.00     0.175 A 
HETATM   10  N3  UNL     1      18.086   2.104  48.927  1.00  0.00    -0.405 N 
HETATM   11  C9  UNL     1      18.160   3.135  47.999  1.00  0.00     0.142 C 
HETATM   12  C10 UNL     1      18.853   4.319  48.578  1.00  0.00    -0.005 C 
HETATM   13  C11 UNL     1      19.039   5.608  48.792  1.00  0.00     0.039 C 
HETATM   14  C12 UNL     1      19.873   6.559  49.480  1.00  0.00     0.113 C 
HETATM   15  F1  UNL     1      19.573   7.823  49.177  1.00  0.00    -0.206 F 
HETATM   16  C13 UNL     1      20.849   6.430  50.331  1.00  0.00     0.025 C 
HETATM   17  C14 UNL     1      21.742   5.677  51.179  1.00  0.00     0.045 C 
HETATM   18  C15 UNL     1      22.266   4.667  51.823  1.00  0.00    -0.015 C 
HETATM   19  C16 UNL     1      22.435   3.323  52.330  1.00  0.00     0.029 C 
HETATM   20  C17 UNL     1      21.922   2.120  52.463  1.00  0.00     0.068 C 
HETATM   21  H7  UNL     1      18.961   1.514  48.925  1.00  0.00     0.154 HD
ENDROOT
BRANCH   1  22
HETATM   22  O1  UNL     1      20.929  -0.043  52.515  1.00  0.00    -0.354 OA
HETATM   23  C1  UNL     1      19.971  -0.559  53.432  1.00  0.00     0.210 C 
ENDBRANCH   1  22
BRANCH  20  24
HETATM   24  N4  UNL     1      22.943   1.338  53.129  1.00  0.00    -0.321 N 
HETATM   25  C18 UNL     1      24.158   1.012  52.450  1.00  0.00     0.245 C 
HETATM   26  O2  UNL     1      24.454   1.352  51.267  1.00  0.00    -0.268 OA
HETATM   27  H16 UNL     1      22.827   0.985  54.125  1.00  0.00     0.169 HD
BRANCH  25  28
HETATM   28  C19 UNL     1      25.163   0.219  53.160  1.00  0.00     0.072 C 
HETATM   29  C20 UNL     1      26.360  -0.033  52.691  1.00  0.00     0.013 C 
BRANCH  29  30
HETATM   30  C21 UNL     1      27.399  -0.825  53.373  1.00  0.00     0.241 C 
HETATM   31  C22 UNL     1      27.569  -2.191  52.727  1.00  0.00     0.047 C 
BRANCH  30  32
HETATM   32  N5  UNL     1      28.654  -0.113  53.274  1.00  0.00     0.087 N 
HETATM   33  C23 UNL     1      28.712   0.955  54.235  1.00  0.00     0.310 C 
HETATM   34  C24 UNL     1      29.757  -1.020  53.522  1.00  0.00     0.310 C 
ENDBRANCH  30  32
ENDBRANCH  29  30
ENDBRANCH  25  28
ENDBRANCH  20  24
TORSDOF 5
ENDMDL
MODEL 8
REMARK VINA RESULT:      -7.6      5.188      8.483
REMARK  5 active torsions:
REMARK  status: ('A' for Active; 'I' for Inactive)
REMARK    1  A    between atoms: O1_2  and  C2_3 
REMARK    2  A    between atoms: C17_22  and  N4_23 
REMARK       I    between atoms: N4_23  and  C18_24 
REMARK    3  A    between atoms: C18_24  and  C19_26 
REMARK    4  A    between atoms: C20_27  and  C21_28 
REMARK    5  A    between atoms: C21_28  and  N5_30 
ROOT
HETATM    1  C2  UNL     1      23.171   2.651  50.083  1.00  0.00     0.097 C 
HETATM    2  C3  UNL     1      24.393   2.786  50.469  1.00  0.00     0.068 C 
HETATM    3  C4  UNL     1      25.237   2.486  51.600  1.00  0.00     0.064 A 
HETATM    4  N1  UNL     1      24.571   2.719  52.704  1.00  0.00    -0.262 NA
HETATM    5  C5  UNL     1      25.400   2.428  53.820  1.00  0.00     0.137 A 
HETATM    6  C6  UNL     1      26.597   2.009  53.430  1.00  0.00     0.068 A 
HETATM    7  C7  UNL     1      27.737   1.610  54.198  1.00  0.00     0.099 C 
HETATM    8  N2  UNL     1      28.657   1.306  54.829  1.00  0.00    -0.192 NA
HETATM    9  C8  UNL     1      26.638   1.994  51.932  1.00  0.00     0.175 A 
HETATM   10  N3  UNL     1      26.744   0.709  51.388  1.00  0.00    -0.405 N 
HETATM   11  C9  UNL     1      26.854  -0.437  52.164  1.00  0.00     0.142 C 
HETATM   12  C10 UNL     1      25.662  -0.598  53.042  1.00  0.00    -0.005 C 
HETATM   13  C11 UNL     1      25.037  -0.894  54.167  1.00  0.00     0.039 C 
HETATM   14  C12 UNL     1      23.741  -0.947  54.792  1.00  0.00     0.113 C 
HETATM   15  F1  UNL     1      23.780  -1.477  56.015  1.00  0.00    -0.206 F 
HETATM   16  C13 UNL     1      22.555  -0.582  54.404  1.00  0.00     0.025 C 
HETATM   17  C14 UNL     1      21.613   0.010  53.483  1.00  0.00     0.045 C 
HETATM   18  C15 UNL     1      21.150   0.660  52.448  1.00  0.00    -0.015 C 
HETATM   19  C16 UNL     1      21.139   1.444  51.232  1.00  0.00     0.029 C 
HETATM   20  C17 UNL     1      21.834   2.145  50.365  1.00  0.00     0.068 C 
HETATM   21  H7  UNL     1      26.196   0.530  50.504  1.00  0.00     0.154 HD
ENDROOT
BRANCH   1  22
HETATM   22  O1  UNL     1      23.234   3.275  48.806  1.00  0.00    -0.354 OA
HETATM   23  C1  UNL     1      23.744   4.604  48.842  1.00  0.00     0.210 C 
ENDBRANCH   1  22
BRANCH  20  24
HETATM   24  N4  UNL     1      20.887   2.537  49.340  1.00  0.00    -0.321 N 
HETATM   25  C18 UNL     1      20.109   3.725  49.496  1.00  0.00     0.245 C 
HETATM   26  O2  UNL     1      20.159   4.514  50.484  1.00  0.00    -0.268 OA
HETATM   27  H16 UNL     1      20.741   1.966  48.456  1.00  0.00     0.169 HD
BRANCH  25  28
HETATM   28  C19 UNL     1      19.163   4.083  48.436  1.00  0.00     0.072 C 
HETATM   29  C20 UNL     1      18.527   3.206  47.699  1.00  0.00     0.013 C 
BRANCH  29  30
HETATM   30  C21 UNL     1      17.569   3.523  46.625  1.00  0.00     0.241 C 
HETATM   31  C22 UNL     1      18.239   3.504  45.260  1.00  0.00     0.047 C 
BRANCH  30  32
HETATM   32  N5  UNL     1      16.524   2.523  46.635  1.00  0.00     0.087 N 
HETATM   33  C23 UNL     1      15.947   2.401  47.946  1.00  0.00     0.310 C 
HETATM   34  C24 UNL     1      15.479   2.891  45.701  1.00  0.00     0.310 C 
ENDBRANCH  30  32
ENDBRANCH  29  30
ENDBRANCH  25  28
ENDBRANCH  20  24
TORSDOF 5
ENDMDL
MODEL 9
REMARK VINA RESULT:      -7.4      4.966      7.953
REMARK  5 active torsions:
REMARK  status: ('A' for Active; 'I' for Inactive)
REMARK    1  A    between atoms: O1_2  and  C2_3 
REMARK    2  A    between atoms: C17_22  and  N4_23 
REMARK       I    between atoms: N4_23  and  C18_24 
REMARK    3  A    between atoms: C18_24  and  C19_26 
REMARK    4  A    between atoms: C20_27  and  C21_28 
REMARK    5  A    between atoms: C21_28  and  N5_30 
ROOT
HETATM    1  C2  UNL     1      23.618   2.969  50.053  1.00  0.00     0.097 C 
HETATM    2  C3  UNL     1      23.039   3.686  49.151  1.00  0.00     0.068 C 
HETATM    3  C4  UNL     1      21.760   3.820  48.496  1.00  0.00     0.064 A 
HETATM    4  N1  UNL     1      21.278   2.627  48.253  1.00  0.00    -0.262 NA
HETATM    5  C5  UNL     1      20.020   2.755  47.605  1.00  0.00     0.137 A 
HETATM    6  C6  UNL     1      19.700   4.031  47.432  1.00  0.00     0.068 A 
HETATM    7  C7  UNL     1      18.544   4.624  46.831  1.00  0.00     0.099 C 
HETATM    8  N2  UNL     1      17.613   5.093  46.329  1.00  0.00    -0.192 NA
HETATM    9  C8  UNL     1      20.797   4.884  47.993  1.00  0.00     0.175 A 
HETATM   10  N3  UNL     1      20.409   5.627  49.115  1.00  0.00    -0.405 N 
HETATM   11  C9  UNL     1      19.117   5.614  49.624  1.00  0.00     0.142 C 
HETATM   12  C10 UNL     1      18.729   4.239  50.046  1.00  0.00    -0.005 C 
HETATM   13  C11 UNL     1      17.904   3.216  50.173  1.00  0.00     0.039 C 
HETATM   14  C12 UNL     1      17.800   1.868  50.665  1.00  0.00     0.113 C 
HETATM   15  F1  UNL     1      16.562   1.380  50.578  1.00  0.00    -0.206 F 
HETATM   16  C13 UNL     1      18.666   1.039  51.171  1.00  0.00     0.025 C 
HETATM   17  C14 UNL     1      19.990   0.631  51.578  1.00  0.00     0.045 C 
HETATM   18  C15 UNL     1      21.288   0.646  51.730  1.00  0.00    -0.015 C 
HETATM   19  C16 UNL     1      22.663   1.079  51.609  1.00  0.00     0.029 C 
HETATM   20  C17 UNL     1      23.515   1.903  51.040  1.00  0.00     0.068 C 
HETATM   21  H7  UNL     1      21.129   5.726  49.880  1.00  0.00     0.154 HD
ENDROOT
BRANCH   1  22
HETATM   22  O1  UNL     1      24.922   3.540  50.036  1.00  0.00    -0.354 OA
HETATM   23  C1  UNL     1      24.931   4.955  50.190  1.00  0.00     0.210 C 
ENDBRANCH   1  22
BRANCH  20  24
HETATM   24  N4  UNL     1      24.799   1.603  51.640  1.00  0.00    -0.321 N 
HETATM   25  C18 UNL     1      25.205   2.265  52.840  1.00  0.00     0.245 C 
HETATM   26  O2  UNL     1      24.528   3.130  53.469  1.00  0.00    -0.268 OA
HETATM   27  H16 UNL     1      25.471   0.896  51.218  1.00  0.00     0.169 HD
BRANCH  25  28
HETATM   28  C19 UNL     1      26.511   1.932  53.412  1.00  0.00     0.072 C 
HETATM   29  C20 UNL     1      27.469   1.333  52.747  1.00  0.00     0.013 C 
BRANCH  29  30
HETATM   30  C21 UNL     1      28.795   0.981  53.283  1.00  0.00     0.241 C 
HETATM   31  C22 UNL     1      29.216   1.932  54.392  1.00  0.00     0.047 C 
BRANCH  30  32
HETATM   32  N5  UNL     1      28.727  -0.356  53.829  1.00  0.00     0.087 N 
HETATM   33  C23 UNL     1      27.813  -1.170  53.074  1.00  0.00     0.310 C 
HETATM   34  C24 UNL     1      30.037  -0.973  53.790  1.00  0.00     0.310 C 
ENDBRANCH  30  32
ENDBRANCH  29  30
ENDBRANCH  25  28
ENDBRANCH  20  24
TORSDOF 5
ENDMDL
