MODEL 1
REMARK VINA RESULT:      -7.3      0.000      0.000
REMARK  4 active torsions:
REMARK  status: ('A' for Active; 'I' for Inactive)
REMARK    1  A    between atoms: O1_2  and  C2_3 
REMARK    2  A    between atoms: C4_5  and  O2_6 
REMARK    3  A    between atoms: C12_16  and  O3_17 
REMARK    4  A    between atoms: C12_16  and  O4_19 
ROOT
HETATM    1  C2  UNL     1      26.464  -0.753  53.219  1.00  0.00     0.071 A 
HETATM    2  C3  UNL     1      25.368  -1.169  53.940  1.00  0.00     0.073 A 
HETATM    3  C4  UNL     1      24.244  -0.390  53.837  1.00  0.00     0.071 A 
HETATM    4  C6  UNL     1      24.229   0.733  53.059  1.00  0.00     0.050 A 
HETATM    5  C7  UNL     1      25.354   1.100  52.362  1.00  0.00    -0.002 A 
HETATM    6  C8  UNL     1      25.312   2.288  51.549  1.00  0.00     0.068 C 
HETATM    7  N1  UNL     1      24.517   3.226  51.206  1.00  0.00    -0.241 NA
HETATM    8  C9  UNL     1      23.196   3.239  51.716  1.00  0.00     0.233 C 
HETATM    9  N2  UNL     1      22.589   3.641  50.626  1.00  0.00    -0.254 NA
HETATM   10  C10 UNL     1      23.376   3.889  49.469  1.00  0.00     0.119 C 
HETATM   11  C11 UNL     1      24.437   4.339  48.869  1.00  0.00     0.064 C 
HETATM   12  C12 UNL     1      25.588   4.992  49.567  1.00  0.00     0.204 C 
HETATM   13  C15 UNL     1      26.488   3.894  49.978  1.00  0.00     0.048 C 
HETATM   14  C16 UNL     1      26.391   2.838  50.748  1.00  0.00     0.034 C 
HETATM   15  C17 UNL     1      26.493   0.371  52.423  1.00  0.00     0.050 A 
ENDROOT
BRANCH   3  16
HETATM   16  O2  UNL     1      23.128  -0.820  54.575  1.00  0.00    -0.356 OA
HETATM   17  C5  UNL     1      21.911  -1.150  53.921  1.00  0.00     0.210 C 
ENDBRANCH   3  16
BRANCH   1  18
HETATM   18  O1  UNL     1      27.604  -1.564  53.337  1.00  0.00    -0.356 OA
HETATM   19  C1  UNL     1      28.904  -1.038  53.432  1.00  0.00     0.210 C 
ENDBRANCH   1  18
BRANCH  12  20
HETATM   20  O3  UNL     1      25.199   5.711  50.693  1.00  0.00    -0.353 OA
HETATM   21  C13 UNL     1      24.891   7.024  50.450  1.00  0.00     0.206 C 
ENDBRANCH  12  20
BRANCH  12  22
HETATM   22  O4  UNL     1      26.162   5.819  48.615  1.00  0.00    -0.353 OA
HETATM   23  C14 UNL     1      27.521   5.663  48.448  1.00  0.00     0.206 C 
ENDBRANCH  12  22
TORSDOF 4
ENDMDL
MODEL 2
REMARK VINA RESULT:      -7.1      1.884      2.322
REMARK  4 active torsions:
REMARK  status: ('A' for Active; 'I' for Inactive)
REMARK    1  A    between atoms: O1_2  and  C2_3 
REMARK    2  A    between atoms: C4_5  and  O2_6 
REMARK    3  A    between atoms: C12_16  and  O3_17 
REMARK    4  A    between atoms: C12_16  and  O4_19 
ROOT
HETATM    1  C2  UNL     1      27.802   0.636  53.421  1.00  0.00     0.071 A 
HETATM    2  C3  UNL     1      27.239  -0.173  54.381  1.00  0.00     0.073 A 
HETATM    3  C4  UNL     1      25.869  -0.238  54.392  1.00  0.00     0.071 A 
HETATM    4  C6  UNL     1      25.119   0.468  53.493  1.00  0.00     0.050 A 
HETATM    5  C7  UNL     1      25.736   1.260  52.557  1.00  0.00    -0.002 A 
HETATM    6  C8  UNL     1      24.922   1.994  51.621  1.00  0.00     0.068 C 
HETATM    7  N1  UNL     1      23.699   2.193  51.317  1.00  0.00    -0.241 NA
HETATM    8  C9  UNL     1      22.683   1.544  52.059  1.00  0.00     0.233 C 
HETATM    9  N2  UNL     1      21.880   1.272  51.060  1.00  0.00    -0.254 NA
HETATM   10  C10 UNL     1      22.267   1.676  49.754  1.00  0.00     0.119 C 
HETATM   11  C11 UNL     1      22.790   2.519  48.914  1.00  0.00     0.064 C 
HETATM   12  C12 UNL     1      23.355   3.850  49.295  1.00  0.00     0.204 C 
HETATM   13  C15 UNL     1      24.764   3.601  49.668  1.00  0.00     0.048 C 
HETATM   14  C16 UNL     1      25.384   2.881  50.570  1.00  0.00     0.034 C 
HETATM   15  C17 UNL     1      27.085   1.364  52.497  1.00  0.00     0.050 A 
ENDROOT
BRANCH   3  16
HETATM   16  O2  UNL     1      25.300  -1.067  55.374  1.00  0.00    -0.356 OA
HETATM   17  C5  UNL     1      23.896  -1.279  55.418  1.00  0.00     0.210 C 
ENDBRANCH   3  16
BRANCH   1  18
HETATM   18  O1  UNL     1      29.204   0.689  53.426  1.00  0.00    -0.356 OA
HETATM   19  C1  UNL     1      30.007  -0.459  53.545  1.00  0.00     0.210 C 
ENDBRANCH   1  18
BRANCH  12  20
HETATM   20  O3  UNL     1      22.693   4.430  50.373  1.00  0.00    -0.353 OA
HETATM   21  C13 UNL     1      23.045   5.730  50.624  1.00  0.00     0.206 C 
ENDBRANCH  12  20
BRANCH  12  22
HETATM   22  O4  UNL     1      23.239   4.630  48.155  1.00  0.00    -0.353 OA
HETATM   23  C14 UNL     1      22.203   4.285  47.315  1.00  0.00     0.206 C 
ENDBRANCH  12  22
TORSDOF 4
ENDMDL
MODEL 3
REMARK VINA RESULT:      -7.0      2.066      4.114
REMARK  4 active torsions:
REMARK  status: ('A' for Active; 'I' for Inactive)
REMARK    1  A    between atoms: O1_2  and  C2_3 
REMARK    2  A    between atoms: C4_5  and  O2_6 
REMARK    3  A    between atoms: C12_16  and  O3_17 
REMARK    4  A    between atoms: C12_16  and  O4_19 
ROOT
HETATM    1  C2  UNL     1      26.002  -0.088  54.493  1.00  0.00     0.071 A 
HETATM    2  C3  UNL     1      27.375  -0.013  54.434  1.00  0.00     0.073 A 
HETATM    3  C4  UNL     1      27.897   0.748  53.419  1.00  0.00     0.071 A 
HETATM    4  C6  UNL     1      27.086   1.389  52.525  1.00  0.00     0.050 A 
HETATM    5  C7  UNL     1      25.722   1.277  52.634  1.00  0.00    -0.002 A 
HETATM    6  C8  UNL     1      24.889   1.963  51.678  1.00  0.00     0.068 C 
HETATM    7  N1  UNL     1      24.974   2.721  50.655  1.00  0.00    -0.241 NA
HETATM    8  C9  UNL     1      26.252   3.103  50.177  1.00  0.00     0.233 C 
HETATM    9  N2  UNL     1      25.960   4.343  49.865  1.00  0.00    -0.254 NA
HETATM   10  C10 UNL     1      24.634   4.801  50.091  1.00  0.00     0.119 C 
HETATM   11  C11 UNL     1      23.344   4.649  50.082  1.00  0.00     0.064 C 
HETATM   12  C12 UNL     1      22.642   3.407  49.634  1.00  0.00     0.204 C 
HETATM   13  C15 UNL     1      22.572   2.530  50.821  1.00  0.00     0.048 C 
HETATM   14  C16 UNL     1      23.439   1.963  51.624  1.00  0.00     0.034 C 
HETATM   15  C17 UNL     1      25.148   0.541  53.614  1.00  0.00     0.050 A 
ENDROOT
BRANCH   3  16
HETATM   16  O2  UNL     1      29.300   0.822  53.364  1.00  0.00    -0.356 OA
HETATM   17  C5  UNL     1      30.093  -0.345  53.524  1.00  0.00     0.210 C 
ENDBRANCH   3  16
BRANCH   1  18
HETATM   18  O1  UNL     1      25.488  -0.871  55.539  1.00  0.00    -0.356 OA
HETATM   19  C1  UNL     1      24.159  -1.329  55.562  1.00  0.00     0.210 C 
ENDBRANCH   1  18
BRANCH  12  20
HETATM   20  O3  UNL     1      23.318   2.743  48.615  1.00  0.00    -0.353 OA
HETATM   21  C13 UNL     1      22.510   2.250  47.623  1.00  0.00     0.206 C 
ENDBRANCH  12  20
BRANCH  12  22
HETATM   22  O4  UNL     1      21.392   3.832  49.214  1.00  0.00    -0.353 OA
HETATM   23  C14 UNL     1      20.413   3.813  50.183  1.00  0.00     0.206 C 
ENDBRANCH  12  22
TORSDOF 4
ENDMDL
MODEL 4
REMARK VINA RESULT:      -6.8      1.379      1.616
REMARK  4 active torsions:
REMARK  status: ('A' for Active; 'I' for Inactive)
REMARK    1  A    between atoms: O1_2  and  C2_3 
REMARK    2  A    between atoms: C4_5  and  O2_6 
REMARK    3  A    between atoms: C12_16  and  O3_17 
REMARK    4  A    between atoms: C12_16  and  O4_19 
ROOT
HETATM    1  C2  UNL     1      26.009  -0.337  53.613  1.00  0.00     0.071 A 
HETATM    2  C3  UNL     1      25.032  -0.986  54.332  1.00  0.00     0.073 A 
HETATM    3  C4  UNL     1      23.745  -0.562  54.126  1.00  0.00     0.071 A 
HETATM    4  C6  UNL     1      23.463   0.451  53.252  1.00  0.00     0.050 A 
HETATM    5  C7  UNL     1      24.480   1.063  52.562  1.00  0.00    -0.002 A 
HETATM    6  C8  UNL     1      24.157   2.127  51.646  1.00  0.00     0.068 C 
HETATM    7  N1  UNL     1      23.154   2.777  51.197  1.00  0.00    -0.241 NA
HETATM    8  C9  UNL     1      21.855   2.459  51.662  1.00  0.00     0.233 C 
HETATM    9  N2  UNL     1      21.222   2.592  50.522  1.00  0.00    -0.254 NA
HETATM   10  C10 UNL     1      21.971   2.961  49.373  1.00  0.00     0.119 C 
HETATM   11  C11 UNL     1      22.899   3.644  48.770  1.00  0.00     0.064 C 
HETATM   12  C12 UNL     1      23.785   4.642  49.444  1.00  0.00     0.204 C 
HETATM   13  C15 UNL     1      24.929   3.874  49.979  1.00  0.00     0.048 C 
HETATM   14  C16 UNL     1      25.085   2.894  50.835  1.00  0.00     0.034 C 
HETATM   15  C17 UNL     1      25.771   0.687  52.723  1.00  0.00     0.050 A 
ENDROOT
BRANCH   3  16
HETATM   16  O2  UNL     1      22.751  -1.229  54.864  1.00  0.00    -0.356 OA
HETATM   17  C5  UNL     1      21.375  -1.007  54.591  1.00  0.00     0.210 C 
ENDBRANCH   3  16
BRANCH   1  18
HETATM   18  O1  UNL     1      27.320  -0.786  53.838  1.00  0.00    -0.356 OA
HETATM   19  C1  UNL     1      28.377   0.085  54.155  1.00  0.00     0.210 C 
ENDBRANCH   1  18
BRANCH  12  20
HETATM   20  O3  UNL     1      23.152   5.307  50.489  1.00  0.00    -0.353 OA
HETATM   21  C13 UNL     1      23.901   6.298  51.069  1.00  0.00     0.206 C 
ENDBRANCH  12  20
BRANCH  12  22
HETATM   22  O4  UNL     1      24.161   5.523  48.442  1.00  0.00    -0.353 OA
HETATM   23  C14 UNL     1      23.129   5.991  47.659  1.00  0.00     0.206 C 
ENDBRANCH  12  22
TORSDOF 4
ENDMDL
MODEL 5
REMARK VINA RESULT:      -6.7      2.159      6.872
REMARK  4 active torsions:
REMARK  status: ('A' for Active; 'I' for Inactive)
REMARK    1  A    between atoms: O1_2  and  C2_3 
REMARK    2  A    between atoms: C4_5  and  O2_6 
REMARK    3  A    between atoms: C12_16  and  O3_17 
REMARK    4  A    between atoms: C12_16  and  O4_19 
ROOT
HETATM    1  C2  UNL     1      28.412   5.704  48.200  1.00  0.00     0.071 A 
HETATM    2  C3  UNL     1      27.888   6.901  47.768  1.00  0.00     0.073 A 
HETATM    3  C4  UNL     1      26.592   7.162  48.133  1.00  0.00     0.071 A 
HETATM    4  C6  UNL     1      25.875   6.273  48.884  1.00  0.00     0.050 A 
HETATM    5  C7  UNL     1      26.451   5.093  49.287  1.00  0.00    -0.002 A 
HETATM    6  C8  UNL     1      25.673   4.174  50.078  1.00  0.00     0.068 C 
HETATM    7  N1  UNL     1      24.513   4.048  50.596  1.00  0.00    -0.241 NA
HETATM    8  C9  UNL     1      23.558   5.079  50.419  1.00  0.00     0.233 C 
HETATM    9  N2  UNL     1      23.035   5.043  51.621  1.00  0.00    -0.254 NA
HETATM   10  C10 UNL     1      23.549   4.102  52.552  1.00  0.00     0.119 C 
HETATM   11  C11 UNL     1      24.006   2.928  52.874  1.00  0.00     0.064 C 
HETATM   12  C12 UNL     1      24.168   1.792  51.915  1.00  0.00     0.204 C 
HETATM   13  C15 UNL     1      25.504   1.963  51.307  1.00  0.00     0.048 C 
HETATM   14  C16 UNL     1      26.099   2.885  50.590  1.00  0.00     0.034 C 
HETATM   15  C17 UNL     1      27.726   4.780  48.958  1.00  0.00     0.050 A 
ENDROOT
BRANCH   3  16
HETATM   16  O2  UNL     1      26.062   8.386  47.689  1.00  0.00    -0.356 OA
HETATM   17  C5  UNL     1      26.013   9.510  48.556  1.00  0.00     0.210 C 
ENDBRANCH   3  16
BRANCH   1  18
HETATM   18  O1  UNL     1      29.739   5.456  47.817  1.00  0.00    -0.356 OA
HETATM   19  C1  UNL     1      30.840   6.049  48.460  1.00  0.00     0.210 C 
ENDBRANCH   1  18
BRANCH  12  20
HETATM   20  O3  UNL     1      23.205   1.792  50.911  1.00  0.00    -0.353 OA
HETATM   21  C13 UNL     1      22.130   0.977  51.155  1.00  0.00     0.206 C 
ENDBRANCH  12  20
BRANCH  12  22
HETATM   22  O4  UNL     1      24.083   0.649  52.695  1.00  0.00    -0.353 OA
HETATM   23  C14 UNL     1      25.207   0.365  53.439  1.00  0.00     0.206 C 
ENDBRANCH  12  22
TORSDOF 4
ENDMDL
MODEL 6
REMARK VINA RESULT:      -6.6      5.531      9.154
REMARK  4 active torsions:
REMARK  status: ('A' for Active; 'I' for Inactive)
REMARK    1  A    between atoms: O1_2  and  C2_3 
REMARK    2  A    between atoms: C4_5  and  O2_6 
REMARK    3  A    between atoms: C12_16  and  O3_17 
REMARK    4  A    between atoms: C12_16  and  O4_19 
ROOT
HETATM    1  C2  UNL     1      27.191   5.358  48.699  1.00  0.00     0.071 A 
HETATM    2  C3  UNL     1      26.622   6.609  48.772  1.00  0.00     0.073 A 
HETATM    3  C4  UNL     1      27.451   7.669  48.507  1.00  0.00     0.071 A 
HETATM    4  C6  UNL     1      28.767   7.477  48.190  1.00  0.00     0.050 A 
HETATM    5  C7  UNL     1      29.279   6.204  48.132  1.00  0.00    -0.002 A 
HETATM    6  C8  UNL     1      30.670   6.029  47.795  1.00  0.00     0.068 C 
HETATM    7  N1  UNL     1      31.710   6.707  47.498  1.00  0.00    -0.241 NA
HETATM    8  C9  UNL     1      31.626   8.120  47.442  1.00  0.00     0.233 C 
HETATM    9  N2  UNL     1      32.395   8.301  46.396  1.00  0.00    -0.254 NA
HETATM   10  C10 UNL     1      32.966   7.158  45.772  1.00  0.00     0.119 C 
HETATM   11  C11 UNL     1      33.529   5.988  45.803  1.00  0.00     0.064 C 
HETATM   12  C12 UNL     1      33.854   5.239  47.056  1.00  0.00     0.204 C 
HETATM   13  C15 UNL     1      32.635   4.478  47.400  1.00  0.00     0.048 C 
HETATM   14  C16 UNL     1      31.392   4.775  47.690  1.00  0.00     0.034 C 
HETATM   15  C17 UNL     1      28.510   5.119  48.383  1.00  0.00     0.050 A 
ENDROOT
BRANCH   3  16
HETATM   16  O2  UNL     1      26.864   8.944  48.583  1.00  0.00    -0.356 OA
HETATM   17  C5  UNL     1      26.028   9.292  49.676  1.00  0.00     0.210 C 
ENDBRANCH   3  16
BRANCH   1  18
HETATM   18  O1  UNL     1      26.326   4.288  48.973  1.00  0.00    -0.356 OA
HETATM   19  C1  UNL     1      26.456   3.479  50.115  1.00  0.00     0.210 C 
ENDBRANCH   1  18
BRANCH  12  20
HETATM   20  O3  UNL     1      34.185   6.077  48.116  1.00  0.00    -0.353 OA
HETATM   21  C13 UNL     1      35.374   5.779  48.727  1.00  0.00     0.206 C 
ENDBRANCH  12  20
BRANCH  12  22
HETATM   22  O4  UNL     1      34.915   4.415  46.717  1.00  0.00    -0.353 OA
HETATM   23  C14 UNL     1      34.926   3.985  45.408  1.00  0.00     0.206 C 
ENDBRANCH  12  22
TORSDOF 4
ENDMDL
MODEL 7
REMARK VINA RESULT:      -6.2      1.566      1.952
REMARK  4 active torsions:
REMARK  status: ('A' for Active; 'I' for Inactive)
REMARK    1  A    between atoms: O1_2  and  C2_3 
REMARK    2  A    between atoms: C4_5  and  O2_6 
REMARK    3  A    between atoms: C12_16  and  O3_17 
REMARK    4  A    between atoms: C12_16  and  O4_19 
ROOT
HETATM    1  C2  UNL     1      25.945   0.686  52.098  1.00  0.00     0.071 A 
HETATM    2  C3  UNL     1      24.818   0.369  52.821  1.00  0.00     0.073 A 
HETATM    3  C4  UNL     1      23.802   1.290  52.794  1.00  0.00     0.071 A 
HETATM    4  C6  UNL     1      23.917   2.452  52.085  1.00  0.00     0.050 A 
HETATM    5  C7  UNL     1      25.067   2.715  51.382  1.00  0.00    -0.002 A 
HETATM    6  C8  UNL     1      25.163   3.948  50.641  1.00  0.00     0.068 C 
HETATM    7  N1  UNL     1      24.489   4.998  50.375  1.00  0.00    -0.241 NA
HETATM    8  C9  UNL     1      23.190   5.147  50.920  1.00  0.00     0.233 C 
HETATM    9  N2  UNL     1      22.620   5.690  49.872  1.00  0.00    -0.254 NA
HETATM   10  C10 UNL     1      23.411   5.907  48.711  1.00  0.00     0.119 C 
HETATM   11  C11 UNL     1      24.510   6.255  48.112  1.00  0.00     0.064 C 
HETATM   12  C12 UNL     1      25.748   6.712  48.817  1.00  0.00     0.204 C 
HETATM   13  C15 UNL     1      26.506   5.485  49.139  1.00  0.00     0.048 C 
HETATM   14  C16 UNL     1      26.289   4.404  49.847  1.00  0.00     0.034 C 
HETATM   15  C17 UNL     1      26.104   1.844  51.369  1.00  0.00     0.050 A 
ENDROOT
BRANCH   3  16
HETATM   16  O2  UNL     1      22.653   0.960  53.535  1.00  0.00    -0.356 OA
HETATM   17  C5  UNL     1      21.756  -0.039  53.072  1.00  0.00     0.210 C 
ENDBRANCH   3  16
BRANCH   1  18
HETATM   18  O1  UNL     1      26.973  -0.269  52.138  1.00  0.00    -0.356 OA
HETATM   19  C1  UNL     1      26.762  -1.595  52.553  1.00  0.00     0.210 C 
ENDBRANCH   1  18
BRANCH  12  20
HETATM   20  O3  UNL     1      25.476   7.403  49.993  1.00  0.00    -0.353 OA
HETATM   21  C13 UNL     1      26.409   8.350  50.325  1.00  0.00     0.206 C 
ENDBRANCH  12  20
BRANCH  12  22
HETATM   22  O4  UNL     1      26.406   7.517  47.901  1.00  0.00    -0.353 OA
HETATM   23  C14 UNL     1      27.654   7.071  47.523  1.00  0.00     0.206 C 
ENDBRANCH  12  22
TORSDOF 4
ENDMDL
MODEL 8
REMARK VINA RESULT:      -6.2      4.986      8.675
REMARK  4 active torsions:
REMARK  status: ('A' for Active; 'I' for Inactive)
REMARK    1  A    between atoms: O1_2  and  C2_3 
REMARK    2  A    between atoms: C4_5  and  O2_6 
REMARK    3  A    between atoms: C12_16  and  O3_17 
REMARK    4  A    between atoms: C12_16  and  O4_19 
ROOT
HETATM    1  C2  UNL     1      26.347   6.900  48.639  1.00  0.00     0.071 A 
HETATM    2  C3  UNL     1      26.056   5.611  49.021  1.00  0.00     0.073 A 
HETATM    3  C4  UNL     1      27.078   4.702  48.918  1.00  0.00     0.071 A 
HETATM    4  C6  UNL     1      28.311   5.072  48.460  1.00  0.00     0.050 A 
HETATM    5  C7  UNL     1      28.544   6.374  48.092  1.00  0.00    -0.002 A 
HETATM    6  C8  UNL     1      29.853   6.738  47.613  1.00  0.00     0.068 C 
HETATM    7  N1  UNL     1      31.000   6.229  47.381  1.00  0.00    -0.241 NA
HETATM    8  C9  UNL     1      31.212   4.851  47.631  1.00  0.00     0.233 C 
HETATM    9  N2  UNL     1      32.426   4.944  48.117  1.00  0.00    -0.254 NA
HETATM   10  C10 UNL     1      33.019   6.231  48.207  1.00  0.00     0.119 C 
HETATM   11  C11 UNL     1      33.268   7.422  47.749  1.00  0.00     0.064 C 
HETATM   12  C12 UNL     1      32.765   7.946  46.442  1.00  0.00     0.204 C 
HETATM   13  C15 UNL     1      31.429   8.512  46.720  1.00  0.00     0.048 C 
HETATM   14  C16 UNL     1      30.289   8.051  47.175  1.00  0.00     0.034 C 
HETATM   15  C17 UNL     1      27.574   7.316  48.172  1.00  0.00     0.050 A 
ENDROOT
BRANCH   3  16
HETATM   16  O2  UNL     1      26.774   3.387  49.311  1.00  0.00    -0.356 OA
HETATM   17  C5  UNL     1      26.076   3.135  50.521  1.00  0.00     0.210 C 
ENDBRANCH   3  16
BRANCH   1  18
HETATM   18  O1  UNL     1      25.288   7.814  48.752  1.00  0.00    -0.356 OA
HETATM   19  C1  UNL     1      24.690   8.135  49.982  1.00  0.00     0.210 C 
ENDBRANCH   1  18
BRANCH  12  20
HETATM   20  O3  UNL     1      32.651   6.957  45.471  1.00  0.00    -0.353 OA
HETATM   21  C13 UNL     1      33.675   6.932  44.561  1.00  0.00     0.206 C 
ENDBRANCH  12  20
BRANCH  12  22
HETATM   22  O4  UNL     1      33.683   8.915  46.067  1.00  0.00    -0.353 OA
HETATM   23  C14 UNL     1      33.462  10.166  46.600  1.00  0.00     0.206 C 
ENDBRANCH  12  22
TORSDOF 4
ENDMDL
MODEL 9
REMARK VINA RESULT:      -6.1      4.160      7.651
REMARK  4 active torsions:
REMARK  status: ('A' for Active; 'I' for Inactive)
REMARK    1  A    between atoms: O1_2  and  C2_3 
REMARK    2  A    between atoms: C4_5  and  O2_6 
REMARK    3  A    between atoms: C12_16  and  O3_17 
REMARK    4  A    between atoms: C12_16  and  O4_19 
ROOT
HETATM    1  C2  UNL     1      28.914   7.841  47.401  1.00  0.00     0.071 A 
HETATM    2  C3  UNL     1      29.917   6.902  47.333  1.00  0.00     0.073 A 
HETATM    3  C4  UNL     1      29.636   5.674  47.875  1.00  0.00     0.071 A 
HETATM    4  C6  UNL     1      28.422   5.413  48.447  1.00  0.00     0.050 A 
HETATM    5  C7  UNL     1      27.458   6.390  48.485  1.00  0.00    -0.002 A 
HETATM    6  C8  UNL     1      26.186   6.089  49.093  1.00  0.00     0.068 C 
HETATM    7  N1  UNL     1      25.566   5.136  49.672  1.00  0.00    -0.241 NA
HETATM    8  C9  UNL     1      26.218   3.891  49.852  1.00  0.00     0.233 C 
HETATM    9  N2  UNL     1      25.189   3.117  49.605  1.00  0.00    -0.254 NA
HETATM   10  C10 UNL     1      23.946   3.727  49.286  1.00  0.00     0.119 C 
HETATM   11  C11 UNL     1      23.036   4.641  49.443  1.00  0.00     0.064 C 
HETATM   12  C12 UNL     1      23.120   5.756  50.435  1.00  0.00     0.204 C 
HETATM   13  C15 UNL     1      23.860   6.844  49.760  1.00  0.00     0.048 C 
HETATM   14  C16 UNL     1      25.052   6.984  49.235  1.00  0.00     0.034 C 
HETATM   15  C17 UNL     1      27.677   7.621  47.967  1.00  0.00     0.050 A 
ENDROOT
BRANCH   3  16
HETATM   16  O2  UNL     1      30.664   4.718  47.803  1.00  0.00    -0.356 OA
HETATM   17  C5  UNL     1      32.020   5.099  47.986  1.00  0.00     0.210 C 
ENDBRANCH   3  16
BRANCH   1  18
HETATM   18  O1  UNL     1      29.222   9.090  46.840  1.00  0.00    -0.356 OA
HETATM   19  C1  UNL     1      28.252   9.915  46.243  1.00  0.00     0.210 C 
ENDBRANCH   1  18
BRANCH  12  20
HETATM   20  O3  UNL     1      23.796   5.396  51.596  1.00  0.00    -0.353 OA
HETATM   21  C13 UNL     1      23.023   4.751  52.527  1.00  0.00     0.206 C 
ENDBRANCH  12  20
BRANCH  12  22
HETATM   22  O4  UNL     1      21.804   6.099  50.704  1.00  0.00    -0.353 OA
HETATM   23  C14 UNL     1      21.522   7.444  50.620  1.00  0.00     0.206 C 
ENDBRANCH  12  22
TORSDOF 4
ENDMDL
