MODEL 1
REMARK VINA RESULT:      -8.1      0.000      0.000
REMARK  6 active torsions:
REMARK  status: ('A' for Active; 'I' for Inactive)
REMARK    1  A    between atoms: C2_2  and  C3_3 
REMARK    2  A    between atoms: C3_3  and  C4_4 
REMARK    3  A    between atoms: C4_4  and  C5_5 
REMARK    4  A    between atoms: C4_4  and  C7_7 
REMARK    5  A    between atoms: C7_7  and  N1_8 
REMARK       I    between atoms: N1_8  and  C8_9 
REMARK    6  A    between atoms: C8_9  and  C9_11 
ROOT
HETATM    1  C9  UNL     1      25.384   5.452  50.035  1.00  0.00     0.122 C 
HETATM    2  C10 UNL     1      24.263   5.550  50.725  1.00  0.00     0.022 C 
HETATM    3  C11 UNL     1      23.516   6.818  50.849  1.00  0.00     0.069 C 
HETATM    4  N2  UNL     1      23.732   4.334  51.327  1.00  0.00    -0.389 N 
HETATM    5  C12 UNL     1      22.829   3.607  50.404  1.00  0.00     0.147 C 
HETATM    6  C13 UNL     1      23.017   2.121  50.653  1.00  0.00    -0.007 C 
HETATM    7  C14 UNL     1      23.823   1.594  51.545  1.00  0.00     0.011 C 
HETATM    8  C15 UNL     1      24.631   0.794  52.444  1.00  0.00    -0.008 A 
HETATM    9  C16 UNL     1      24.155   0.037  53.473  1.00  0.00     0.014 A 
HETATM   10  C17 UNL     1      25.064  -0.711  54.185  1.00  0.00     0.001 A 
HETATM   11  C18 UNL     1      26.373  -0.613  53.780  1.00  0.00     0.002 A 
HETATM   12  C19 UNL     1      26.883   0.138  52.752  1.00  0.00     0.032 A 
HETATM   13  C20 UNL     1      25.966   0.886  52.043  1.00  0.00     0.058 A 
HETATM   14  N3  UNL     1      26.569   1.687  51.022  1.00  0.00    -0.297 N 
HETATM   15  N4  UNL     1      26.392   2.956  50.524  1.00  0.00    -0.265 N 
HETATM   16  C21 UNL     1      26.211   4.252  50.014  1.00  0.00     0.277 C 
HETATM   17  O2  UNL     1      27.237   3.952  49.381  1.00  0.00    -0.266 OA
HETATM   18  H20 UNL     1      24.258   4.544  52.204  1.00  0.00     0.159 HD
HETATM   19  H29 UNL     1      27.339   1.358  50.433  1.00  0.00     0.187 HD
HETATM   20  H30 UNL     1      25.639   3.165  51.129  1.00  0.00     0.190 HD
ENDROOT
BRANCH   1  21
HETATM   21  C8  UNL     1      26.086   6.429  49.307  1.00  0.00     0.259 C 
HETATM   22  N1  UNL     1      27.277   7.130  49.321  1.00  0.00    -0.356 N 
HETATM   23  H16 UNL     1      27.815   6.788  50.154  1.00  0.00     0.162 HD
HETATM   24  O1  UNL     1      25.670   6.988  48.258  1.00  0.00    -0.267 OA
BRANCH  22  25
HETATM   25  C7  UNL     1      27.878   8.154  48.456  1.00  0.00     0.127 C 
BRANCH  25  26
HETATM   26  C4  UNL     1      29.022   7.654  47.682  1.00  0.00     0.003 C 
BRANCH  26  27
HETATM   27  C3  UNL     1      29.326   6.216  47.837  1.00  0.00     0.006 C 
BRANCH  27  28
HETATM   28  C2  UNL     1      30.622   5.754  48.377  1.00  0.00    -0.004 C 
HETATM   29  C1  UNL     1      31.438   4.860  47.501  1.00  0.00     0.005 C 
ENDBRANCH  27  28
ENDBRANCH  26  27
BRANCH  26  30
HETATM   30  C5  UNL     1      28.810   7.956  46.170  1.00  0.00     0.002 C 
HETATM   31  C6  UNL     1      30.140   8.136  45.487  1.00  0.00     0.005 C 
ENDBRANCH  26  30
ENDBRANCH  25  26
ENDBRANCH  22  25
ENDBRANCH   1  21
TORSDOF 6
ENDMDL
MODEL 2
REMARK VINA RESULT:      -8.0      0.914      1.618
REMARK  6 active torsions:
REMARK  status: ('A' for Active; 'I' for Inactive)
REMARK    1  A    between atoms: C2_2  and  C3_3 
REMARK    2  A    between atoms: C3_3  and  C4_4 
REMARK    3  A    between atoms: C4_4  and  C5_5 
REMARK    4  A    between atoms: C4_4  and  C7_7 
REMARK    5  A    between atoms: C7_7  and  N1_8 
REMARK       I    between atoms: N1_8  and  C8_9 
REMARK    6  A    between atoms: C8_9  and  C9_11 
ROOT
HETATM    1  C9  UNL     1      25.342   5.232  50.034  1.00  0.00     0.122 C 
HETATM    2  C10 UNL     1      24.227   5.397  50.722  1.00  0.00     0.022 C 
HETATM    3  C11 UNL     1      23.533   6.697  50.807  1.00  0.00     0.069 C 
HETATM    4  N2  UNL     1      23.649   4.223  51.363  1.00  0.00    -0.389 N 
HETATM    5  C12 UNL     1      22.715   3.504  50.465  1.00  0.00     0.147 C 
HETATM    6  C13 UNL     1      22.844   2.021  50.761  1.00  0.00    -0.007 C 
HETATM    7  C14 UNL     1      23.629   1.490  51.668  1.00  0.00     0.011 C 
HETATM    8  C15 UNL     1      24.407   0.687  52.590  1.00  0.00    -0.008 A 
HETATM    9  C16 UNL     1      23.903  -0.017  53.643  1.00  0.00     0.014 A 
HETATM   10  C17 UNL     1      24.783  -0.778  54.378  1.00  0.00     0.001 A 
HETATM   11  C18 UNL     1      26.093  -0.747  53.968  1.00  0.00     0.002 A 
HETATM   12  C19 UNL     1      26.631  -0.050  52.916  1.00  0.00     0.032 A 
HETATM   13  C20 UNL     1      25.743   0.711  52.185  1.00  0.00     0.058 A 
HETATM   14  N3  UNL     1      26.376   1.455  51.139  1.00  0.00    -0.297 N 
HETATM   15  N4  UNL     1      26.249   2.714  50.601  1.00  0.00    -0.265 N 
HETATM   16  C21 UNL     1      26.119   3.999  50.051  1.00  0.00     0.277 C 
HETATM   17  O2  UNL     1      27.131   3.638  49.426  1.00  0.00    -0.266 OA
HETATM   18  H20 UNL     1      24.185   4.440  52.233  1.00  0.00     0.159 HD
HETATM   19  H29 UNL     1      27.131   1.077  50.560  1.00  0.00     0.187 HD
HETATM   20  H30 UNL     1      25.506   2.972  51.200  1.00  0.00     0.190 HD
ENDROOT
BRANCH   1  21
HETATM   21  C8  UNL     1      26.082   6.156  49.275  1.00  0.00     0.259 C 
HETATM   22  N1  UNL     1      27.305   6.800  49.259  1.00  0.00    -0.356 N 
HETATM   23  H16 UNL     1      27.835   6.453  50.095  1.00  0.00     0.162 HD
HETATM   24  O1  UNL     1      25.680   6.709  48.217  1.00  0.00    -0.267 OA
BRANCH  22  25
HETATM   25  C7  UNL     1      27.943   7.773  48.364  1.00  0.00     0.127 C 
BRANCH  25  26
HETATM   26  C4  UNL     1      29.155   7.251  47.718  1.00  0.00     0.003 C 
BRANCH  26  27
HETATM   27  C3  UNL     1      30.389   8.038  47.928  1.00  0.00     0.006 C 
BRANCH  27  28
HETATM   28  C2  UNL     1      30.648   8.742  49.200  1.00  0.00    -0.004 C 
HETATM   29  C1  UNL     1      30.692  10.236  49.149  1.00  0.00     0.005 C 
ENDBRANCH  27  28
ENDBRANCH  26  27
BRANCH  26  30
HETATM   30  C5  UNL     1      29.415   5.788  48.183  1.00  0.00     0.002 C 
HETATM   31  C6  UNL     1      30.804   5.359  47.790  1.00  0.00     0.005 C 
ENDBRANCH  26  30
ENDBRANCH  25  26
ENDBRANCH  22  25
ENDBRANCH   1  21
TORSDOF 6
ENDMDL
MODEL 3
REMARK VINA RESULT:      -7.7      1.743      2.736
REMARK  6 active torsions:
REMARK  status: ('A' for Active; 'I' for Inactive)
REMARK    1  A    between atoms: C2_2  and  C3_3 
REMARK    2  A    between atoms: C3_3  and  C4_4 
REMARK    3  A    between atoms: C4_4  and  C5_5 
REMARK    4  A    between atoms: C4_4  and  C7_7 
REMARK    5  A    between atoms: C7_7  and  N1_8 
REMARK       I    between atoms: N1_8  and  C8_9 
REMARK    6  A    between atoms: C8_9  and  C9_11 
ROOT
HETATM    1  C9  UNL     1      23.750   4.382  50.969  1.00  0.00     0.122 C 
HETATM    2  C10 UNL     1      22.498   4.375  51.391  1.00  0.00     0.022 C 
HETATM    3  C11 UNL     1      21.601   5.536  51.236  1.00  0.00     0.069 C 
HETATM    4  N2  UNL     1      21.991   3.139  51.975  1.00  0.00    -0.389 N 
HETATM    5  C12 UNL     1      21.408   2.241  50.950  1.00  0.00     0.147 C 
HETATM    6  C13 UNL     1      21.707   0.812  51.370  1.00  0.00    -0.007 C 
HETATM    7  C14 UNL     1      22.347   0.456  52.458  1.00  0.00     0.011 C 
HETATM    8  C15 UNL     1      23.021  -0.170  53.578  1.00  0.00    -0.008 A 
HETATM    9  C16 UNL     1      22.417  -0.917  54.546  1.00  0.00     0.014 A 
HETATM   10  C17 UNL     1      23.224  -1.489  55.502  1.00  0.00     0.001 A 
HETATM   11  C18 UNL     1      24.569  -1.245  55.380  1.00  0.00     0.002 A 
HETATM   12  C19 UNL     1      25.207  -0.499  54.420  1.00  0.00     0.032 A 
HETATM   13  C20 UNL     1      24.392   0.072  53.466  1.00  0.00     0.058 A 
HETATM   14  N3  UNL     1      25.111   0.880  52.529  1.00  0.00    -0.297 N 
HETATM   15  N4  UNL     1      24.904   2.079  51.890  1.00  0.00    -0.265 N 
HETATM   16  C21 UNL     1      24.693   3.304  51.237  1.00  0.00     0.277 C 
HETATM   17  O2  UNL     1      25.863   3.104  50.868  1.00  0.00    -0.266 OA
HETATM   18  H20 UNL     1      22.279   3.474  52.921  1.00  0.00     0.159 HD
HETATM   19  H29 UNL     1      26.026   0.620  52.151  1.00  0.00     0.187 HD
HETATM   20  H30 UNL     1      24.016   2.225  52.298  1.00  0.00     0.190 HD
ENDROOT
BRANCH   1  21
HETATM   21  C8  UNL     1      24.479   5.396  50.322  1.00  0.00     0.259 C 
HETATM   22  N1  UNL     1      25.765   5.892  50.213  1.00  0.00    -0.356 N 
HETATM   23  H16 UNL     1      26.372   5.282  50.812  1.00  0.00     0.162 HD
HETATM   24  O1  UNL     1      23.991   6.250  49.536  1.00  0.00    -0.267 OA
BRANCH  22  25
HETATM   25  C7  UNL     1      26.380   6.999  49.469  1.00  0.00     0.127 C 
BRANCH  25  26
HETATM   26  C4  UNL     1      27.078   6.557  48.254  1.00  0.00     0.003 C 
BRANCH  26  27
HETATM   27  C3  UNL     1      28.035   7.523  47.673  1.00  0.00     0.006 C 
BRANCH  27  28
HETATM   28  C2  UNL     1      27.747   8.230  46.409  1.00  0.00    -0.004 C 
HETATM   29  C1  UNL     1      26.312   8.519  46.107  1.00  0.00     0.005 C 
ENDBRANCH  27  28
ENDBRANCH  26  27
BRANCH  26  30
HETATM   30  C5  UNL     1      27.827   5.221  48.530  1.00  0.00     0.002 C 
HETATM   31  C6  UNL     1      29.292   5.374  48.214  1.00  0.00     0.005 C 
ENDBRANCH  26  30
ENDBRANCH  25  26
ENDBRANCH  22  25
ENDBRANCH   1  21
TORSDOF 6
ENDMDL
MODEL 4
REMARK VINA RESULT:      -7.7      1.624      8.171
REMARK  6 active torsions:
REMARK  status: ('A' for Active; 'I' for Inactive)
REMARK    1  A    between atoms: C2_2  and  C3_3 
REMARK    2  A    between atoms: C3_3  and  C4_4 
REMARK    3  A    between atoms: C4_4  and  C5_5 
REMARK    4  A    between atoms: C4_4  and  C7_7 
REMARK    5  A    between atoms: C7_7  and  N1_8 
REMARK       I    between atoms: N1_8  and  C8_9 
REMARK    6  A    between atoms: C8_9  and  C9_11 
ROOT
HETATM    1  C9  UNL     1      24.879   4.624  49.763  1.00  0.00     0.122 C 
HETATM    2  C10 UNL     1      24.238   5.674  49.282  1.00  0.00     0.022 C 
HETATM    3  C11 UNL     1      22.767   5.726  49.179  1.00  0.00     0.069 C 
HETATM    4  N2  UNL     1      25.034   6.834  48.902  1.00  0.00    -0.389 N 
HETATM    5  C12 UNL     1      25.233   7.766  50.037  1.00  0.00     0.147 C 
HETATM    6  C13 UNL     1      26.619   8.370  49.896  1.00  0.00    -0.007 C 
HETATM    7  C14 UNL     1      27.465   8.118  48.925  1.00  0.00     0.011 C 
HETATM    8  C15 UNL     1      28.551   7.997  47.973  1.00  0.00    -0.008 A 
HETATM    9  C16 UNL     1      28.969   8.976  47.122  1.00  0.00     0.014 A 
HETATM   10  C17 UNL     1      30.060   8.706  46.329  1.00  0.00     0.001 A 
HETATM   11  C18 UNL     1      30.619   7.461  46.479  1.00  0.00     0.002 A 
HETATM   12  C19 UNL     1      30.223   6.455  47.323  1.00  0.00     0.032 A 
HETATM   13  C20 UNL     1      29.128   6.733  48.114  1.00  0.00     0.058 A 
HETATM   14  N3  UNL     1      28.733   5.625  48.930  1.00  0.00    -0.297 N 
HETATM   15  N4  UNL     1      27.545   5.065  49.332  1.00  0.00    -0.265 N 
HETATM   16  C21 UNL     1      26.330   4.492  49.744  1.00  0.00     0.277 C 
HETATM   17  O2  UNL     1      27.100   3.632  50.206  1.00  0.00    -0.266 OA
HETATM   18  H20 UNL     1      25.101   6.462  47.928  1.00  0.00     0.159 HD
HETATM   19  H29 UNL     1      29.402   5.007  49.397  1.00  0.00     0.187 HD
HETATM   20  H30 UNL     1      26.988   5.730  48.858  1.00  0.00     0.190 HD
ENDROOT
BRANCH   1  21
HETATM   21  C8  UNL     1      24.377   3.407  50.258  1.00  0.00     0.259 C 
HETATM   22  N1  UNL     1      24.320   2.660  51.420  1.00  0.00    -0.356 N 
HETATM   23  H16 UNL     1      24.812   3.220  52.158  1.00  0.00     0.162 HD
HETATM   24  O1  UNL     1      23.735   2.560  49.581  1.00  0.00    -0.267 OA
BRANCH  22  25
HETATM   25  C7  UNL     1      23.739   1.361  51.780  1.00  0.00     0.127 C 
BRANCH  25  26
HETATM   26  C4  UNL     1      24.476   0.678  52.852  1.00  0.00     0.003 C 
BRANCH  26  27
HETATM   27  C3  UNL     1      23.801  -0.490  53.457  1.00  0.00     0.006 C 
BRANCH  27  28
HETATM   28  C2  UNL     1      22.356  -0.731  53.267  1.00  0.00    -0.004 C 
HETATM   29  C1  UNL     1      21.601  -1.270  54.439  1.00  0.00     0.005 C 
ENDBRANCH  27  28
ENDBRANCH  26  27
BRANCH  26  30
HETATM   30  C5  UNL     1      25.872   0.231  52.333  1.00  0.00     0.002 C 
HETATM   31  C6  UNL     1      26.309  -1.027  53.039  1.00  0.00     0.005 C 
ENDBRANCH  26  30
ENDBRANCH  25  26
ENDBRANCH  22  25
ENDBRANCH   1  21
TORSDOF 6
ENDMDL
MODEL 5
REMARK VINA RESULT:      -7.4      1.560      2.345
REMARK  6 active torsions:
REMARK  status: ('A' for Active; 'I' for Inactive)
REMARK    1  A    between atoms: C2_2  and  C3_3 
REMARK    2  A    between atoms: C3_3  and  C4_4 
REMARK    3  A    between atoms: C4_4  and  C5_5 
REMARK    4  A    between atoms: C4_4  and  C7_7 
REMARK    5  A    between atoms: C7_7  and  N1_8 
REMARK       I    between atoms: N1_8  and  C8_9 
REMARK    6  A    between atoms: C8_9  and  C9_11 
ROOT
HETATM    1  C9  UNL     1      25.477   5.478  49.981  1.00  0.00     0.122 C 
HETATM    2  C10 UNL     1      24.362   5.597  50.678  1.00  0.00     0.022 C 
HETATM    3  C11 UNL     1      23.634   6.875  50.799  1.00  0.00     0.069 C 
HETATM    4  N2  UNL     1      23.819   4.392  51.292  1.00  0.00    -0.389 N 
HETATM    5  C12 UNL     1      22.900   3.672  50.380  1.00  0.00     0.147 C 
HETATM    6  C13 UNL     1      23.069   2.185  50.638  1.00  0.00    -0.007 C 
HETATM    7  C14 UNL     1      23.874   1.653  51.528  1.00  0.00     0.011 C 
HETATM    8  C15 UNL     1      24.677   0.848  52.426  1.00  0.00    -0.008 A 
HETATM    9  C16 UNL     1      24.198   0.104  53.463  1.00  0.00     0.014 A 
HETATM   10  C17 UNL     1      25.102  -0.652  54.174  1.00  0.00     0.001 A 
HETATM   11  C18 UNL     1      26.408  -0.575  53.759  1.00  0.00     0.002 A 
HETATM   12  C19 UNL     1      26.922   0.162  52.722  1.00  0.00     0.032 A 
HETATM   13  C20 UNL     1      26.010   0.918  52.015  1.00  0.00     0.058 A 
HETATM   14  N3  UNL     1      26.617   1.704  50.985  1.00  0.00    -0.297 N 
HETATM   15  N4  UNL     1      26.454   2.972  50.480  1.00  0.00    -0.265 N 
HETATM   16  C21 UNL     1      26.287   4.267  49.963  1.00  0.00     0.277 C 
HETATM   17  O2  UNL     1      27.305   3.948  49.324  1.00  0.00    -0.266 OA
HETATM   18  H20 UNL     1      24.355   4.601  52.164  1.00  0.00     0.159 HD
HETATM   19  H29 UNL     1      27.378   1.361  50.393  1.00  0.00     0.187 HD
HETATM   20  H30 UNL     1      25.708   3.196  51.088  1.00  0.00     0.190 HD
ENDROOT
BRANCH   1  21
HETATM   21  C8  UNL     1      26.188   6.441  49.242  1.00  0.00     0.259 C 
HETATM   22  N1  UNL     1      27.318   7.234  49.315  1.00  0.00    -0.356 N 
HETATM   23  H16 UNL     1      27.780   7.010  50.230  1.00  0.00     0.162 HD
HETATM   24  O1  UNL     1      25.856   6.871  48.105  1.00  0.00    -0.267 OA
BRANCH  22  25
HETATM   25  C7  UNL     1      27.940   8.223  48.426  1.00  0.00     0.127 C 
BRANCH  25  26
HETATM   26  C4  UNL     1      27.645   9.609  48.812  1.00  0.00     0.003 C 
BRANCH  26  27
HETATM   27  C3  UNL     1      28.811  10.436  49.189  1.00  0.00     0.006 C 
BRANCH  27  28
HETATM   28  C2  UNL     1      29.851  10.799  48.206  1.00  0.00    -0.004 C 
HETATM   29  C1  UNL     1      30.950  11.694  48.682  1.00  0.00     0.005 C 
ENDBRANCH  27  28
ENDBRANCH  26  27
BRANCH  26  30
HETATM   30  C5  UNL     1      26.878  10.326  47.663  1.00  0.00     0.002 C 
HETATM   31  C6  UNL     1      25.996  11.410  48.227  1.00  0.00     0.005 C 
ENDBRANCH  26  30
ENDBRANCH  25  26
ENDBRANCH  22  25
ENDBRANCH   1  21
TORSDOF 6
ENDMDL
MODEL 6
REMARK VINA RESULT:      -7.3      2.208      3.877
REMARK  6 active torsions:
REMARK  status: ('A' for Active; 'I' for Inactive)
REMARK    1  A    between atoms: C2_2  and  C3_3 
REMARK    2  A    between atoms: C3_3  and  C4_4 
REMARK    3  A    between atoms: C4_4  and  C5_5 
REMARK    4  A    between atoms: C4_4  and  C7_7 
REMARK    5  A    between atoms: C7_7  and  N1_8 
REMARK       I    between atoms: N1_8  and  C8_9 
REMARK    6  A    between atoms: C8_9  and  C9_11 
ROOT
HETATM    1  C9  UNL     1      25.026   4.894  50.351  1.00  0.00     0.122 C 
HETATM    2  C10 UNL     1      25.534   3.693  50.142  1.00  0.00     0.022 C 
HETATM    3  C11 UNL     1      26.766   3.478  49.359  1.00  0.00     0.069 C 
HETATM    4  N2  UNL     1      24.866   2.560  50.771  1.00  0.00    -0.389 N 
HETATM    5  C12 UNL     1      25.391   2.292  52.131  1.00  0.00     0.147 C 
HETATM    6  C13 UNL     1      24.231   1.809  52.983  1.00  0.00    -0.007 C 
HETATM    7  C14 UNL     1      22.998   1.643  52.567  1.00  0.00     0.011 C 
HETATM    8  C15 UNL     1      21.588   1.390  52.342  1.00  0.00    -0.008 A 
HETATM    9  C16 UNL     1      20.994   0.163  52.353  1.00  0.00     0.014 A 
HETATM   10  C17 UNL     1      19.629   0.117  52.183  1.00  0.00     0.001 A 
HETATM   11  C18 UNL     1      19.002   1.327  52.017  1.00  0.00     0.002 A 
HETATM   12  C19 UNL     1      19.570   2.576  52.000  1.00  0.00     0.032 A 
HETATM   13  C20 UNL     1      20.938   2.614  52.171  1.00  0.00     0.058 A 
HETATM   14  N3  UNL     1      21.474   3.939  52.089  1.00  0.00    -0.297 N 
HETATM   15  N4  UNL     1      22.595   4.523  51.549  1.00  0.00    -0.265 N 
HETATM   16  C21 UNL     1      23.740   5.120  50.998  1.00  0.00     0.277 C 
HETATM   17  O2  UNL     1      23.145   6.156  51.340  1.00  0.00    -0.266 OA
HETATM   18  H20 UNL     1      24.285   2.433  49.913  1.00  0.00     0.159 HD
HETATM   19  H29 UNL     1      21.010   4.757  52.493  1.00  0.00     0.187 HD
HETATM   20  H30 UNL     1      22.966   3.670  51.215  1.00  0.00     0.190 HD
ENDROOT
BRANCH   1  21
HETATM   21  C8  UNL     1      25.484   6.155  49.928  1.00  0.00     0.259 C 
HETATM   22  N1  UNL     1      26.241   7.225  50.364  1.00  0.00    -0.356 N 
HETATM   23  H16 UNL     1      26.581   6.978  51.325  1.00  0.00     0.162 HD
HETATM   24  O1  UNL     1      25.232   6.678  48.810  1.00  0.00    -0.267 OA
BRANCH  22  25
HETATM   25  C7  UNL     1      26.634   8.514  49.778  1.00  0.00     0.127 C 
BRANCH  25  26
HETATM   26  C4  UNL     1      28.028   8.533  49.315  1.00  0.00     0.003 C 
BRANCH  26  27
HETATM   27  C3  UNL     1      28.235   8.242  47.879  1.00  0.00     0.006 C 
BRANCH  27  28
HETATM   28  C2  UNL     1      28.484   6.869  47.397  1.00  0.00    -0.004 C 
HETATM   29  C1  UNL     1      29.310   5.984  48.274  1.00  0.00     0.005 C 
ENDBRANCH  27  28
ENDBRANCH  26  27
BRANCH  26  30
HETATM   30  C5  UNL     1      28.676   9.909  49.641  1.00  0.00     0.002 C 
HETATM   31  C6  UNL     1      30.136   9.896  49.269  1.00  0.00     0.005 C 
ENDBRANCH  26  30
ENDBRANCH  25  26
ENDBRANCH  22  25
ENDBRANCH   1  21
TORSDOF 6
ENDMDL
MODEL 7
REMARK VINA RESULT:      -7.2      5.608     10.182
REMARK  6 active torsions:
REMARK  status: ('A' for Active; 'I' for Inactive)
REMARK    1  A    between atoms: C2_2  and  C3_3 
REMARK    2  A    between atoms: C3_3  and  C4_4 
REMARK    3  A    between atoms: C4_4  and  C5_5 
REMARK    4  A    between atoms: C4_4  and  C7_7 
REMARK    5  A    between atoms: C7_7  and  N1_8 
REMARK       I    between atoms: N1_8  and  C8_9 
REMARK    6  A    between atoms: C8_9  and  C9_11 
ROOT
HETATM    1  C9  UNL     1      20.214   0.990  51.123  1.00  0.00     0.122 C 
HETATM    2  C10 UNL     1      20.844   1.494  50.078  1.00  0.00     0.022 C 
HETATM    3  C11 UNL     1      20.152   1.820  48.815  1.00  0.00     0.069 C 
HETATM    4  N2  UNL     1      22.264   1.786  50.223  1.00  0.00    -0.389 N 
HETATM    5  C12 UNL     1      22.499   3.157  50.734  1.00  0.00     0.147 C 
HETATM    6  C13 UNL     1      23.725   3.110  51.629  1.00  0.00    -0.007 C 
HETATM    7  C14 UNL     1      24.447   2.043  51.875  1.00  0.00     0.011 C 
HETATM    8  C15 UNL     1      25.380   1.015  52.291  1.00  0.00    -0.008 A 
HETATM    9  C16 UNL     1      26.694   0.947  51.932  1.00  0.00     0.014 A 
HETATM   10  C17 UNL     1      27.449  -0.067  52.474  1.00  0.00     0.001 A 
HETATM   11  C18 UNL     1      26.793  -0.915  53.331  1.00  0.00     0.002 A 
HETATM   12  C19 UNL     1      25.475  -0.875  53.712  1.00  0.00     0.032 A 
HETATM   13  C20 UNL     1      24.724   0.143  53.163  1.00  0.00     0.058 A 
HETATM   14  N3  UNL     1      23.349   0.097  53.557  1.00  0.00    -0.297 N 
HETATM   15  N4  UNL     1      22.135   0.311  52.948  1.00  0.00    -0.265 N 
HETATM   16  C21 UNL     1      20.896   0.530  52.326  1.00  0.00     0.277 C 
HETATM   17  O2  UNL     1      20.477   0.105  53.416  1.00  0.00    -0.266 OA
HETATM   18  H20 UNL     1      22.492   0.832  49.866  1.00  0.00     0.159 HD
HETATM   19  H29 UNL     1      23.045  -0.142  54.505  1.00  0.00     0.187 HD
HETATM   20  H30 UNL     1      22.535   0.546  52.075  1.00  0.00     0.190 HD
ENDROOT
BRANCH   1  21
HETATM   21  C8  UNL     1      18.855   0.669  51.291  1.00  0.00     0.259 C 
HETATM   22  N1  UNL     1      18.012  -0.423  51.383  1.00  0.00    -0.356 N 
HETATM   23  H16 UNL     1      18.619  -1.275  51.312  1.00  0.00     0.162 HD
HETATM   24  O1  UNL     1      17.923   1.507  51.417  1.00  0.00    -0.267 OA
BRANCH  22  25
HETATM   25  C7  UNL     1      16.564  -0.592  51.561  1.00  0.00     0.127 C 
BRANCH  25  26
HETATM   26  C4  UNL     1      16.224  -1.568  52.605  1.00  0.00     0.003 C 
BRANCH  26  27
HETATM   27  C3  UNL     1      15.375  -2.701  52.177  1.00  0.00     0.006 C 
BRANCH  27  28
HETATM   28  C2  UNL     1      14.356  -2.546  51.119  1.00  0.00    -0.004 C 
HETATM   29  C1  UNL     1      14.477  -3.440  49.927  1.00  0.00     0.005 C 
ENDBRANCH  27  28
ENDBRANCH  26  27
BRANCH  26  30
HETATM   30  C5  UNL     1      17.524  -2.136  53.243  1.00  0.00     0.002 C 
HETATM   31  C6  UNL     1      17.327  -3.581  53.621  1.00  0.00     0.005 C 
ENDBRANCH  26  30
ENDBRANCH  25  26
ENDBRANCH  22  25
ENDBRANCH   1  21
TORSDOF 6
ENDMDL
MODEL 8
REMARK VINA RESULT:      -6.9      2.274      8.489
REMARK  6 active torsions:
REMARK  status: ('A' for Active; 'I' for Inactive)
REMARK    1  A    between atoms: C2_2  and  C3_3 
REMARK    2  A    between atoms: C3_3  and  C4_4 
REMARK    3  A    between atoms: C4_4  and  C5_5 
REMARK    4  A    between atoms: C4_4  and  C7_7 
REMARK    5  A    between atoms: C7_7  and  N1_8 
REMARK       I    between atoms: N1_8  and  C8_9 
REMARK    6  A    between atoms: C8_9  and  C9_11 
ROOT
HETATM    1  C9  UNL     1      27.498   6.965  48.654  1.00  0.00     0.122 C 
HETATM    2  C10 UNL     1      27.640   8.254  48.405  1.00  0.00     0.022 C 
HETATM    3  C11 UNL     1      26.527   9.215  48.534  1.00  0.00     0.069 C 
HETATM    4  N2  UNL     1      28.971   8.730  48.049  1.00  0.00    -0.389 N 
HETATM    5  C12 UNL     1      29.762   9.110  49.243  1.00  0.00     0.147 C 
HETATM    6  C13 UNL     1      31.211   8.752  48.966  1.00  0.00    -0.007 C 
HETATM    7  C14 UNL     1      31.667   8.224  47.855  1.00  0.00     0.011 C 
HETATM    8  C15 UNL     1      32.391   7.645  46.741  1.00  0.00    -0.008 A 
HETATM    9  C16 UNL     1      33.295   8.302  45.960  1.00  0.00     0.014 A 
HETATM   10  C17 UNL     1      33.936   7.576  44.983  1.00  0.00     0.001 A 
HETATM   11  C18 UNL     1      33.593   6.249  44.896  1.00  0.00     0.002 A 
HETATM   12  C19 UNL     1      32.689   5.560  45.664  1.00  0.00     0.032 A 
HETATM   13  C20 UNL     1      32.050   6.295  46.640  1.00  0.00     0.058 A 
HETATM   14  N3  UNL     1      31.082   5.532  47.368  1.00  0.00    -0.297 N 
HETATM   15  N4  UNL     1      29.825   5.754  47.877  1.00  0.00    -0.265 N 
HETATM   16  C21 UNL     1      28.540   5.979  48.398  1.00  0.00     0.277 C 
HETATM   17  O2  UNL     1      28.616   4.761  48.631  1.00  0.00    -0.266 OA
HETATM   18  H20 UNL     1      28.746   8.588  47.039  1.00  0.00     0.159 HD
HETATM   19  H29 UNL     1      31.232   4.559  47.651  1.00  0.00     0.187 HD
HETATM   20  H30 UNL     1      29.790   6.694  47.576  1.00  0.00     0.190 HD
ENDROOT
BRANCH   1  21
HETATM   21  C8  UNL     1      26.364   6.245  49.070  1.00  0.00     0.259 C 
HETATM   22  N1  UNL     1      25.916   5.452  50.110  1.00  0.00    -0.356 N 
HETATM   23  H16 UNL     1      26.700   5.403  50.806  1.00  0.00     0.162 HD
HETATM   24  O1  UNL     1      25.286   6.157  48.425  1.00  0.00    -0.267 OA
BRANCH  22  25
HETATM   25  C7  UNL     1      24.660   4.749  50.400  1.00  0.00     0.127 C 
BRANCH  25  26
HETATM   26  C4  UNL     1      24.868   3.426  51.003  1.00  0.00     0.003 C 
BRANCH  26  27
HETATM   27  C3  UNL     1      23.852   2.402  50.678  1.00  0.00     0.006 C 
BRANCH  27  28
HETATM   28  C2  UNL     1      22.804   2.019  51.646  1.00  0.00    -0.004 C 
HETATM   29  C1  UNL     1      23.263   1.422  52.938  1.00  0.00     0.005 C 
ENDBRANCH  27  28
ENDBRANCH  26  27
BRANCH  26  30
HETATM   30  C5  UNL     1      26.269   2.878  50.607  1.00  0.00     0.002 C 
HETATM   31  C6  UNL     1      26.643   1.720  51.496  1.00  0.00     0.005 C 
ENDBRANCH  26  30
ENDBRANCH  25  26
ENDBRANCH  22  25
ENDBRANCH   1  21
TORSDOF 6
ENDMDL
MODEL 9
REMARK VINA RESULT:      -6.8      2.220      8.130
REMARK  6 active torsions:
REMARK  status: ('A' for Active; 'I' for Inactive)
REMARK    1  A    between atoms: C2_2  and  C3_3 
REMARK    2  A    between atoms: C3_3  and  C4_4 
REMARK    3  A    between atoms: C4_4  and  C5_5 
REMARK    4  A    between atoms: C4_4  and  C7_7 
REMARK    5  A    between atoms: C7_7  and  N1_8 
REMARK       I    between atoms: N1_8  and  C8_9 
REMARK    6  A    between atoms: C8_9  and  C9_11 
ROOT
HETATM    1  C9  UNL     1      24.945   5.842  48.908  1.00  0.00     0.122 C 
HETATM    2  C10 UNL     1      24.572   7.076  48.622  1.00  0.00     0.022 C 
HETATM    3  C11 UNL     1      23.167   7.436  48.344  1.00  0.00     0.069 C 
HETATM    4  N2  UNL     1      25.595   8.113  48.645  1.00  0.00    -0.389 N 
HETATM    5  C12 UNL     1      25.742   8.717  49.991  1.00  0.00     0.147 C 
HETATM    6  C13 UNL     1      27.209   9.055  50.185  1.00  0.00    -0.007 C 
HETATM    7  C14 UNL     1      28.159   8.861  49.301  1.00  0.00     0.011 C 
HETATM    8  C15 UNL     1      29.359   8.741  48.498  1.00  0.00    -0.008 A 
HETATM    9  C16 UNL     1      30.068   9.783  47.977  1.00  0.00     0.014 A 
HETATM   10  C17 UNL     1      31.223   9.484  47.290  1.00  0.00     0.001 A 
HETATM   11  C18 UNL     1      31.543   8.152  47.200  1.00  0.00     0.002 A 
HETATM   12  C19 UNL     1      30.851   7.083  47.711  1.00  0.00     0.032 A 
HETATM   13  C20 UNL     1      29.695   7.390  48.397  1.00  0.00     0.058 A 
HETATM   14  N3  UNL     1      28.994   6.229  48.856  1.00  0.00    -0.297 N 
HETATM   15  N4  UNL     1      27.680   5.837  48.950  1.00  0.00    -0.265 N 
HETATM   16  C21 UNL     1      26.338   5.437  49.046  1.00  0.00     0.277 C 
HETATM   17  O2  UNL     1      26.869   4.364  49.378  1.00  0.00    -0.266 OA
HETATM   18  H20 UNL     1      25.769   7.958  47.628  1.00  0.00     0.159 HD
HETATM   19  H29 UNL     1      29.465   5.405  49.239  1.00  0.00     0.187 HD
HETATM   20  H30 UNL     1      27.327   6.686  48.585  1.00  0.00     0.190 HD
ENDROOT
BRANCH   1  21
HETATM   21  C8  UNL     1      24.178   4.668  49.018  1.00  0.00     0.259 C 
HETATM   22  N1  UNL     1      24.046   3.540  49.806  1.00  0.00    -0.356 N 
HETATM   23  H16 UNL     1      24.759   3.626  50.571  1.00  0.00     0.162 HD
HETATM   24  O1  UNL     1      23.248   4.336  48.237  1.00  0.00    -0.267 OA
BRANCH  22  25
HETATM   25  C7  UNL     1      23.164   2.366  49.781  1.00  0.00     0.127 C 
BRANCH  25  26
HETATM   26  C4  UNL     1      22.288   2.281  50.957  1.00  0.00     0.003 C 
BRANCH  26  27
HETATM   27  C3  UNL     1      22.122   0.933  51.542  1.00  0.00     0.006 C 
BRANCH  27  28
HETATM   28  C2  UNL     1      22.810   0.542  52.789  1.00  0.00    -0.004 C 
HETATM   29  C1  UNL     1      21.950   0.056  53.911  1.00  0.00     0.005 C 
ENDBRANCH  27  28
ENDBRANCH  26  27
BRANCH  26  30
HETATM   30  C5  UNL     1      22.796   3.245  52.067  1.00  0.00     0.002 C 
HETATM   31  C6  UNL     1      21.794   4.346  52.296  1.00  0.00     0.005 C 
ENDBRANCH  26  30
ENDBRANCH  25  26
ENDBRANCH  22  25
ENDBRANCH   1  21
TORSDOF 6
ENDMDL
