MODEL 1
REMARK VINA RESULT:      -8.1      0.000      0.000
REMARK  2 active torsions:
REMARK  status: ('A' for Active; 'I' for Inactive)
REMARK    1  A    between atoms: C3_3  and  N1_4 
REMARK    2  A    between atoms: C6_8  and  C7_9 
ROOT
HETATM    1  C7  UNL     1      25.746   1.714  52.535  1.00  0.00    -0.009 C 
HETATM    2  C8  UNL     1      26.825   1.990  53.250  1.00  0.00     0.034 C 
HETATM    3  C9  UNL     1      26.024   1.708  54.430  1.00  0.00     0.074 C 
HETATM    4  C10 UNL     1      25.487   0.632  53.534  1.00  0.00     0.077 C 
HETATM    5  C11 UNL     1      26.441  -0.450  53.291  1.00  0.00     0.047 A 
HETATM    6  C12 UNL     1      26.158  -1.478  52.416  1.00  0.00     0.049 A 
HETATM    7  C13 UNL     1      27.239  -2.333  52.402  1.00  0.00     0.141 A 
HETATM    8  N3  UNL     1      28.119  -1.790  53.260  1.00  0.00    -0.179 NA
HETATM    9  N4  UNL     1      27.641  -0.676  53.783  1.00  0.00    -0.231 N 
HETATM   10  C14 UNL     1      28.392   0.072  54.715  1.00  0.00     0.236 C 
HETATM   11  N5  UNL     1      28.926   1.084  54.118  1.00  0.00    -0.233 NA
HETATM   12  C15 UNL     1      29.723   1.954  54.908  1.00  0.00     0.256 C 
HETATM   13  N6  UNL     1      29.075   2.709  54.124  1.00  0.00    -0.168 NA
HETATM   14  N7  UNL     1      28.165   2.375  53.156  1.00  0.00    -0.281 N 
HETATM   15  H19 UNL     1      28.660   2.456  52.243  1.00  0.00     0.189 HD
ENDROOT
BRANCH   1  16
HETATM   16  C6  UNL     1      25.074   2.217  51.313  1.00  0.00     0.282 C 
HETATM   17  C2  UNL     1      23.769   2.879  51.586  1.00  0.00    -0.020 C 
HETATM   18  C1  UNL     1      22.882   2.387  52.445  1.00  0.00     0.019 C 
HETATM   19  C3  UNL     1      23.511   4.157  50.821  1.00  0.00     0.250 C 
HETATM   20  C4  UNL     1      23.870   3.804  49.377  1.00  0.00     0.070 C 
HETATM   21  C5  UNL     1      25.347   3.498  49.331  1.00  0.00     0.273 C 
HETATM   22  N2  UNL     1      25.918   3.132  50.588  1.00  0.00     0.096 N 
HETATM   23  H10 UNL     1      26.312   3.906  51.132  1.00  0.00     0.317 HD
BRANCH  19  24
HETATM   24  N1  UNL     1      24.347   5.236  51.289  1.00  0.00     0.087 N 
HETATM   25  H4  UNL     1      23.756   6.034  51.569  1.00  0.00     0.313 HD
HETATM   26  H5  UNL     1      24.999   4.940  52.032  1.00  0.00     0.313 HD
ENDBRANCH  19  24
ENDBRANCH   1  16
TORSDOF 2
ENDMDL
MODEL 2
REMARK VINA RESULT:      -7.8      2.000      3.068
REMARK  2 active torsions:
REMARK  status: ('A' for Active; 'I' for Inactive)
REMARK    1  A    between atoms: C3_3  and  N1_4 
REMARK    2  A    between atoms: C6_8  and  C7_9 
ROOT
HETATM    1  C7  UNL     1      24.965   2.793  51.898  1.00  0.00    -0.009 C 
HETATM    2  C8  UNL     1      25.817   1.860  52.293  1.00  0.00     0.034 C 
HETATM    3  C9  UNL     1      25.651   2.383  53.638  1.00  0.00     0.074 C 
HETATM    4  C10 UNL     1      24.233   2.517  53.172  1.00  0.00     0.077 C 
HETATM    5  C11 UNL     1      23.544   1.234  53.033  1.00  0.00     0.047 A 
HETATM    6  C12 UNL     1      22.264   1.153  52.525  1.00  0.00     0.049 A 
HETATM    7  C13 UNL     1      21.893  -0.175  52.519  1.00  0.00     0.141 A 
HETATM    8  N3  UNL     1      22.953  -0.831  53.020  1.00  0.00    -0.179 NA
HETATM    9  N4  UNL     1      23.927   0.008  53.322  1.00  0.00    -0.231 N 
HETATM   10  C14 UNL     1      25.145  -0.455  53.865  1.00  0.00     0.236 C 
HETATM   11  N5  UNL     1      26.040  -0.492  52.934  1.00  0.00    -0.233 NA
HETATM   12  C15 UNL     1      27.337  -0.937  53.303  1.00  0.00     0.256 C 
HETATM   13  N6  UNL     1      27.526   0.020  52.494  1.00  0.00    -0.168 NA
HETATM   14  N7  UNL     1      26.604   0.797  51.841  1.00  0.00    -0.281 N 
HETATM   15  H19 UNL     1      26.566   0.450  50.860  1.00  0.00     0.189 HD
ENDROOT
BRANCH   1  16
HETATM   16  C6  UNL     1      24.785   3.706  50.744  1.00  0.00     0.282 C 
HETATM   17  C2  UNL     1      23.713   4.718  50.952  1.00  0.00    -0.020 C 
HETATM   18  C1  UNL     1      22.542   4.416  51.503  1.00  0.00     0.019 C 
HETATM   19  C3  UNL     1      24.040   6.121  50.496  1.00  0.00     0.250 C 
HETATM   20  C4  UNL     1      24.610   5.930  49.089  1.00  0.00     0.070 C 
HETATM   21  C5  UNL     1      25.894   5.147  49.214  1.00  0.00     0.273 C 
HETATM   22  N2  UNL     1      26.012   4.388  50.418  1.00  0.00     0.096 N 
HETATM   23  H10 UNL     1      26.479   4.868  51.194  1.00  0.00     0.317 HD
BRANCH  19  24
HETATM   24  N1  UNL     1      25.024   6.743  51.347  1.00  0.00     0.087 N 
HETATM   25  H4  UNL     1      25.970   6.542  50.985  1.00  0.00     0.313 HD
HETATM   26  H5  UNL     1      24.853   7.753  51.481  1.00  0.00     0.313 HD
ENDBRANCH  19  24
ENDBRANCH   1  16
TORSDOF 2
ENDMDL
MODEL 3
REMARK VINA RESULT:      -7.7      2.341      6.027
REMARK  2 active torsions:
REMARK  status: ('A' for Active; 'I' for Inactive)
REMARK    1  A    between atoms: C3_3  and  N1_4 
REMARK    2  A    between atoms: C6_8  and  C7_9 
ROOT
HETATM    1  C7  UNL     1      24.009   1.867  51.276  1.00  0.00    -0.009 C 
HETATM    2  C8  UNL     1      23.548   3.105  51.194  1.00  0.00     0.034 C 
HETATM    3  C9  UNL     1      22.956   2.720  49.923  1.00  0.00     0.074 C 
HETATM    4  C10 UNL     1      22.703   1.451  50.680  1.00  0.00     0.077 C 
HETATM    5  C11 UNL     1      21.670   1.584  51.708  1.00  0.00     0.047 A 
HETATM    6  C12 UNL     1      21.369   0.548  52.568  1.00  0.00     0.049 A 
HETATM    7  C13 UNL     1      20.366   0.974  53.411  1.00  0.00     0.141 A 
HETATM    8  N3  UNL     1      20.106   2.236  53.029  1.00  0.00    -0.179 NA
HETATM    9  N4  UNL     1      20.881   2.591  52.020  1.00  0.00    -0.231 N 
HETATM   10  C14 UNL     1      20.788   3.878  51.448  1.00  0.00     0.236 C 
HETATM   11  N5  UNL     1      21.752   4.613  51.893  1.00  0.00    -0.233 NA
HETATM   12  C15 UNL     1      21.815   5.950  51.421  1.00  0.00     0.256 C 
HETATM   13  N6  UNL     1      23.017   5.552  51.468  1.00  0.00    -0.168 NA
HETATM   14  N7  UNL     1      23.510   4.334  51.858  1.00  0.00    -0.281 N 
HETATM   15  H19 UNL     1      23.894   4.463  52.817  1.00  0.00     0.189 HD
ENDROOT
BRANCH   1  16
HETATM   16  C6  UNL     1      25.237   1.175  51.736  1.00  0.00     0.282 C 
HETATM   17  C2  UNL     1      26.471   1.993  51.578  1.00  0.00    -0.020 C 
HETATM   18  C1  UNL     1      26.715   2.718  50.491  1.00  0.00     0.019 C 
HETATM   19  C3  UNL     1      27.438   1.950  52.739  1.00  0.00     0.250 C 
HETATM   20  C4  UNL     1      27.577   0.459  53.050  1.00  0.00     0.070 C 
HETATM   21  C5  UNL     1      26.232  -0.042  53.517  1.00  0.00     0.273 C 
HETATM   22  N2  UNL     1      25.125   0.763  53.112  1.00  0.00     0.096 N 
HETATM   23  H10 UNL     1      24.845   1.491  53.777  1.00  0.00     0.317 HD
BRANCH  19  24
HETATM   24  N1  UNL     1      26.920   2.649  53.890  1.00  0.00     0.087 N 
HETATM   25  H4  UNL     1      27.368   2.284  54.745  1.00  0.00     0.313 HD
HETATM   26  H5  UNL     1      27.000   3.674  53.802  1.00  0.00     0.313 HD
ENDBRANCH  19  24
ENDBRANCH   1  16
TORSDOF 2
ENDMDL
MODEL 4
REMARK VINA RESULT:      -7.6      2.404      6.645
REMARK  2 active torsions:
REMARK  status: ('A' for Active; 'I' for Inactive)
REMARK    1  A    between atoms: C3_3  and  N1_4 
REMARK    2  A    between atoms: C6_8  and  C7_9 
ROOT
HETATM    1  C7  UNL     1      23.647   1.581  51.760  1.00  0.00    -0.009 C 
HETATM    2  C8  UNL     1      22.707   1.558  50.828  1.00  0.00     0.034 C 
HETATM    3  C9  UNL     1      21.739   1.507  51.911  1.00  0.00     0.074 C 
HETATM    4  C10 UNL     1      22.716   2.461  52.531  1.00  0.00     0.077 C 
HETATM    5  C11 UNL     1      22.714   3.783  51.904  1.00  0.00     0.047 A 
HETATM    6  C12 UNL     1      23.613   4.760  52.278  1.00  0.00     0.049 A 
HETATM    7  C13 UNL     1      23.363   5.881  51.515  1.00  0.00     0.141 A 
HETATM    8  N3  UNL     1      22.335   5.536  50.722  1.00  0.00    -0.179 NA
HETATM    9  N4  UNL     1      21.955   4.293  50.957  1.00  0.00    -0.231 N 
HETATM   10  C14 UNL     1      20.888   3.710  50.241  1.00  0.00     0.236 C 
HETATM   11  N5  UNL     1      21.364   2.940  49.319  1.00  0.00    -0.233 NA
HETATM   12  C15 UNL     1      20.426   2.265  48.494  1.00  0.00     0.256 C 
HETATM   13  N6  UNL     1      21.351   1.426  48.709  1.00  0.00    -0.168 NA
HETATM   14  N7  UNL     1      22.498   1.572  49.447  1.00  0.00    -0.281 N 
HETATM   15  H19 UNL     1      23.273   1.709  48.765  1.00  0.00     0.189 HD
ENDROOT
BRANCH   1  16
HETATM   16  C6  UNL     1      24.999   1.014  51.978  1.00  0.00     0.282 C 
HETATM   17  C2  UNL     1      26.098   1.970  51.672  1.00  0.00    -0.020 C 
HETATM   18  C1  UNL     1      26.083   2.759  50.602  1.00  0.00     0.019 C 
HETATM   19  C3  UNL     1      27.242   1.991  52.659  1.00  0.00     0.250 C 
HETATM   20  C4  UNL     1      27.585   0.514  52.860  1.00  0.00     0.070 C 
HETATM   21  C5  UNL     1      26.395  -0.152  53.506  1.00  0.00     0.273 C 
HETATM   22  N2  UNL     1      25.158   0.539  53.329  1.00  0.00     0.096 N 
HETATM   23  H10 UNL     1      24.918   1.205  54.070  1.00  0.00     0.317 HD
BRANCH  19  24
HETATM   24  N1  UNL     1      26.850   2.583  53.916  1.00  0.00     0.087 N 
HETATM   25  H4  UNL     1      27.683   2.962  54.392  1.00  0.00     0.313 HD
HETATM   26  H5  UNL     1      26.097   3.280  53.809  1.00  0.00     0.313 HD
ENDBRANCH  19  24
ENDBRANCH   1  16
TORSDOF 2
ENDMDL
MODEL 5
REMARK VINA RESULT:      -7.4      2.172      5.677
REMARK  2 active torsions:
REMARK  status: ('A' for Active; 'I' for Inactive)
REMARK    1  A    between atoms: C3_3  and  N1_4 
REMARK    2  A    between atoms: C6_8  and  C7_9 
ROOT
HETATM    1  C7  UNL     1      25.255   2.040  52.835  1.00  0.00    -0.009 C 
HETATM    2  C8  UNL     1      24.480   3.027  52.415  1.00  0.00     0.034 C 
HETATM    3  C9  UNL     1      24.447   2.354  51.127  1.00  0.00     0.074 C 
HETATM    4  C10 UNL     1      24.385   1.145  52.011  1.00  0.00     0.077 C 
HETATM    5  C11 UNL     1      23.104   0.995  52.701  1.00  0.00     0.047 A 
HETATM    6  C12 UNL     1      22.896  -0.005  53.629  1.00  0.00     0.049 A 
HETATM    7  C13 UNL     1      21.605   0.113  54.098  1.00  0.00     0.141 A 
HETATM    8  N3  UNL     1      21.094   1.168  53.440  1.00  0.00    -0.179 NA
HETATM    9  N4  UNL     1      21.986   1.685  52.615  1.00  0.00    -0.231 N 
HETATM   10  C14 UNL     1      21.674   2.806  51.815  1.00  0.00     0.236 C 
HETATM   11  N5  UNL     1      22.181   3.866  52.351  1.00  0.00    -0.233 NA
HETATM   12  C15 UNL     1      21.965   5.096  51.676  1.00  0.00     0.256 C 
HETATM   13  N6  UNL     1      23.159   5.148  52.098  1.00  0.00    -0.168 NA
HETATM   14  N7  UNL     1      23.865   4.217  52.814  1.00  0.00    -0.281 N 
HETATM   15  H19 UNL     1      23.882   4.552  53.800  1.00  0.00     0.189 HD
ENDROOT
BRANCH   1  16
HETATM   16  C6  UNL     1      26.439   1.861  53.708  1.00  0.00     0.282 C 
HETATM   17  C2  UNL     1      26.614   0.463  54.190  1.00  0.00    -0.020 C 
HETATM   18  C1  UNL     1      25.597  -0.279  54.614  1.00  0.00     0.019 C 
HETATM   19  C3  UNL     1      28.030  -0.065  54.166  1.00  0.00     0.250 C 
HETATM   20  C4  UNL     1      28.852   1.048  54.819  1.00  0.00     0.070 C 
HETATM   21  C5  UNL     1      28.770   2.265  53.930  1.00  0.00     0.273 C 
HETATM   22  N2  UNL     1      27.648   2.280  53.046  1.00  0.00     0.096 N 
HETATM   23  H10 UNL     1      27.815   1.877  52.119  1.00  0.00     0.317 HD
BRANCH  19  24
HETATM   24  N1  UNL     1      28.491  -0.293  52.818  1.00  0.00     0.087 N 
HETATM   25  H4  UNL     1      28.979   0.548  52.473  1.00  0.00     0.313 HD
HETATM   26  H5  UNL     1      29.060  -1.150  52.732  1.00  0.00     0.313 HD
ENDBRANCH  19  24
ENDBRANCH   1  16
TORSDOF 2
ENDMDL
MODEL 6
REMARK VINA RESULT:      -7.1      3.038      4.917
REMARK  2 active torsions:
REMARK  status: ('A' for Active; 'I' for Inactive)
REMARK    1  A    between atoms: C3_3  and  N1_4 
REMARK    2  A    between atoms: C6_8  and  C7_9 
ROOT
HETATM    1  C7  UNL     1      22.444   2.851  51.282  1.00  0.00    -0.009 C 
HETATM    2  C8  UNL     1      21.742   1.924  51.913  1.00  0.00     0.034 C 
HETATM    3  C9  UNL     1      21.975   1.069  50.761  1.00  0.00     0.074 C 
HETATM    4  C10 UNL     1      23.320   1.729  50.824  1.00  0.00     0.077 C 
HETATM    5  C11 UNL     1      24.129   1.291  51.961  1.00  0.00     0.047 A 
HETATM    6  C12 UNL     1      25.356   1.858  52.235  1.00  0.00     0.049 A 
HETATM    7  C13 UNL     1      25.869   1.240  53.355  1.00  0.00     0.141 A 
HETATM    8  N3  UNL     1      24.940   0.335  53.705  1.00  0.00    -0.179 NA
HETATM    9  N4  UNL     1      23.913   0.369  52.876  1.00  0.00    -0.231 N 
HETATM   10  C14 UNL     1      22.810  -0.496  53.046  1.00  0.00     0.236 C 
HETATM   11  N5  UNL     1      21.841   0.154  53.600  1.00  0.00    -0.233 NA
HETATM   12  C15 UNL     1      20.641  -0.565  53.848  1.00  0.00     0.256 C 
HETATM   13  N6  UNL     1      20.273   0.583  53.459  1.00  0.00    -0.168 NA
HETATM   14  N7  UNL     1      21.038   1.660  53.091  1.00  0.00    -0.281 N 
HETATM   15  H19 UNL     1      21.020   2.323  53.893  1.00  0.00     0.189 HD
ENDROOT
BRANCH   1  16
HETATM   16  C6  UNL     1      22.412   4.321  51.090  1.00  0.00     0.282 C 
HETATM   17  C2  UNL     1      23.327   5.057  52.006  1.00  0.00    -0.020 C 
HETATM   18  C1  UNL     1      23.450   4.750  53.293  1.00  0.00     0.019 C 
HETATM   19  C3  UNL     1      24.115   6.183  51.378  1.00  0.00     0.250 C 
HETATM   20  C4  UNL     1      23.069   6.973  50.590  1.00  0.00     0.070 C 
HETATM   21  C5  UNL     1      22.541   6.077  49.495  1.00  0.00     0.273 C 
HETATM   22  N2  UNL     1      22.725   4.681  49.731  1.00  0.00     0.096 N 
HETATM   23  H10 UNL     1      23.589   4.282  49.349  1.00  0.00     0.317 HD
BRANCH  19  24
HETATM   24  N1  UNL     1      25.134   5.687  50.485  1.00  0.00     0.087 N 
HETATM   25  H4  UNL     1      24.979   6.067  49.538  1.00  0.00     0.313 HD
HETATM   26  H5  UNL     1      26.090   5.863  50.835  1.00  0.00     0.313 HD
ENDBRANCH  19  24
ENDBRANCH   1  16
TORSDOF 2
ENDMDL
MODEL 7
REMARK VINA RESULT:      -7.1      2.625      4.136
REMARK  2 active torsions:
REMARK  status: ('A' for Active; 'I' for Inactive)
REMARK    1  A    between atoms: C3_3  and  N1_4 
REMARK    2  A    between atoms: C6_8  and  C7_9 
ROOT
HETATM    1  C7  UNL     1      23.086   1.600  51.824  1.00  0.00    -0.009 C 
HETATM    2  C8  UNL     1      23.981   2.390  51.252  1.00  0.00     0.034 C 
HETATM    3  C9  UNL     1      24.110   3.051  52.539  1.00  0.00     0.074 C 
HETATM    4  C10 UNL     1      23.972   1.641  53.028  1.00  0.00     0.077 C 
HETATM    5  C11 UNL     1      25.148   0.814  52.755  1.00  0.00     0.047 A 
HETATM    6  C12 UNL     1      25.166  -0.534  53.046  1.00  0.00     0.049 A 
HETATM    7  C13 UNL     1      26.398  -1.031  52.679  1.00  0.00     0.141 A 
HETATM    8  N3  UNL     1      27.064   0.027  52.188  1.00  0.00    -0.179 NA
HETATM    9  N4  UNL     1      26.320   1.117  52.236  1.00  0.00    -0.231 N 
HETATM   10  C14 UNL     1      26.811   2.356  51.772  1.00  0.00     0.236 C 
HETATM   11  N5  UNL     1      26.330   2.592  50.597  1.00  0.00    -0.233 NA
HETATM   12  C15 UNL     1      26.721   3.805  49.972  1.00  0.00     0.256 C 
HETATM   13  N6  UNL     1      25.494   3.660  49.689  1.00  0.00    -0.168 NA
HETATM   14  N7  UNL     1      24.637   2.651  50.046  1.00  0.00    -0.281 N 
HETATM   15  H19 UNL     1      24.531   2.042  49.208  1.00  0.00     0.189 HD
ENDROOT
BRANCH   1  16
HETATM   16  C6  UNL     1      21.797   0.957  51.473  1.00  0.00     0.282 C 
HETATM   17  C2  UNL     1      20.839   0.890  52.611  1.00  0.00    -0.020 C 
HETATM   18  C1  UNL     1      21.214   0.559  53.843  1.00  0.00     0.019 C 
HETATM   19  C3  UNL     1      19.404   1.227  52.280  1.00  0.00     0.250 C 
HETATM   20  C4  UNL     1      19.112   0.406  51.023  1.00  0.00     0.070 C 
HETATM   21  C5  UNL     1      20.001   0.922  49.918  1.00  0.00     0.273 C 
HETATM   22  N2  UNL     1      21.160   1.625  50.367  1.00  0.00     0.096 N 
HETATM   23  H10 UNL     1      21.048   2.640  50.460  1.00  0.00     0.317 HD
BRANCH  19  24
HETATM   24  N1  UNL     1      19.237   2.632  52.002  1.00  0.00     0.087 N 
HETATM   25  H4  UNL     1      18.356   2.779  51.484  1.00  0.00     0.313 HD
HETATM   26  H5  UNL     1      19.304   3.217  52.850  1.00  0.00     0.313 HD
ENDBRANCH  19  24
ENDBRANCH   1  16
TORSDOF 2
ENDMDL
MODEL 8
REMARK VINA RESULT:      -7.0      7.332      8.655
REMARK  2 active torsions:
REMARK  status: ('A' for Active; 'I' for Inactive)
REMARK    1  A    between atoms: C3_3  and  N1_4 
REMARK    2  A    between atoms: C6_8  and  C7_9 
ROOT
HETATM    1  C7  UNL     1      30.819   6.737  48.168  1.00  0.00    -0.009 C 
HETATM    2  C8  UNL     1      32.029   7.258  48.291  1.00  0.00     0.034 C 
HETATM    3  C9  UNL     1      32.097   6.606  49.589  1.00  0.00     0.074 C 
HETATM    4  C10 UNL     1      31.387   5.524  48.833  1.00  0.00     0.077 C 
HETATM    5  C11 UNL     1      32.242   4.833  47.867  1.00  0.00     0.047 A 
HETATM    6  C12 UNL     1      31.739   3.873  47.014  1.00  0.00     0.049 A 
HETATM    7  C13 UNL     1      32.778   3.412  46.234  1.00  0.00     0.141 A 
HETATM    8  N3  UNL     1      33.853   4.106  46.646  1.00  0.00    -0.179 NA
HETATM    9  N4  UNL     1      33.530   4.945  47.613  1.00  0.00    -0.231 N 
HETATM   10  C14 UNL     1      34.499   5.783  48.204  1.00  0.00     0.236 C 
HETATM   11  N5  UNL     1      34.391   6.973  47.714  1.00  0.00    -0.233 NA
HETATM   12  C15 UNL     1      35.294   7.956  48.198  1.00  0.00     0.256 C 
HETATM   13  N6  UNL     1      34.181   8.550  48.077  1.00  0.00    -0.168 NA
HETATM   14  N7  UNL     1      32.978   8.055  47.646  1.00  0.00    -0.281 N 
HETATM   15  H19 UNL     1      32.854   8.390  46.667  1.00  0.00     0.189 HD
ENDROOT
BRANCH   1  16
HETATM   16  C6  UNL     1      29.496   7.134  47.631  1.00  0.00     0.282 C 
HETATM   17  C2  UNL     1      28.364   6.363  48.216  1.00  0.00    -0.020 C 
HETATM   18  C1  UNL     1      28.420   5.050  48.414  1.00  0.00     0.019 C 
HETATM   19  C3  UNL     1      27.139   7.171  48.576  1.00  0.00     0.250 C 
HETATM   20  C4  UNL     1      26.883   8.028  47.336  1.00  0.00     0.070 C 
HETATM   21  C5  UNL     1      28.054   8.966  47.173  1.00  0.00     0.273 C 
HETATM   22  N2  UNL     1      29.251   8.540  47.826  1.00  0.00     0.096 N 
HETATM   23  H10 UNL     1      29.378   8.890  48.781  1.00  0.00     0.317 HD
BRANCH  19  24
HETATM   24  N1  UNL     1      27.375   8.017  49.721  1.00  0.00     0.087 N 
HETATM   25  H4  UNL     1      28.351   7.903  50.039  1.00  0.00     0.313 HD
HETATM   26  H5  UNL     1      27.123   9.003  49.546  1.00  0.00     0.313 HD
ENDBRANCH  19  24
ENDBRANCH   1  16
TORSDOF 2
ENDMDL
MODEL 9
REMARK VINA RESULT:      -7.0      8.292     10.914
REMARK  2 active torsions:
REMARK  status: ('A' for Active; 'I' for Inactive)
REMARK    1  A    between atoms: C3_3  and  N1_4 
REMARK    2  A    between atoms: C6_8  and  C7_9 
ROOT
HETATM    1  C7  UNL     1      32.718   6.538  47.980  1.00  0.00    -0.009 C 
HETATM    2  C8  UNL     1      31.423   6.641  48.233  1.00  0.00     0.034 C 
HETATM    3  C9  UNL     1      31.795   7.076  49.569  1.00  0.00     0.074 C 
HETATM    4  C10 UNL     1      32.873   7.779  48.799  1.00  0.00     0.077 C 
HETATM    5  C11 UNL     1      32.380   8.909  48.012  1.00  0.00     0.047 A 
HETATM    6  C12 UNL     1      33.210   9.615  47.165  1.00  0.00     0.049 A 
HETATM    7  C13 UNL     1      32.463  10.609  46.571  1.00  0.00     0.141 A 
HETATM    8  N3  UNL     1      31.227  10.462  47.078  1.00  0.00    -0.179 NA
HETATM    9  N4  UNL     1      31.184   9.454  47.930  1.00  0.00    -0.231 N 
HETATM   10  C14 UNL     1      29.986   9.109  48.590  1.00  0.00     0.236 C 
HETATM   11  N5  UNL     1      29.459   8.084  48.008  1.00  0.00    -0.233 NA
HETATM   12  C15 UNL     1      28.238   7.594  48.543  1.00  0.00     0.256 C 
HETATM   13  N6  UNL     1      28.906   6.564  48.229  1.00  0.00    -0.168 NA
HETATM   14  N7  UNL     1      30.155   6.479  47.670  1.00  0.00    -0.281 N 
HETATM   15  H19 UNL     1      30.014   6.253  46.663  1.00  0.00     0.189 HD
ENDROOT
BRANCH   1  16
HETATM   16  C6  UNL     1      33.629   5.632  47.239  1.00  0.00     0.282 C 
HETATM   17  C2  UNL     1      34.597   4.919  48.117  1.00  0.00    -0.020 C 
HETATM   18  C1  UNL     1      35.237   5.521  49.114  1.00  0.00     0.019 C 
HETATM   19  C3  UNL     1      34.809   3.456  47.804  1.00  0.00     0.250 C 
HETATM   20  C4  UNL     1      35.029   3.428  46.290  1.00  0.00     0.070 C 
HETATM   21  C5  UNL     1      33.751   3.888  45.631  1.00  0.00     0.273 C 
HETATM   22  N2  UNL     1      32.893   4.660  46.471  1.00  0.00     0.096 N 
HETATM   23  H10 UNL     1      32.185   4.126  46.984  1.00  0.00     0.317 HD
BRANCH  19  24
HETATM   24  N1  UNL     1      33.654   2.664  48.150  1.00  0.00     0.087 N 
HETATM   25  H4  UNL     1      33.202   2.318  47.289  1.00  0.00     0.313 HD
HETATM   26  H5  UNL     1      33.876   1.907  48.817  1.00  0.00     0.313 HD
ENDBRANCH  19  24
ENDBRANCH   1  16
TORSDOF 2
ENDMDL
