MODEL 1
REMARK VINA RESULT:      -8.5      0.000      0.000
REMARK  2 active torsions:
REMARK  status: ('A' for Active; 'I' for Inactive)
REMARK    1  A    between atoms: C5_6  and  N1_7 
REMARK    2  A    between atoms: N1_7  and  C6_8 
ROOT
HETATM    1  C6  UNL     1      24.054  -0.262  53.428  1.00  0.00     0.160 A 
HETATM    2  N2  UNL     1      24.326  -0.857  54.587  1.00  0.00    -0.222 NA
HETATM    3  C7  UNL     1      23.389  -1.338  55.416  1.00  0.00     0.238 A 
HETATM    4  N3  UNL     1      22.077  -1.259  55.143  1.00  0.00    -0.216 NA
HETATM    5  C8  UNL     1      21.741  -0.668  53.985  1.00  0.00     0.197 A 
HETATM    6  C9  UNL     1      22.737  -0.173  53.135  1.00  0.00     0.128 A 
HETATM    7  N4  UNL     1      22.448   0.490  51.894  1.00  0.00    -0.382 N 
HETATM    8  C10 UNL     1      21.259   0.268  51.060  1.00  0.00     0.137 C 
HETATM    9  C11 UNL     1      19.987   0.644  51.724  1.00  0.00     0.032 A 
HETATM   10  C12 UNL     1      18.782   0.086  51.116  1.00  0.00    -0.013 A 
HETATM   11  C13 UNL     1      18.402  -0.383  52.303  1.00  0.00     0.009 A 
HETATM   12  C14 UNL     1      19.600   0.160  53.001  1.00  0.00     0.101 A 
HETATM   13  C15 UNL     1      19.885   1.642  52.785  1.00  0.00     0.062 A 
HETATM   14  O1  UNL     1      20.352  -0.641  53.804  1.00  0.00    -0.316 OA
HETATM   15  H6  UNL     1      23.184   1.184  51.621  1.00  0.00     0.160 HD
ENDROOT
BRANCH   1  16
HETATM   16  N1  UNL     1      25.048   0.237  52.553  1.00  0.00    -0.339 N 
HETATM   17  H4  UNL     1      25.014   0.400  51.530  1.00  0.00     0.167 HD
BRANCH  16  18
HETATM   18  C5  UNL     1      26.364   0.614  52.952  1.00  0.00     0.035 A 
HETATM   19  C4  UNL     1      26.798   1.895  53.244  1.00  0.00     0.029 A 
HETATM   20  C3  UNL     1      28.046   2.273  53.641  1.00  0.00     0.004 A 
HETATM   21  C2  UNL     1      28.997   1.288  53.771  1.00  0.00     0.019 A 
HETATM   22  C1  UNL     1      28.668  -0.022  53.504  1.00  0.00     0.013 A 
HETATM   23 BR1  UNL     1      30.038  -1.337  53.707  1.00  0.00    -0.051 Br
HETATM   24  C16 UNL     1      27.398  -0.314  53.114  1.00  0.00     0.048 A 
ENDBRANCH  16  18
ENDBRANCH   1  16
TORSDOF 2
ENDMDL
MODEL 2
REMARK VINA RESULT:      -8.4      2.892      6.620
REMARK  2 active torsions:
REMARK  status: ('A' for Active; 'I' for Inactive)
REMARK    1  A    between atoms: C5_6  and  N1_7 
REMARK    2  A    between atoms: N1_7  and  C6_8 
ROOT
HETATM    1  C6  UNL     1      23.374  -0.423  53.456  1.00  0.00     0.160 A 
HETATM    2  N2  UNL     1      22.779  -1.048  54.470  1.00  0.00    -0.222 NA
HETATM    3  C7  UNL     1      23.417  -1.441  55.582  1.00  0.00     0.238 A 
HETATM    4  N3  UNL     1      24.730  -1.235  55.769  1.00  0.00    -0.216 NA
HETATM    5  C8  UNL     1      25.385  -0.608  54.779  1.00  0.00     0.197 A 
HETATM    6  C9  UNL     1      24.698  -0.208  53.626  1.00  0.00     0.128 A 
HETATM    7  N4  UNL     1      25.340   0.447  52.520  1.00  0.00    -0.382 N 
HETATM    8  C10 UNL     1      26.545   1.283  52.600  1.00  0.00     0.137 C 
HETATM    9  C11 UNL     1      27.751   0.547  53.053  1.00  0.00     0.032 A 
HETATM   10  C12 UNL     1      28.849   1.388  53.524  1.00  0.00    -0.013 A 
HETATM   11  C13 UNL     1      28.904   0.682  54.652  1.00  0.00     0.009 A 
HETATM   12  C14 UNL     1      27.795  -0.224  54.244  1.00  0.00     0.101 A 
HETATM   13  C15 UNL     1      27.943  -0.890  52.881  1.00  0.00     0.062 A 
HETATM   14  O1  UNL     1      26.744  -0.447  55.079  1.00  0.00    -0.316 OA
HETATM   15  H6  UNL     1      24.862   0.264  51.606  1.00  0.00     0.160 HD
ENDROOT
BRANCH   1  16
HETATM   16  N1  UNL     1      22.694  -0.004  52.288  1.00  0.00    -0.339 N 
HETATM   17  H4  UNL     1      22.666  -0.431  51.344  1.00  0.00     0.167 HD
BRANCH  16  18
HETATM   18  C5  UNL     1      21.884   1.166  52.198  1.00  0.00     0.035 A 
HETATM   19  C4  UNL     1      20.509   1.226  52.336  1.00  0.00     0.029 A 
HETATM   20  C3  UNL     1      19.720   2.335  52.266  1.00  0.00     0.004 A 
HETATM   21  C2  UNL     1      20.340   3.542  52.034  1.00  0.00     0.019 A 
HETATM   22  C1  UNL     1      21.706   3.592  51.883  1.00  0.00     0.013 A 
HETATM   23 BR1  UNL     1      22.498   5.301  51.564  1.00  0.00    -0.051 Br
HETATM   24  C16 UNL     1      22.420   2.437  51.967  1.00  0.00     0.048 A 
ENDBRANCH  16  18
ENDBRANCH   1  16
TORSDOF 2
ENDMDL
MODEL 3
REMARK VINA RESULT:      -8.3      3.228      6.999
REMARK  2 active torsions:
REMARK  status: ('A' for Active; 'I' for Inactive)
REMARK    1  A    between atoms: C5_6  and  N1_7 
REMARK    2  A    between atoms: N1_7  and  C6_8 
ROOT
HETATM    1  C6  UNL     1      23.492  -0.416  53.389  1.00  0.00     0.160 A 
HETATM    2  N2  UNL     1      22.867  -1.038  54.386  1.00  0.00    -0.222 NA
HETATM    3  C7  UNL     1      23.469  -1.416  55.522  1.00  0.00     0.238 A 
HETATM    4  N3  UNL     1      24.773  -1.196  55.754  1.00  0.00    -0.216 NA
HETATM    5  C8  UNL     1      25.457  -0.571  54.782  1.00  0.00     0.197 A 
HETATM    6  C9  UNL     1      24.807  -0.186  53.603  1.00  0.00     0.128 A 
HETATM    7  N4  UNL     1      25.482   0.466  52.515  1.00  0.00    -0.382 N 
HETATM    8  C10 UNL     1      26.676   1.314  52.631  1.00  0.00     0.137 C 
HETATM    9  C11 UNL     1      27.872   0.592  53.132  1.00  0.00     0.032 A 
HETATM   10  C12 UNL     1      28.944   1.447  53.635  1.00  0.00    -0.013 A 
HETATM   11  C13 UNL     1      28.966   0.751  54.769  1.00  0.00     0.009 A 
HETATM   12  C14 UNL     1      27.880  -0.169  54.329  1.00  0.00     0.101 A 
HETATM   13  C15 UNL     1      28.082  -0.844  52.978  1.00  0.00     0.062 A 
HETATM   14  O1  UNL     1      26.802  -0.395  55.129  1.00  0.00    -0.316 OA
HETATM   15  H6  UNL     1      25.038   0.272  51.586  1.00  0.00     0.160 HD
ENDROOT
BRANCH   1  16
HETATM   16  N1  UNL     1      22.850  -0.012  52.194  1.00  0.00    -0.339 N 
HETATM   17  H4  UNL     1      23.119  -0.172  51.206  1.00  0.00     0.167 HD
BRANCH  16  18
HETATM   18  C5  UNL     1      21.645   0.750  52.139  1.00  0.00     0.035 A 
HETATM   19  C4  UNL     1      21.513   2.098  52.425  1.00  0.00     0.029 A 
HETATM   20  C3  UNL     1      20.375   2.846  52.364  1.00  0.00     0.004 A 
HETATM   21  C2  UNL     1      19.217   2.211  51.978  1.00  0.00     0.019 A 
HETATM   22  C1  UNL     1      19.241   0.869  51.670  1.00  0.00     0.013 A 
HETATM   23 BR1  UNL     1      17.597   0.054  51.141  1.00  0.00    -0.051 Br
HETATM   24  C16 UNL     1      20.420   0.196  51.757  1.00  0.00     0.048 A 
ENDBRANCH  16  18
ENDBRANCH   1  16
TORSDOF 2
ENDMDL
MODEL 4
REMARK VINA RESULT:      -8.1      4.559      6.437
REMARK  2 active torsions:
REMARK  status: ('A' for Active; 'I' for Inactive)
REMARK    1  A    between atoms: C5_6  and  N1_7 
REMARK    2  A    between atoms: N1_7  and  C6_8 
ROOT
HETATM    1  C6  UNL     1      24.041   3.702  51.002  1.00  0.00     0.160 A 
HETATM    2  N2  UNL     1      22.950   3.475  50.275  1.00  0.00    -0.222 NA
HETATM    3  C7  UNL     1      22.283   2.311  50.273  1.00  0.00     0.238 A 
HETATM    4  N3  UNL     1      22.667   1.261  51.016  1.00  0.00    -0.216 NA
HETATM    5  C8  UNL     1      23.764   1.431  51.772  1.00  0.00     0.197 A 
HETATM    6  C9  UNL     1      24.444   2.655  51.757  1.00  0.00     0.128 A 
HETATM    7  N4  UNL     1      25.635   2.898  52.522  1.00  0.00    -0.382 N 
HETATM    8  C10 UNL     1      25.993   2.236  53.784  1.00  0.00     0.137 C 
HETATM    9  C11 UNL     1      26.203   0.773  53.650  1.00  0.00     0.032 A 
HETATM   10  C12 UNL     1      26.165   0.025  54.904  1.00  0.00    -0.013 A 
HETATM   11  C13 UNL     1      25.266  -0.805  54.380  1.00  0.00     0.009 A 
HETATM   12  C14 UNL     1      25.251  -0.102  53.068  1.00  0.00     0.101 A 
HETATM   13  C15 UNL     1      26.608   0.118  52.410  1.00  0.00     0.062 A 
HETATM   14  O1  UNL     1      24.071   0.276  52.502  1.00  0.00    -0.316 OA
HETATM   15  H6  UNL     1      26.262   3.613  52.084  1.00  0.00     0.160 HD
ENDROOT
BRANCH   1  16
HETATM   16  N1  UNL     1      24.736   4.935  51.005  1.00  0.00    -0.339 N 
HETATM   17  H4  UNL     1      24.649   5.747  51.644  1.00  0.00     0.167 HD
BRANCH  16  18
HETATM   18  C5  UNL     1      25.733   5.306  50.056  1.00  0.00     0.035 A 
HETATM   19  C4  UNL     1      26.701   4.478  49.516  1.00  0.00     0.029 A 
HETATM   20  C3  UNL     1      27.653   4.810  48.599  1.00  0.00     0.004 A 
HETATM   21  C2  UNL     1      27.672   6.109  48.145  1.00  0.00     0.019 A 
HETATM   22  C1  UNL     1      26.750   7.014  48.619  1.00  0.00     0.013 A 
HETATM   23 BR1  UNL     1      26.835   8.799  47.944  1.00  0.00    -0.051 Br
HETATM   24  C16 UNL     1      25.833   6.599  49.534  1.00  0.00     0.048 A 
ENDBRANCH  16  18
ENDBRANCH   1  16
TORSDOF 2
ENDMDL
MODEL 5
REMARK VINA RESULT:      -7.9      4.508      5.417
REMARK  2 active torsions:
REMARK  status: ('A' for Active; 'I' for Inactive)
REMARK    1  A    between atoms: C5_6  and  N1_7 
REMARK    2  A    between atoms: N1_7  and  C6_8 
ROOT
HETATM    1  C6  UNL     1      26.263   2.636  50.842  1.00  0.00     0.160 A 
HETATM    2  N2  UNL     1      27.250   2.496  51.724  1.00  0.00    -0.222 NA
HETATM    3  C7  UNL     1      27.081   2.006  52.961  1.00  0.00     0.238 A 
HETATM    4  N3  UNL     1      25.883   1.609  53.420  1.00  0.00    -0.216 NA
HETATM    5  C8  UNL     1      24.848   1.727  52.573  1.00  0.00     0.197 A 
HETATM    6  C9  UNL     1      25.049   2.242  51.287  1.00  0.00     0.128 A 
HETATM    7  N4  UNL     1      23.984   2.415  50.338  1.00  0.00    -0.382 N 
HETATM    8  C10 UNL     1      22.747   1.625  50.283  1.00  0.00     0.137 C 
HETATM    9  C11 UNL     1      21.893   1.772  51.488  1.00  0.00     0.032 A 
HETATM   10  C12 UNL     1      20.882   0.732  51.660  1.00  0.00    -0.013 A 
HETATM   11  C13 UNL     1      21.313   0.520  52.902  1.00  0.00     0.009 A 
HETATM   12  C14 UNL     1      22.367   1.569  52.810  1.00  0.00     0.101 A 
HETATM   13  C15 UNL     1      21.901   2.947  52.355  1.00  0.00     0.062 A 
HETATM   14  O1  UNL     1      23.653   1.285  53.154  1.00  0.00    -0.316 OA
HETATM   15  H6  UNL     1      24.165   3.194  49.661  1.00  0.00     0.160 HD
ENDROOT
BRANCH   1  16
HETATM   16  N1  UNL     1      26.450   3.147  49.535  1.00  0.00    -0.339 N 
HETATM   17  H4  UNL     1      26.422   2.661  48.620  1.00  0.00     0.167 HD
BRANCH  16  18
HETATM   18  C5  UNL     1      26.743   4.509  49.231  1.00  0.00     0.035 A 
HETATM   19  C4  UNL     1      27.850   4.977  48.546  1.00  0.00     0.029 A 
HETATM   20  C3  UNL     1      28.140   6.271  48.233  1.00  0.00     0.004 A 
HETATM   21  C2  UNL     1      27.246   7.237  48.634  1.00  0.00     0.019 A 
HETATM   22  C1  UNL     1      26.111   6.877  49.323  1.00  0.00     0.013 A 
HETATM   23 BR1  UNL     1      24.915   8.270  49.848  1.00  0.00    -0.051 Br
HETATM   24  C16 UNL     1      25.897   5.561  49.594  1.00  0.00     0.048 A 
ENDBRANCH  16  18
ENDBRANCH   1  16
TORSDOF 2
ENDMDL
MODEL 6
REMARK VINA RESULT:      -7.9      3.170      6.479
REMARK  2 active torsions:
REMARK  status: ('A' for Active; 'I' for Inactive)
REMARK    1  A    between atoms: C5_6  and  N1_7 
REMARK    2  A    between atoms: N1_7  and  C6_8 
ROOT
HETATM    1  C6  UNL     1      22.663   0.909  53.263  1.00  0.00     0.160 A 
HETATM    2  N2  UNL     1      21.877   0.091  53.959  1.00  0.00    -0.222 NA
HETATM    3  C7  UNL     1      22.332  -0.928  54.702  1.00  0.00     0.238 A 
HETATM    4  N3  UNL     1      23.639  -1.213  54.807  1.00  0.00    -0.216 NA
HETATM    5  C8  UNL     1      24.482  -0.421  54.126  1.00  0.00     0.197 A 
HETATM    6  C9  UNL     1      23.983   0.637  53.357  1.00  0.00     0.128 A 
HETATM    7  N4  UNL     1      24.826   1.510  52.586  1.00  0.00    -0.382 N 
HETATM    8  C10 UNL     1      26.226   1.836  52.887  1.00  0.00     0.137 C 
HETATM    9  C11 UNL     1      27.136   0.665  52.826  1.00  0.00     0.032 A 
HETATM   10  C12 UNL     1      28.425   0.847  53.489  1.00  0.00    -0.013 A 
HETATM   11  C13 UNL     1      28.229  -0.277  54.175  1.00  0.00     0.009 A 
HETATM   12  C14 UNL     1      26.908  -0.539  53.541  1.00  0.00     0.101 A 
HETATM   13  C15 UNL     1      26.883  -0.523  52.017  1.00  0.00     0.062 A 
HETATM   14  O1  UNL     1      25.816  -0.809  54.308  1.00  0.00    -0.316 OA
HETATM   15  H6  UNL     1      24.341   1.908  51.748  1.00  0.00     0.160 HD
ENDROOT
BRANCH   1  16
HETATM   16  N1  UNL     1      22.176   1.988  52.488  1.00  0.00    -0.339 N 
HETATM   17  H4  UNL     1      21.860   2.931  52.782  1.00  0.00     0.167 HD
BRANCH  16  18
HETATM   18  C5  UNL     1      22.011   1.959  51.071  1.00  0.00     0.035 A 
HETATM   19  C4  UNL     1      21.553   0.892  50.320  1.00  0.00     0.029 A 
HETATM   20  C3  UNL     1      21.375   0.849  48.969  1.00  0.00     0.004 A 
HETATM   21  C2  UNL     1      21.679   1.984  48.253  1.00  0.00     0.019 A 
HETATM   22  C1  UNL     1      22.143   3.103  48.906  1.00  0.00     0.013 A 
HETATM   23 BR1  UNL     1      22.544   4.642  47.847  1.00  0.00    -0.051 Br
HETATM   24  C16 UNL     1      22.291   3.061  50.257  1.00  0.00     0.048 A 
ENDBRANCH  16  18
ENDBRANCH   1  16
TORSDOF 2
ENDMDL
MODEL 7
REMARK VINA RESULT:      -7.8      4.640      6.437
REMARK  2 active torsions:
REMARK  status: ('A' for Active; 'I' for Inactive)
REMARK    1  A    between atoms: C5_6  and  N1_7 
REMARK    2  A    between atoms: N1_7  and  C6_8 
ROOT
HETATM    1  C6  UNL     1      23.095   4.361  52.371  1.00  0.00     0.160 A 
HETATM    2  N2  UNL     1      21.819   4.246  52.008  1.00  0.00    -0.222 NA
HETATM    3  C7  UNL     1      21.166   3.078  51.940  1.00  0.00     0.238 A 
HETATM    4  N3  UNL     1      21.751   1.907  52.237  1.00  0.00    -0.216 NA
HETATM    5  C8  UNL     1      23.040   1.960  52.611  1.00  0.00     0.197 A 
HETATM    6  C9  UNL     1      23.702   3.192  52.674  1.00  0.00     0.128 A 
HETATM    7  N4  UNL     1      25.084   3.319  53.044  1.00  0.00    -0.382 N 
HETATM    8  C10 UNL     1      25.827   2.401  53.918  1.00  0.00     0.137 C 
HETATM    9  C11 UNL     1      25.949   1.027  53.370  1.00  0.00     0.032 A 
HETATM   10  C12 UNL     1      26.313   0.002  54.346  1.00  0.00    -0.013 A 
HETATM   11  C13 UNL     1      25.274  -0.734  53.958  1.00  0.00     0.009 A 
HETATM   12  C14 UNL     1      24.839   0.258  52.936  1.00  0.00     0.101 A 
HETATM   13  C15 UNL     1      25.907   0.710  51.946  1.00  0.00     0.062 A 
HETATM   14  O1  UNL     1      23.548   0.686  52.896  1.00  0.00    -0.316 OA
HETATM   15  H6  UNL     1      25.546   4.155  52.613  1.00  0.00     0.160 HD
ENDROOT
BRANCH   1  16
HETATM   16  N1  UNL     1      23.777   5.599  52.448  1.00  0.00    -0.339 N 
HETATM   17  H4  UNL     1      24.094   6.134  53.277  1.00  0.00     0.167 HD
BRANCH  16  18
HETATM   18  C5  UNL     1      24.161   6.384  51.321  1.00  0.00     0.035 A 
HETATM   19  C4  UNL     1      23.542   7.539  50.877  1.00  0.00     0.029 A 
HETATM   20  C3  UNL     1      23.902   8.311  49.812  1.00  0.00     0.004 A 
HETATM   21  C2  UNL     1      25.001   7.916  49.084  1.00  0.00     0.019 A 
HETATM   22  C1  UNL     1      25.689   6.780  49.444  1.00  0.00     0.013 A 
HETATM   23 BR1  UNL     1      27.205   6.293  48.389  1.00  0.00    -0.051 Br
HETATM   24  C16 UNL     1      25.263   6.067  50.522  1.00  0.00     0.048 A 
ENDBRANCH  16  18
ENDBRANCH   1  16
TORSDOF 2
ENDMDL
MODEL 8
REMARK VINA RESULT:      -7.8      4.033      6.335
REMARK  2 active torsions:
REMARK  status: ('A' for Active; 'I' for Inactive)
REMARK    1  A    between atoms: C5_6  and  N1_7 
REMARK    2  A    between atoms: N1_7  and  C6_8 
ROOT
HETATM    1  C6  UNL     1      23.811   2.343  50.979  1.00  0.00     0.160 A 
HETATM    2  N2  UNL     1      22.541   2.164  51.332  1.00  0.00    -0.222 NA
HETATM    3  C7  UNL     1      22.158   1.467  52.412  1.00  0.00     0.238 A 
HETATM    4  N3  UNL     1      23.037   0.881  53.240  1.00  0.00    -0.216 NA
HETATM    5  C8  UNL     1      24.336   1.027  52.934  1.00  0.00     0.197 A 
HETATM    6  C9  UNL     1      24.712   1.759  51.801  1.00  0.00     0.128 A 
HETATM    7  N4  UNL     1      26.081   1.937  51.403  1.00  0.00    -0.382 N 
HETATM    8  C10 UNL     1      27.244   1.930  52.302  1.00  0.00     0.137 C 
HETATM    9  C11 UNL     1      27.459   0.632  52.987  1.00  0.00     0.032 A 
HETATM   10  C12 UNL     1      28.328   0.688  54.160  1.00  0.00    -0.013 A 
HETATM   11  C13 UNL     1      27.395   0.069  54.879  1.00  0.00     0.009 A 
HETATM   12  C14 UNL     1      26.452  -0.034  53.732  1.00  0.00     0.101 A 
HETATM   13  C15 UNL     1      27.014  -0.653  52.458  1.00  0.00     0.062 A 
HETATM   14  O1  UNL     1      25.161   0.378  53.861  1.00  0.00    -0.316 OA
HETATM   15  H6  UNL     1      26.192   2.069  50.370  1.00  0.00     0.160 HD
ENDROOT
BRANCH   1  16
HETATM   16  N1  UNL     1      24.210   3.086  49.843  1.00  0.00    -0.339 N 
HETATM   17  H4  UNL     1      24.218   2.819  48.841  1.00  0.00     0.167 HD
BRANCH  16  18
HETATM   18  C5  UNL     1      24.716   4.418  49.882  1.00  0.00     0.035 A 
HETATM   19  C4  UNL     1      24.204   5.470  50.621  1.00  0.00     0.029 A 
HETATM   20  C3  UNL     1      24.681   6.745  50.682  1.00  0.00     0.004 A 
HETATM   21  C2  UNL     1      25.798   7.042  49.935  1.00  0.00     0.019 A 
HETATM   22  C1  UNL     1      26.387   6.065  49.165  1.00  0.00     0.013 A 
HETATM   23 BR1  UNL     1      27.934   6.548  48.155  1.00  0.00    -0.051 Br
HETATM   24  C16 UNL     1      25.846   4.817  49.161  1.00  0.00     0.048 A 
ENDBRANCH  16  18
ENDBRANCH   1  16
TORSDOF 2
ENDMDL
MODEL 9
REMARK VINA RESULT:      -7.5      5.765      6.973
REMARK  2 active torsions:
REMARK  status: ('A' for Active; 'I' for Inactive)
REMARK    1  A    between atoms: C5_6  and  N1_7 
REMARK    2  A    between atoms: N1_7  and  C6_8 
ROOT
HETATM    1  C6  UNL     1      23.494   6.378  51.176  1.00  0.00     0.160 A 
HETATM    2  N2  UNL     1      22.481   7.096  50.696  1.00  0.00    -0.222 NA
HETATM    3  C7  UNL     1      21.241   6.615  50.527  1.00  0.00     0.238 A 
HETATM    4  N3  UNL     1      20.912   5.351  50.833  1.00  0.00    -0.216 NA
HETATM    5  C8  UNL     1      21.894   4.577  51.323  1.00  0.00     0.197 A 
HETATM    6  C9  UNL     1      23.182   5.101  51.489  1.00  0.00     0.128 A 
HETATM    7  N4  UNL     1      24.284   4.325  51.987  1.00  0.00    -0.382 N 
HETATM    8  C10 UNL     1      24.182   3.170  52.889  1.00  0.00     0.137 C 
HETATM    9  C11 UNL     1      23.446   2.021  52.306  1.00  0.00     0.032 A 
HETATM   10  C12 UNL     1      22.979   1.030  53.272  1.00  0.00    -0.013 A 
HETATM   11  C13 UNL     1      21.751   1.119  52.765  1.00  0.00     0.009 A 
HETATM   12  C14 UNL     1      22.148   2.129  51.745  1.00  0.00     0.101 A 
HETATM   13  C15 UNL     1      23.343   1.763  50.873  1.00  0.00     0.062 A 
HETATM   14  O1  UNL     1      21.440   3.283  51.606  1.00  0.00    -0.316 OA
HETATM   15  H6  UNL     1      25.211   4.658  51.630  1.00  0.00     0.160 HD
ENDROOT
BRANCH   1  16
HETATM   16  N1  UNL     1      24.800   6.894  51.359  1.00  0.00    -0.339 N 
HETATM   17  H4  UNL     1      25.271   7.222  52.222  1.00  0.00     0.167 HD
BRANCH  16  18
HETATM   18  C5  UNL     1      25.753   7.076  50.315  1.00  0.00     0.035 A 
HETATM   19  C4  UNL     1      26.086   6.156  49.337  1.00  0.00     0.029 A 
HETATM   20  C3  UNL     1      26.983   6.316  48.323  1.00  0.00     0.004 A 
HETATM   21  C2  UNL     1      27.643   7.521  48.244  1.00  0.00     0.019 A 
HETATM   22  C1  UNL     1      27.384   8.506  49.169  1.00  0.00     0.013 A 
HETATM   23 BR1  UNL     1      28.337  10.153  48.998  1.00  0.00    -0.051 Br
HETATM   24  C16 UNL     1      26.473   8.264  50.150  1.00  0.00     0.048 A 
ENDBRANCH  16  18
ENDBRANCH   1  16
TORSDOF 2
ENDMDL
