MODEL 1
REMARK VINA RESULT:      -9.7      0.000      0.000
REMARK  4 active torsions:
REMARK  status: ('A' for Active; 'I' for Inactive)
REMARK    1  A    between atoms: C5_5  and  N1_6 
REMARK    2  A    between atoms: N1_6  and  C6_7 
REMARK    3  A    between atoms: N4_18  and  C15_19 
REMARK    4  A    between atoms: C15_19  and  N5_20 
ROOT
HETATM    1  C6  UNL     1      25.521   2.406  51.285  1.00  0.00     0.142 A 
HETATM    2  N2  UNL     1      26.815   2.640  51.532  1.00  0.00    -0.223 NA
HETATM    3  C7  UNL     1      27.421   1.943  52.538  1.00  0.00     0.236 A 
HETATM    4  N3  UNL     1      26.696   1.063  53.228  1.00  0.00    -0.241 NA
HETATM    5  C8  UNL     1      25.405   0.810  53.002  1.00  0.00     0.075 A 
HETATM    6  C9  UNL     1      24.773  -0.093  53.831  1.00  0.00     0.071 A 
HETATM    7  C10 UNL     1      23.426  -0.305  53.621  1.00  0.00     0.099 A 
HETATM    8  C11 UNL     1      22.806   0.388  52.602  1.00  0.00     0.079 A 
HETATM    9  C12 UNL     1      23.422   1.287  51.757  1.00  0.00    -0.016 A 
HETATM   10  C13 UNL     1      22.797   1.850  50.585  1.00  0.00     0.052 C 
HETATM   11  C14 UNL     1      24.769   1.498  51.989  1.00  0.00     0.047 A 
HETATM   12  N4  UNL     1      21.399   0.362  52.418  1.00  0.00    -0.298 N 
HETATM   13  C18 UNL     1      20.761  -0.483  53.434  1.00  0.00     0.249 C 
HETATM   14  O2  UNL     1      19.517  -0.643  53.542  1.00  0.00    -0.271 OA
HETATM   15  C19 UNL     1      21.384  -1.301  54.510  1.00  0.00     0.279 C 
HETATM   16  O3  UNL     1      22.795  -1.219  54.469  1.00  0.00    -0.340 OA
ENDROOT
BRANCH   1  17
HETATM   17  N1  UNL     1      24.890   3.253  50.304  1.00  0.00    -0.340 N 
HETATM   18  H6  UNL     1      24.282   3.771  49.650  1.00  0.00     0.167 HD
BRANCH  17  19
HETATM   19  C5  UNL     1      25.861   4.120  49.676  1.00  0.00     0.033 A 
HETATM   20  C4  UNL     1      25.338   5.426  49.623  1.00  0.00     0.030 A 
HETATM   21  C3  UNL     1      26.009   6.514  49.044  1.00  0.00     0.009 A 
HETATM   22  C2  UNL     1      27.243   6.213  48.518  1.00  0.00    -0.062 A 
HETATM   23  C1  UNL     1      28.053   7.278  47.878  1.00  0.00     0.048 C 
HETATM   24  C21 UNL     1      27.837   4.975  48.522  1.00  0.00     0.009 A 
HETATM   25  C20 UNL     1      27.131   3.944  49.105  1.00  0.00     0.030 A 
ENDBRANCH  17  19
ENDBRANCH   1  17
BRANCH  12  26
HETATM   26  C15 UNL     1      20.450   0.984  51.606  1.00  0.00     0.253 C 
BRANCH  26  27
HETATM   27  N5  UNL     1      19.717   1.957  52.392  1.00  0.00    -0.177 NA
HETATM   28  C16 UNL     1      18.772   2.762  51.621  1.00  0.00     0.150 C 
HETATM   29  C17 UNL     1      19.840   3.841  51.638  1.00  0.00     0.210 C 
HETATM   30  O1  UNL     1      20.312   3.105  52.726  1.00  0.00    -0.301 OA
ENDBRANCH  26  27
ENDBRANCH  12  26
TORSDOF 4
ENDMDL
MODEL 2
REMARK VINA RESULT:      -9.7      3.347      5.144
REMARK  4 active torsions:
REMARK  status: ('A' for Active; 'I' for Inactive)
REMARK    1  A    between atoms: C5_5  and  N1_6 
REMARK    2  A    between atoms: N1_6  and  C6_7 
REMARK    3  A    between atoms: N4_18  and  C15_19 
REMARK    4  A    between atoms: C15_19  and  N5_20 
ROOT
HETATM    1  C6  UNL     1      23.596  -0.147  53.827  1.00  0.00     0.142 A 
HETATM    2  N2  UNL     1      23.955  -0.895  54.877  1.00  0.00    -0.223 NA
HETATM    3  C7  UNL     1      23.003  -1.664  55.483  1.00  0.00     0.236 A 
HETATM    4  N3  UNL     1      21.761  -1.635  55.001  1.00  0.00    -0.241 NA
HETATM    5  C8  UNL     1      21.376  -0.900  53.956  1.00  0.00     0.075 A 
HETATM    6  C9  UNL     1      20.044  -0.934  53.602  1.00  0.00     0.071 A 
HETATM    7  C10 UNL     1      19.650  -0.128  52.554  1.00  0.00     0.099 A 
HETATM    8  C11 UNL     1      20.604   0.648  51.930  1.00  0.00     0.079 A 
HETATM    9  C12 UNL     1      21.943   0.689  52.262  1.00  0.00    -0.016 A 
HETATM   10  C13 UNL     1      22.948   1.359  51.475  1.00  0.00     0.052 C 
HETATM   11  C14 UNL     1      22.319  -0.115  53.322  1.00  0.00     0.047 A 
HETATM   12  N4  UNL     1      20.266   1.626  50.959  1.00  0.00    -0.298 N 
HETATM   13  C18 UNL     1      18.815   1.661  50.745  1.00  0.00     0.249 C 
HETATM   14  O2  UNL     1      18.232   2.471  49.978  1.00  0.00    -0.271 OA
HETATM   15  C19 UNL     1      17.751   0.807  51.340  1.00  0.00     0.279 C 
HETATM   16  O3  UNL     1      18.296  -0.168  52.207  1.00  0.00    -0.340 OA
ENDROOT
BRANCH   1  17
HETATM   17  N1  UNL     1      24.598   0.745  53.299  1.00  0.00    -0.340 N 
HETATM   18  H6  UNL     1      25.175   1.503  52.902  1.00  0.00     0.167 HD
BRANCH  17  19
HETATM   19  C5  UNL     1      25.895   0.109  53.290  1.00  0.00     0.033 A 
HETATM   20  C4  UNL     1      26.775   0.859  54.094  1.00  0.00     0.030 A 
HETATM   21  C3  UNL     1      28.130   0.540  54.279  1.00  0.00     0.009 A 
HETATM   22  C2  UNL     1      28.552  -0.582  53.606  1.00  0.00    -0.062 A 
HETATM   23  C1  UNL     1      29.962  -1.026  53.721  1.00  0.00     0.048 C 
HETATM   24  C21 UNL     1      27.772  -1.377  52.802  1.00  0.00     0.009 A 
HETATM   25  C20 UNL     1      26.449  -1.015  52.658  1.00  0.00     0.030 A 
ENDBRANCH  17  19
ENDBRANCH   1  17
BRANCH  12  26
HETATM   26  C15 UNL     1      20.913   2.621  50.225  1.00  0.00     0.253 C 
BRANCH  26  27
HETATM   27  N5  UNL     1      20.546   3.919  50.758  1.00  0.00    -0.177 NA
HETATM   28  C16 UNL     1      21.424   5.009  50.340  1.00  0.00     0.150 C 
HETATM   29  C17 UNL     1      22.086   4.854  51.699  1.00  0.00     0.210 C 
HETATM   30  O1  UNL     1      20.880   4.224  52.014  1.00  0.00    -0.301 OA
ENDBRANCH  26  27
ENDBRANCH  12  26
TORSDOF 4
ENDMDL
MODEL 3
REMARK VINA RESULT:      -9.4      1.941      5.021
REMARK  4 active torsions:
REMARK  status: ('A' for Active; 'I' for Inactive)
REMARK    1  A    between atoms: C5_5  and  N1_6 
REMARK    2  A    between atoms: N1_6  and  C6_7 
REMARK    3  A    between atoms: N4_18  and  C15_19 
REMARK    4  A    between atoms: C15_19  and  N5_20 
ROOT
HETATM    1  C6  UNL     1      25.752   2.837  51.573  1.00  0.00     0.142 A 
HETATM    2  N2  UNL     1      26.792   3.238  50.833  1.00  0.00    -0.223 NA
HETATM    3  C7  UNL     1      26.591   3.477  49.504  1.00  0.00     0.236 A 
HETATM    4  N3  UNL     1      25.369   3.299  49.004  1.00  0.00    -0.241 NA
HETATM    5  C8  UNL     1      24.314   2.901  49.719  1.00  0.00     0.075 A 
HETATM    6  C9  UNL     1      23.121   2.713  49.053  1.00  0.00     0.071 A 
HETATM    7  C10 UNL     1      22.053   2.251  49.793  1.00  0.00     0.099 A 
HETATM    8  C11 UNL     1      22.242   2.013  51.138  1.00  0.00     0.079 A 
HETATM    9  C12 UNL     1      23.424   2.204  51.825  1.00  0.00    -0.016 A 
HETATM   10  C13 UNL     1      23.544   2.132  53.260  1.00  0.00     0.052 C 
HETATM   11  C14 UNL     1      24.488   2.656  51.066  1.00  0.00     0.047 A 
HETATM   12  N4  UNL     1      21.257   1.382  51.941  1.00  0.00    -0.298 N 
HETATM   13  C18 UNL     1      20.073   1.053  51.140  1.00  0.00     0.249 C 
HETATM   14  O2  UNL     1      19.067   0.439  51.582  1.00  0.00    -0.271 OA
HETATM   15  C19 UNL     1      19.790   1.342  49.707  1.00  0.00     0.279 C 
HETATM   16  O3  UNL     1      20.850   2.060  49.107  1.00  0.00    -0.340 OA
ENDROOT
BRANCH   1  17
HETATM   17  N1  UNL     1      26.035   2.473  52.939  1.00  0.00    -0.340 N 
HETATM   18  H6  UNL     1      26.145   2.367  53.960  1.00  0.00     0.167 HD
BRANCH  17  19
HETATM   19  C5  UNL     1      26.797   1.246  52.993  1.00  0.00     0.033 A 
HETATM   20  C4  UNL     1      28.035   1.508  53.611  1.00  0.00     0.030 A 
HETATM   21  C3  UNL     1      29.036   0.541  53.796  1.00  0.00     0.009 A 
HETATM   22  C2  UNL     1      28.720  -0.710  53.322  1.00  0.00    -0.062 A 
HETATM   23  C1  UNL     1      29.694  -1.820  53.458  1.00  0.00     0.048 C 
HETATM   24  C21 UNL     1      27.543  -1.063  52.707  1.00  0.00     0.009 A 
HETATM   25  C20 UNL     1      26.597  -0.071  52.553  1.00  0.00     0.030 A 
ENDBRANCH  17  19
ENDBRANCH   1  17
BRANCH  12  26
HETATM   26  C15 UNL     1      21.136   0.907  53.247  1.00  0.00     0.253 C 
BRANCH  26  27
HETATM   27  N5  UNL     1      21.281  -0.536  53.242  1.00  0.00    -0.177 NA
HETATM   28  C16 UNL     1      21.167  -1.155  54.561  1.00  0.00     0.150 C 
HETATM   29  C17 UNL     1      22.685  -1.196  54.556  1.00  0.00     0.210 C 
HETATM   30  O1  UNL     1      22.505  -1.066  53.177  1.00  0.00    -0.301 OA
ENDBRANCH  26  27
ENDBRANCH  12  26
TORSDOF 4
ENDMDL
MODEL 4
REMARK VINA RESULT:      -9.4      2.017      4.819
REMARK  4 active torsions:
REMARK  status: ('A' for Active; 'I' for Inactive)
REMARK    1  A    between atoms: C5_5  and  N1_6 
REMARK    2  A    between atoms: N1_6  and  C6_7 
REMARK    3  A    between atoms: N4_18  and  C15_19 
REMARK    4  A    between atoms: C15_19  and  N5_20 
ROOT
HETATM    1  C6  UNL     1      24.145   3.472  49.558  1.00  0.00     0.142 A 
HETATM    2  N2  UNL     1      23.202   3.958  48.743  1.00  0.00    -0.223 NA
HETATM    3  C7  UNL     1      21.904   3.602  48.966  1.00  0.00     0.236 A 
HETATM    4  N3  UNL     1      21.634   2.786  49.984  1.00  0.00    -0.241 NA
HETATM    5  C8  UNL     1      22.554   2.286  50.812  1.00  0.00     0.075 A 
HETATM    6  C9  UNL     1      22.131   1.413  51.792  1.00  0.00     0.071 A 
HETATM    7  C10 UNL     1      23.098   0.864  52.607  1.00  0.00     0.099 A 
HETATM    8  C11 UNL     1      24.413   1.222  52.396  1.00  0.00     0.079 A 
HETATM    9  C12 UNL     1      24.856   2.101  51.428  1.00  0.00    -0.016 A 
HETATM   10  C13 UNL     1      26.206   2.603  51.352  1.00  0.00     0.052 C 
HETATM   11  C14 UNL     1      23.875   2.633  50.612  1.00  0.00     0.047 A 
HETATM   12  N4  UNL     1      25.488   0.585  53.068  1.00  0.00    -0.298 N 
HETATM   13  C18 UNL     1      24.986  -0.451  53.977  1.00  0.00     0.249 C 
HETATM   14  O2  UNL     1      25.722  -1.211  54.660  1.00  0.00    -0.271 OA
HETATM   15  C19 UNL     1      23.583  -0.835  54.290  1.00  0.00     0.279 C 
HETATM   16  O3  UNL     1      22.658  -0.023  53.594  1.00  0.00    -0.340 OA
ENDROOT
BRANCH   1  17
HETATM   17  N1  UNL     1      25.512   3.768  49.210  1.00  0.00    -0.340 N 
HETATM   18  H6  UNL     1      26.504   3.799  48.924  1.00  0.00     0.167 HD
BRANCH  17  19
HETATM   19  C5  UNL     1      25.794   5.173  49.398  1.00  0.00     0.033 A 
HETATM   20  C4  UNL     1      26.910   5.522  48.613  1.00  0.00     0.030 A 
HETATM   21  C3  UNL     1      27.475   6.807  48.585  1.00  0.00     0.009 A 
HETATM   22  C2  UNL     1      26.852   7.726  49.395  1.00  0.00    -0.062 A 
HETATM   23  C1  UNL     1      27.353   9.120  49.453  1.00  0.00     0.048 C 
HETATM   24  C21 UNL     1      25.761   7.483  50.194  1.00  0.00     0.009 A 
HETATM   25  C20 UNL     1      25.249   6.202  50.181  1.00  0.00     0.030 A 
ENDBRANCH  17  19
ENDBRANCH   1  17
BRANCH  12  26
HETATM   26  C15 UNL     1      26.883   0.605  53.041  1.00  0.00     0.253 C 
BRANCH  26  27
HETATM   27  N5  UNL     1      27.367   1.449  54.117  1.00  0.00    -0.177 NA
HETATM   28  C16 UNL     1      28.478   2.321  53.742  1.00  0.00     0.150 C 
HETATM   29  C17 UNL     1      29.373   1.291  54.408  1.00  0.00     0.210 C 
HETATM   30  O1  UNL     1      28.181   0.926  55.037  1.00  0.00    -0.301 OA
ENDBRANCH  26  27
ENDBRANCH  12  26
TORSDOF 4
ENDMDL
MODEL 5
REMARK VINA RESULT:      -8.8      2.223      4.853
REMARK  4 active torsions:
REMARK  status: ('A' for Active; 'I' for Inactive)
REMARK    1  A    between atoms: C5_5  and  N1_6 
REMARK    2  A    between atoms: N1_6  and  C6_7 
REMARK    3  A    between atoms: N4_18  and  C15_19 
REMARK    4  A    between atoms: C15_19  and  N5_20 
ROOT
HETATM    1  C6  UNL     1      23.722   2.402  50.380  1.00  0.00     0.142 A 
HETATM    2  N2  UNL     1      22.892   2.534  49.339  1.00  0.00    -0.223 NA
HETATM    3  C7  UNL     1      21.741   1.800  49.327  1.00  0.00     0.236 A 
HETATM    4  N3  UNL     1      21.497   0.984  50.353  1.00  0.00    -0.241 NA
HETATM    5  C8  UNL     1      22.306   0.834  51.403  1.00  0.00     0.075 A 
HETATM    6  C9  UNL     1      21.945  -0.085  52.366  1.00  0.00     0.071 A 
HETATM    7  C10 UNL     1      22.816  -0.269  53.419  1.00  0.00     0.099 A 
HETATM    8  C11 UNL     1      23.978   0.472  53.445  1.00  0.00     0.079 A 
HETATM    9  C12 UNL     1      24.354   1.403  52.498  1.00  0.00    -0.016 A 
HETATM   10  C13 UNL     1      25.474   2.298  52.647  1.00  0.00     0.052 C 
HETATM   11  C14 UNL     1      23.475   1.567  51.443  1.00  0.00     0.047 A 
HETATM   12  N4  UNL     1      25.007   0.233  54.392  1.00  0.00    -0.298 N 
HETATM   13  C18 UNL     1      24.638  -0.869  55.288  1.00  0.00     0.249 C 
HETATM   14  O2  UNL     1      25.387  -1.331  56.189  1.00  0.00    -0.271 OA
HETATM   15  C19 UNL     1      23.377  -1.658  55.346  1.00  0.00     0.279 C 
HETATM   16  O3  UNL     1      22.441  -1.206  54.387  1.00  0.00    -0.340 OA
ENDROOT
BRANCH   1  17
HETATM   17  N1  UNL     1      24.983   3.095  50.291  1.00  0.00    -0.340 N 
HETATM   18  H6  UNL     1      25.960   3.428  50.272  1.00  0.00     0.167 HD
BRANCH  17  19
HETATM   19  C5  UNL     1      24.778   4.486  49.955  1.00  0.00     0.033 A 
HETATM   20  C4  UNL     1      24.085   5.111  51.009  1.00  0.00     0.030 A 
HETATM   21  C3  UNL     1      23.692   6.459  50.995  1.00  0.00     0.009 A 
HETATM   22  C2  UNL     1      24.038   7.146  49.855  1.00  0.00    -0.062 A 
HETATM   23  C1  UNL     1      23.681   8.579  49.719  1.00  0.00     0.048 C 
HETATM   24  C21 UNL     1      24.712   6.626  48.778  1.00  0.00     0.009 A 
HETATM   25  C20 UNL     1      25.072   5.296  48.847  1.00  0.00     0.030 A 
ENDBRANCH  17  19
ENDBRANCH   1  17
BRANCH  12  26
HETATM   26  C15 UNL     1      26.301   0.686  54.651  1.00  0.00     0.253 C 
BRANCH  26  27
HETATM   27  N5  UNL     1      27.251  -0.330  54.240  1.00  0.00    -0.177 NA
HETATM   28  C16 UNL     1      28.601  -0.137  54.766  1.00  0.00     0.150 C 
HETATM   29  C17 UNL     1      28.933   0.448  53.404  1.00  0.00     0.210 C 
HETATM   30  O1  UNL     1      27.792  -0.260  53.021  1.00  0.00    -0.301 OA
ENDBRANCH  26  27
ENDBRANCH  12  26
TORSDOF 4
ENDMDL
MODEL 6
REMARK VINA RESULT:      -8.8      4.510      8.565
REMARK  4 active torsions:
REMARK  status: ('A' for Active; 'I' for Inactive)
REMARK    1  A    between atoms: C5_5  and  N1_6 
REMARK    2  A    between atoms: N1_6  and  C6_7 
REMARK    3  A    between atoms: N4_18  and  C15_19 
REMARK    4  A    between atoms: C15_19  and  N5_20 
ROOT
HETATM    1  C6  UNL     1      25.262   3.583  50.813  1.00  0.00     0.142 A 
HETATM    2  N2  UNL     1      24.364   3.168  51.713  1.00  0.00    -0.223 NA
HETATM    3  C7  UNL     1      23.518   4.089  52.261  1.00  0.00     0.236 A 
HETATM    4  N3  UNL     1      23.626   5.360  51.874  1.00  0.00    -0.241 NA
HETATM    5  C8  UNL     1      24.512   5.801  50.978  1.00  0.00     0.075 A 
HETATM    6  C9  UNL     1      24.538   7.155  50.714  1.00  0.00     0.071 A 
HETATM    7  C10 UNL     1      25.493   7.604  49.826  1.00  0.00     0.099 A 
HETATM    8  C11 UNL     1      26.349   6.681  49.261  1.00  0.00     0.079 A 
HETATM    9  C12 UNL     1      26.332   5.323  49.505  1.00  0.00    -0.016 A 
HETATM   10  C13 UNL     1      27.107   4.361  48.760  1.00  0.00     0.052 C 
HETATM   11  C14 UNL     1      25.377   4.890  50.406  1.00  0.00     0.047 A 
HETATM   12  N4  UNL     1      27.463   7.067  48.472  1.00  0.00    -0.298 N 
HETATM   13  C18 UNL     1      27.538   8.528  48.364  1.00  0.00     0.249 C 
HETATM   14  O2  UNL     1      28.457   9.148  47.768  1.00  0.00    -0.271 OA
HETATM   15  C19 UNL     1      26.611   9.564  48.896  1.00  0.00     0.279 C 
HETATM   16  O3  UNL     1      25.514   8.978  49.569  1.00  0.00    -0.340 OA
ENDROOT
BRANCH   1  17
HETATM   17  N1  UNL     1      26.218   2.605  50.358  1.00  0.00    -0.340 N 
HETATM   18  H6  UNL     1      26.875   1.979  49.865  1.00  0.00     0.167 HD
BRANCH  17  19
HETATM   19  C5  UNL     1      26.667   1.780  51.456  1.00  0.00     0.033 A 
HETATM   20  C4  UNL     1      27.547   2.531  52.259  1.00  0.00     0.030 A 
HETATM   21  C3  UNL     1      28.196   2.023  53.395  1.00  0.00     0.009 A 
HETATM   22  C2  UNL     1      27.909   0.709  53.680  1.00  0.00    -0.062 A 
HETATM   23  C1  UNL     1      28.531   0.055  54.857  1.00  0.00     0.048 C 
HETATM   24  C21 UNL     1      27.067  -0.103  52.961  1.00  0.00     0.009 A 
HETATM   25  C20 UNL     1      26.457   0.451  51.854  1.00  0.00     0.030 A 
ENDBRANCH  17  19
ENDBRANCH   1  17
BRANCH  12  26
HETATM   26  C15 UNL     1      28.553   6.454  47.852  1.00  0.00     0.253 C 
BRANCH  26  27
HETATM   27  N5  UNL     1      29.713   6.562  48.717  1.00  0.00    -0.177 NA
HETATM   28  C16 UNL     1      30.944   6.939  48.025  1.00  0.00     0.150 C 
HETATM   29  C17 UNL     1      31.293   5.461  48.065  1.00  0.00     0.210 C 
HETATM   30  O1  UNL     1      30.348   5.450  49.093  1.00  0.00    -0.301 OA
ENDBRANCH  26  27
ENDBRANCH  12  26
TORSDOF 4
ENDMDL
MODEL 7
REMARK VINA RESULT:      -8.3      4.946      9.727
REMARK  4 active torsions:
REMARK  status: ('A' for Active; 'I' for Inactive)
REMARK    1  A    between atoms: C5_5  and  N1_6 
REMARK    2  A    between atoms: N1_6  and  C6_7 
REMARK    3  A    between atoms: N4_18  and  C15_19 
REMARK    4  A    between atoms: C15_19  and  N5_20 
ROOT
HETATM    1  C6  UNL     1      25.357   6.011  50.237  1.00  0.00     0.142 A 
HETATM    2  N2  UNL     1      24.263   6.227  50.977  1.00  0.00    -0.223 NA
HETATM    3  C7  UNL     1      23.743   7.488  51.014  1.00  0.00     0.236 A 
HETATM    4  N3  UNL     1      24.347   8.447  50.314  1.00  0.00    -0.241 NA
HETATM    5  C8  UNL     1      25.438   8.260  49.568  1.00  0.00     0.075 A 
HETATM    6  C9  UNL     1      25.981   9.359  48.937  1.00  0.00     0.071 A 
HETATM    7  C10 UNL     1      27.138   9.162  48.213  1.00  0.00     0.099 A 
HETATM    8  C11 UNL     1      27.670   7.890  48.162  1.00  0.00     0.079 A 
HETATM    9  C12 UNL     1      27.136   6.776  48.777  1.00  0.00    -0.016 A 
HETATM   10  C13 UNL     1      27.602   5.430  48.551  1.00  0.00     0.052 C 
HETATM   11  C14 UNL     1      25.984   6.993  49.508  1.00  0.00     0.047 A 
HETATM   12  N4  UNL     1      28.939   7.623  47.585  1.00  0.00    -0.298 N 
HETATM   13  C18 UNL     1      29.546   8.859  47.079  1.00  0.00     0.249 C 
HETATM   14  O2  UNL     1      30.694   8.927  46.567  1.00  0.00    -0.271 OA
HETATM   15  C19 UNL     1      28.993  10.241  47.051  1.00  0.00     0.279 C 
HETATM   16  O3  UNL     1      27.683  10.283  47.581  1.00  0.00    -0.340 OA
ENDROOT
BRANCH   1  17
HETATM   17  N1  UNL     1      25.947   4.699  50.327  1.00  0.00    -0.340 N 
HETATM   18  H6  UNL     1      26.532   3.850  50.384  1.00  0.00     0.167 HD
BRANCH  17  19
HETATM   19  C5  UNL     1      24.923   3.682  50.393  1.00  0.00     0.033 A 
HETATM   20  C4  UNL     1      24.221   3.663  49.173  1.00  0.00     0.030 A 
HETATM   21  C3  UNL     1      23.135   2.813  48.908  1.00  0.00     0.009 A 
HETATM   22  C2  UNL     1      22.793   1.979  49.946  1.00  0.00    -0.062 A 
HETATM   23  C1  UNL     1      21.663   1.032  49.791  1.00  0.00     0.048 C 
HETATM   24  C21 UNL     1      23.415   1.923  51.170  1.00  0.00     0.009 A 
HETATM   25  C20 UNL     1      24.476   2.781  51.372  1.00  0.00     0.030 A 
ENDBRANCH  17  19
ENDBRANCH   1  17
BRANCH  12  26
HETATM   26  C15 UNL     1      29.806   6.538  47.449  1.00  0.00     0.253 C 
BRANCH  26  27
HETATM   27  N5  UNL     1      30.767   6.560  48.534  1.00  0.00    -0.177 NA
HETATM   28  C16 UNL     1      32.161   6.489  48.101  1.00  0.00     0.150 C 
HETATM   29  C17 UNL     1      32.085   5.014  48.457  1.00  0.00     0.210 C 
HETATM   30  O1  UNL     1      30.997   5.439  49.221  1.00  0.00    -0.301 OA
ENDBRANCH  26  27
ENDBRANCH  12  26
TORSDOF 4
ENDMDL
MODEL 8
REMARK VINA RESULT:      -8.2      2.655      3.858
REMARK  4 active torsions:
REMARK  status: ('A' for Active; 'I' for Inactive)
REMARK    1  A    between atoms: C5_5  and  N1_6 
REMARK    2  A    between atoms: N1_6  and  C6_7 
REMARK    3  A    between atoms: N4_18  and  C15_19 
REMARK    4  A    between atoms: C15_19  and  N5_20 
ROOT
HETATM    1  C6  UNL     1      24.569   4.190  49.636  1.00  0.00     0.142 A 
HETATM    2  N2  UNL     1      25.505   4.903  48.999  1.00  0.00    -0.223 NA
HETATM    3  C7  UNL     1      26.812   4.540  49.147  1.00  0.00     0.236 A 
HETATM    4  N3  UNL     1      27.098   3.492  49.920  1.00  0.00    -0.241 NA
HETATM    5  C8  UNL     1      26.185   2.764  50.567  1.00  0.00     0.075 A 
HETATM    6  C9  UNL     1      26.635   1.738  51.371  1.00  0.00     0.071 A 
HETATM    7  C10 UNL     1      25.685   1.027  52.075  1.00  0.00     0.099 A 
HETATM    8  C11 UNL     1      24.360   1.381  51.927  1.00  0.00     0.079 A 
HETATM    9  C12 UNL     1      23.889   2.397  51.121  1.00  0.00    -0.016 A 
HETATM   10  C13 UNL     1      22.493   2.620  50.838  1.00  0.00     0.052 C 
HETATM   11  C14 UNL     1      24.855   3.107  50.432  1.00  0.00     0.047 A 
HETATM   12  N4  UNL     1      23.334   0.822  52.733  1.00  0.00    -0.298 N 
HETATM   13  C18 UNL     1      23.894  -0.142  53.686  1.00  0.00     0.249 C 
HETATM   14  O2  UNL     1      23.219  -0.748  54.559  1.00  0.00    -0.271 OA
HETATM   15  C19 UNL     1      25.299  -0.607  53.845  1.00  0.00     0.279 C 
HETATM   16  O3  UNL     1      26.152  -0.008  52.890  1.00  0.00    -0.340 OA
ENDROOT
BRANCH   1  17
HETATM   17  N1  UNL     1      23.218   4.684  49.557  1.00  0.00    -0.340 N 
HETATM   18  H6  UNL     1      22.265   5.061  49.684  1.00  0.00     0.167 HD
BRANCH  17  19
HETATM   19  C5  UNL     1      22.736   4.640  48.195  1.00  0.00     0.033 A 
HETATM   20  C4  UNL     1      22.674   5.953  47.692  1.00  0.00     0.030 A 
HETATM   21  C3  UNL     1      22.215   6.276  46.405  1.00  0.00     0.009 A 
HETATM   22  C2  UNL     1      21.820   5.198  45.649  1.00  0.00    -0.062 A 
HETATM   23  C1  UNL     1      21.316   5.407  44.270  1.00  0.00     0.048 C 
HETATM   24  C21 UNL     1      21.844   3.885  46.050  1.00  0.00     0.009 A 
HETATM   25  C20 UNL     1      22.304   3.628  47.324  1.00  0.00     0.030 A 
ENDBRANCH  17  19
ENDBRANCH   1  17
BRANCH  12  26
HETATM   26  C15 UNL     1      21.965   0.999  52.934  1.00  0.00     0.253 C 
BRANCH  26  27
HETATM   27  N5  UNL     1      21.253  -0.137  52.381  1.00  0.00    -0.177 NA
HETATM   28  C16 UNL     1      20.127   0.222  51.521  1.00  0.00     0.150 C 
HETATM   29  C17 UNL     1      19.251  -0.065  52.728  1.00  0.00     0.210 C 
HETATM   30  O1  UNL     1      20.372  -0.786  53.144  1.00  0.00    -0.301 OA
ENDBRANCH  26  27
ENDBRANCH  12  26
TORSDOF 4
ENDMDL
MODEL 9
REMARK VINA RESULT:      -7.9      2.010      4.609
REMARK  4 active torsions:
REMARK  status: ('A' for Active; 'I' for Inactive)
REMARK    1  A    between atoms: C5_5  and  N1_6 
REMARK    2  A    between atoms: N1_6  and  C6_7 
REMARK    3  A    between atoms: N4_18  and  C15_19 
REMARK    4  A    between atoms: C15_19  and  N5_20 
ROOT
HETATM    1  C6  UNL     1      22.370   3.931  50.259  1.00  0.00     0.142 A 
HETATM    2  N2  UNL     1      21.485   4.729  49.652  1.00  0.00    -0.223 NA
HETATM    3  C7  UNL     1      20.185   4.695  50.069  1.00  0.00     0.236 A 
HETATM    4  N3  UNL     1      19.857   3.869  51.062  1.00  0.00    -0.241 NA
HETATM    5  C8  UNL     1      20.719   3.063  51.685  1.00  0.00     0.075 A 
HETATM    6  C9  UNL     1      20.224   2.225  52.663  1.00  0.00     0.071 A 
HETATM    7  C10 UNL     1      21.116   1.360  53.261  1.00  0.00     0.099 A 
HETATM    8  C11 UNL     1      22.433   1.390  52.853  1.00  0.00     0.079 A 
HETATM    9  C12 UNL     1      22.950   2.227  51.884  1.00  0.00    -0.016 A 
HETATM   10  C13 UNL     1      24.359   2.372  51.613  1.00  0.00     0.052 C 
HETATM   11  C14 UNL     1      22.041   3.079  51.286  1.00  0.00     0.047 A 
HETATM   12  N4  UNL     1      23.382   0.430  53.288  1.00  0.00    -0.298 N 
HETATM   13  C18 UNL     1      22.757  -0.537  54.198  1.00  0.00     0.249 C 
HETATM   14  O2  UNL     1      23.352  -1.530  54.693  1.00  0.00    -0.271 OA
HETATM   15  C19 UNL     1      21.364  -0.580  54.720  1.00  0.00     0.279 C 
HETATM   16  O3  UNL     1      20.602   0.513  54.248  1.00  0.00    -0.340 OA
ENDROOT
BRANCH   1  17
HETATM   17  N1  UNL     1      23.699   3.903  49.704  1.00  0.00    -0.340 N 
HETATM   18  H6  UNL     1      24.641   3.700  49.332  1.00  0.00     0.167 HD
BRANCH  17  19
HETATM   19  C5  UNL     1      24.143   5.239  49.374  1.00  0.00     0.033 A 
HETATM   20  C4  UNL     1      24.692   5.833  50.527  1.00  0.00     0.030 A 
HETATM   21  C3  UNL     1      25.189   7.145  50.569  1.00  0.00     0.009 A 
HETATM   22  C2  UNL     1      25.103   7.829  49.380  1.00  0.00    -0.062 A 
HETATM   23  C1  UNL     1      25.597   9.226  49.293  1.00  0.00     0.048 C 
HETATM   24  C21 UNL     1      24.588   7.338  48.206  1.00  0.00     0.009 A 
HETATM   25  C20 UNL     1      24.114   6.043  48.225  1.00  0.00     0.030 A 
ENDBRANCH  17  19
ENDBRANCH   1  17
BRANCH  12  26
HETATM   26  C15 UNL     1      24.710   0.094  53.024  1.00  0.00     0.253 C 
BRANCH  26  27
HETATM   27  N5  UNL     1      25.508   0.347  54.209  1.00  0.00    -0.177 NA
HETATM   28  C16 UNL     1      26.679   1.189  53.974  1.00  0.00     0.150 C 
HETATM   29  C17 UNL     1      27.473  -0.105  53.953  1.00  0.00     0.210 C 
HETATM   30  O1  UNL     1      26.356  -0.592  54.634  1.00  0.00    -0.301 OA
ENDBRANCH  26  27
ENDBRANCH  12  26
TORSDOF 4
ENDMDL
