MODEL 1
REMARK VINA RESULT:      -9.4      0.000      0.000
REMARK  1 active torsions:
REMARK  status: ('A' for Active; 'I' for Inactive)
REMARK    1  A    between atoms: C13_18  and  C14_19 
ROOT
HETATM    1  C1  UNL     1      22.571   4.054  47.759  1.00  0.00     0.067 C 
HETATM    2  C2  UNL     1      23.073   3.921  49.147  1.00  0.00     0.050 C 
HETATM    3  N1  UNL     1      23.830   2.984  49.555  1.00  0.00    -0.071 NA
HETATM    4  C3  UNL     1      25.001   3.280  50.365  1.00  0.00     0.726 C 
HETATM    5  N2  UNL     1      25.162   4.541  50.589  1.00  0.00    -0.025 NA
HETATM    6  C4  UNL     1      24.163   5.534  50.414  1.00  0.00     0.279 C 
HETATM    7  O1  UNL     1      24.861   6.603  50.434  1.00  0.00    -0.269 OA
HETATM    8  C5  UNL     1      22.768   4.872  50.290  1.00  0.00     0.220 C 
HETATM    9  C6  UNL     1      22.688   4.192  51.597  1.00  0.00     0.241 C 
HETATM   10  O2  UNL     1      22.753   4.792  52.673  1.00  0.00    -0.272 OA
HETATM   11  N3  UNL     1      22.563   3.003  52.212  1.00  0.00    -0.326 N 
HETATM   12  C7  UNL     1      22.438   1.809  52.833  1.00  0.00     0.035 A 
HETATM   13  C8  UNL     1      22.210   0.675  53.463  1.00  0.00     0.029 A 
HETATM   14  C9  UNL     1      23.100  -0.364  53.614  1.00  0.00     0.003 A 
HETATM   15  C10 UNL     1      24.387  -0.381  53.121  1.00  0.00     0.010 A 
HETATM   16  C11 UNL     1      24.925   0.659  52.413  1.00  0.00    -0.028 A 
HETATM   17  C12 UNL     1      23.792   1.484  52.464  1.00  0.00     0.039 A 
HETATM   18  C13 UNL     1      26.122   1.060  51.637  1.00  0.00     0.166 C 
HETATM   19  N4  UNL     1      25.933   2.389  51.029  1.00  0.00    -0.210 N 
HETATM   20  H5  UNL     1      22.289   2.631  51.235  1.00  0.00     0.169 HD
HETATM   21  H16 UNL     1      26.883   2.880  51.100  1.00  0.00     0.179 HD
ENDROOT
BRANCH  18  22
HETATM   22  C14 UNL     1      27.246   1.058  52.593  1.00  0.00    -0.030 A 
HETATM   23  C15 UNL     1      27.778   2.245  53.057  1.00  0.00     0.009 A 
HETATM   24  C16 UNL     1      28.834   2.232  53.953  1.00  0.00     0.001 A 
HETATM   25  C17 UNL     1      29.400   1.082  54.420  1.00  0.00     0.000 A 
HETATM   26  C18 UNL     1      28.873  -0.123  53.960  1.00  0.00     0.001 A 
HETATM   27  C19 UNL     1      27.820  -0.102  53.067  1.00  0.00     0.009 A 
ENDBRANCH  18  22
TORSDOF 1
ENDMDL
MODEL 2
REMARK VINA RESULT:      -8.2      1.893      2.418
REMARK  1 active torsions:
REMARK  status: ('A' for Active; 'I' for Inactive)
REMARK    1  A    between atoms: C13_18  and  C14_19 
ROOT
HETATM    1  C1  UNL     1      19.723   2.370  48.307  1.00  0.00     0.067 C 
HETATM    2  C2  UNL     1      20.474   2.555  49.572  1.00  0.00     0.050 C 
HETATM    3  N1  UNL     1      21.410   1.793  49.973  1.00  0.00    -0.071 NA
HETATM    4  C3  UNL     1      22.654   2.355  50.475  1.00  0.00     0.726 C 
HETATM    5  N2  UNL     1      22.679   3.646  50.450  1.00  0.00    -0.025 NA
HETATM    6  C4  UNL     1      21.540   4.480  50.312  1.00  0.00     0.279 C 
HETATM    7  O1  UNL     1      22.079   5.600  50.016  1.00  0.00    -0.269 OA
HETATM    8  C5  UNL     1      20.248   3.668  50.577  1.00  0.00     0.220 C 
HETATM    9  C6  UNL     1      20.491   3.243  51.970  1.00  0.00     0.241 C 
HETATM   10  O2  UNL     1      20.661   4.040  52.896  1.00  0.00    -0.272 OA
HETATM   11  N3  UNL     1      20.638   2.186  52.786  1.00  0.00    -0.326 N 
HETATM   12  C7  UNL     1      20.787   1.125  53.609  1.00  0.00     0.035 A 
HETATM   13  C8  UNL     1      20.829   0.113  54.452  1.00  0.00     0.029 A 
HETATM   14  C9  UNL     1      21.865  -0.782  54.597  1.00  0.00     0.003 A 
HETATM   15  C10 UNL     1      23.035  -0.761  53.869  1.00  0.00     0.010 A 
HETATM   16  C11 UNL     1      23.295   0.176  52.906  1.00  0.00    -0.028 A 
HETATM   17  C12 UNL     1      22.087   0.876  53.041  1.00  0.00     0.039 A 
HETATM   18  C13 UNL     1      24.272   0.543  51.854  1.00  0.00     0.166 C 
HETATM   19  N4  UNL     1      23.801   1.706  51.082  1.00  0.00    -0.210 N 
HETATM   20  H5  UNL     1      20.250   1.609  51.958  1.00  0.00     0.169 HD
HETATM   21  H16 UNL     1      24.672   2.296  50.882  1.00  0.00     0.179 HD
ENDROOT
BRANCH  18  22
HETATM   22  C14 UNL     1      25.536   0.836  52.556  1.00  0.00    -0.030 A 
HETATM   23  C15 UNL     1      26.518  -0.129  52.671  1.00  0.00     0.009 A 
HETATM   24  C16 UNL     1      27.700   0.156  53.333  1.00  0.00     0.001 A 
HETATM   25  C17 UNL     1      27.964   1.370  53.897  1.00  0.00     0.000 A 
HETATM   26  C18 UNL     1      26.982   2.353  53.788  1.00  0.00     0.001 A 
HETATM   27  C19 UNL     1      25.806   2.061  53.127  1.00  0.00     0.009 A 
ENDBRANCH  18  22
TORSDOF 1
ENDMDL
MODEL 3
REMARK VINA RESULT:      -7.9      2.843      4.717
REMARK  1 active torsions:
REMARK  status: ('A' for Active; 'I' for Inactive)
REMARK    1  A    between atoms: C13_18  and  C14_19 
ROOT
HETATM    1  C1  UNL     1      17.840   3.899  51.567  1.00  0.00     0.067 C 
HETATM    2  C2  UNL     1      19.054   3.129  51.202  1.00  0.00     0.050 C 
HETATM    3  N1  UNL     1      20.194   3.279  51.745  1.00  0.00    -0.071 NA
HETATM    4  C3  UNL     1      20.966   2.121  52.168  1.00  0.00     0.726 C 
HETATM    5  N2  UNL     1      20.371   0.998  51.942  1.00  0.00    -0.025 NA
HETATM    6  C4  UNL     1      19.272   0.822  51.062  1.00  0.00     0.279 C 
HETATM    7  O1  UNL     1      18.845  -0.328  51.417  1.00  0.00    -0.269 OA
HETATM    8  C5  UNL     1      19.128   2.054  50.134  1.00  0.00     0.220 C 
HETATM    9  C6  UNL     1      20.433   2.015  49.447  1.00  0.00     0.241 C 
HETATM   10  O2  UNL     1      20.812   1.051  48.778  1.00  0.00    -0.272 OA
HETATM   11  N3  UNL     1      21.572   2.689  49.212  1.00  0.00    -0.326 N 
HETATM   12  C7  UNL     1      22.717   3.365  48.973  1.00  0.00     0.035 A 
HETATM   13  C8  UNL     1      23.796   4.041  48.636  1.00  0.00     0.029 A 
HETATM   14  C9  UNL     1      24.871   4.316  49.451  1.00  0.00     0.003 A 
HETATM   15  C10 UNL     1      24.987   3.923  50.767  1.00  0.00     0.010 A 
HETATM   16  C11 UNL     1      24.022   3.200  51.414  1.00  0.00    -0.028 A 
HETATM   17  C12 UNL     1      23.139   3.113  50.327  1.00  0.00     0.039 A 
HETATM   18  C13 UNL     1      23.646   2.663  52.742  1.00  0.00     0.166 C 
HETATM   19  N4  UNL     1      22.314   2.035  52.698  1.00  0.00    -0.210 N 
HETATM   20  H5  UNL     1      21.042   3.540  49.617  1.00  0.00     0.169 HD
HETATM   21  H16 UNL     1      22.378   1.172  53.330  1.00  0.00     0.179 HD
ENDROOT
BRANCH  18  22
HETATM   22  C14 UNL     1      24.693   1.687  53.099  1.00  0.00    -0.030 A 
HETATM   23  C15 UNL     1      25.848   2.095  53.738  1.00  0.00     0.009 A 
HETATM   24  C16 UNL     1      26.825   1.171  54.068  1.00  0.00     0.001 A 
HETATM   25  C17 UNL     1      26.715  -0.160  53.792  1.00  0.00     0.000 A 
HETATM   26  C18 UNL     1      25.554  -0.585  53.147  1.00  0.00     0.001 A 
HETATM   27  C19 UNL     1      24.585   0.341  52.822  1.00  0.00     0.009 A 
ENDBRANCH  18  22
TORSDOF 1
ENDMDL
MODEL 4
REMARK VINA RESULT:      -7.8      5.656      7.244
REMARK  1 active torsions:
REMARK  status: ('A' for Active; 'I' for Inactive)
REMARK    1  A    between atoms: C13_18  and  C14_19 
ROOT
HETATM    1  C1  UNL     1      24.663  10.664  45.816  1.00  0.00     0.067 C 
HETATM    2  C2  UNL     1      25.489  10.082  46.901  1.00  0.00     0.050 C 
HETATM    3  N1  UNL     1      26.316   9.128  46.746  1.00  0.00    -0.071 NA
HETATM    4  C3  UNL     1      27.652   9.210  47.315  1.00  0.00     0.726 C 
HETATM    5  N2  UNL     1      27.872  10.315  47.946  1.00  0.00    -0.025 NA
HETATM    6  C4  UNL     1      26.868  11.215  48.387  1.00  0.00     0.279 C 
HETATM    7  O1  UNL     1      27.557  12.260  48.640  1.00  0.00    -0.269 OA
HETATM    8  C5  UNL     1      25.481  10.527  48.351  1.00  0.00     0.220 C 
HETATM    9  C6  UNL     1      25.718   9.417  49.295  1.00  0.00     0.241 C 
HETATM   10  O2  UNL     1      26.049   9.592  50.470  1.00  0.00    -0.272 OA
HETATM   11  N3  UNL     1      25.740   8.081  49.436  1.00  0.00    -0.326 N 
HETATM   12  C7  UNL     1      25.761   6.738  49.581  1.00  0.00     0.035 A 
HETATM   13  C8  UNL     1      25.687   5.438  49.781  1.00  0.00     0.029 A 
HETATM   14  C9  UNL     1      26.580   4.493  49.327  1.00  0.00     0.003 A 
HETATM   15  C10 UNL     1      27.706   4.763  48.580  1.00  0.00     0.010 A 
HETATM   16  C11 UNL     1      28.061   6.031  48.204  1.00  0.00    -0.028 A 
HETATM   17  C12 UNL     1      26.981   6.683  48.817  1.00  0.00     0.039 A 
HETATM   18  C13 UNL     1      29.034   6.784  47.379  1.00  0.00     0.166 C 
HETATM   19  N4  UNL     1      28.712   8.222  47.367  1.00  0.00    -0.210 N 
HETATM   20  H5  UNL     1      25.231   8.065  48.482  1.00  0.00     0.169 HD
HETATM   21  H16 UNL     1      29.653   8.732  47.394  1.00  0.00     0.179 HD
ENDROOT
BRANCH  18  22
HETATM   22  C14 UNL     1      30.358   6.532  47.979  1.00  0.00    -0.030 A 
HETATM   23  C15 UNL     1      30.904   7.424  48.882  1.00  0.00     0.009 A 
HETATM   24  C16 UNL     1      32.148   7.179  49.438  1.00  0.00     0.001 A 
HETATM   25  C17 UNL     1      32.893   6.075  49.141  1.00  0.00     0.000 A 
HETATM   26  C18 UNL     1      32.354   5.167  48.231  1.00  0.00     0.001 A 
HETATM   27  C19 UNL     1      31.114   5.418  47.681  1.00  0.00     0.009 A 
ENDBRANCH  18  22
TORSDOF 1
ENDMDL
MODEL 5
REMARK VINA RESULT:      -7.8      1.650      2.140
REMARK  1 active torsions:
REMARK  status: ('A' for Active; 'I' for Inactive)
REMARK    1  A    between atoms: C13_18  and  C14_19 
ROOT
HETATM    1  C1  UNL     1      23.501   6.604  47.018  1.00  0.00     0.067 C 
HETATM    2  C2  UNL     1      23.854   6.174  48.393  1.00  0.00     0.050 C 
HETATM    3  N1  UNL     1      24.143   4.980  48.723  1.00  0.00    -0.071 NA
HETATM    4  C3  UNL     1      25.302   4.707  49.558  1.00  0.00     0.726 C 
HETATM    5  N2  UNL     1      25.959   5.769  49.886  1.00  0.00    -0.025 NA
HETATM    6  C4  UNL     1      25.463   7.095  49.791  1.00  0.00     0.279 C 
HETATM    7  O1  UNL     1      26.537   7.776  49.901  1.00  0.00    -0.269 OA
HETATM    8  C5  UNL     1      23.925   7.078  49.609  1.00  0.00     0.220 C 
HETATM    9  C6  UNL     1      23.524   6.396  50.856  1.00  0.00     0.241 C 
HETATM   10  O2  UNL     1      23.791   6.835  51.978  1.00  0.00    -0.272 OA
HETATM   11  N3  UNL     1      22.900   5.323  51.370  1.00  0.00    -0.326 N 
HETATM   12  C7  UNL     1      22.273   4.244  51.889  1.00  0.00     0.035 A 
HETATM   13  C8  UNL     1      21.577   3.262  52.423  1.00  0.00     0.029 A 
HETATM   14  C9  UNL     1      21.956   1.940  52.491  1.00  0.00     0.003 A 
HETATM   15  C10 UNL     1      23.139   1.431  52.000  1.00  0.00     0.010 A 
HETATM   16  C11 UNL     1      24.082   2.206  51.382  1.00  0.00    -0.028 A 
HETATM   17  C12 UNL     1      23.387   3.419  51.498  1.00  0.00     0.039 A 
HETATM   18  C13 UNL     1      25.366   2.134  50.646  1.00  0.00     0.166 C 
HETATM   19  N4  UNL     1      25.762   3.464  50.149  1.00  0.00    -0.210 N 
HETATM   20  H5  UNL     1      22.533   5.170  50.364  1.00  0.00     0.169 HD
HETATM   21  H16 UNL     1      26.826   3.513  50.263  1.00  0.00     0.179 HD
ENDROOT
BRANCH  18  22
HETATM   22  C14 UNL     1      26.354   1.598  51.601  1.00  0.00    -0.030 A 
HETATM   23  C15 UNL     1      27.210   2.445  52.279  1.00  0.00     0.009 A 
HETATM   24  C16 UNL     1      28.134   1.931  53.172  1.00  0.00     0.001 A 
HETATM   25  C17 UNL     1      28.258   0.598  53.433  1.00  0.00     0.000 A 
HETATM   26  C18 UNL     1      27.401  -0.268  52.755  1.00  0.00     0.001 A 
HETATM   27  C19 UNL     1      26.482   0.251  51.866  1.00  0.00     0.009 A 
ENDBRANCH  18  22
TORSDOF 1
ENDMDL
MODEL 6
REMARK VINA RESULT:      -7.8      2.756      4.805
REMARK  1 active torsions:
REMARK  status: ('A' for Active; 'I' for Inactive)
REMARK    1  A    between atoms: C13_18  and  C14_19 
ROOT
HETATM    1  C1  UNL     1      27.046   8.806  46.406  1.00  0.00     0.067 C 
HETATM    2  C2  UNL     1      26.235   8.211  47.496  1.00  0.00     0.050 C 
HETATM    3  N1  UNL     1      26.267   6.985  47.832  1.00  0.00    -0.071 NA
HETATM    4  C3  UNL     1      26.363   6.607  49.234  1.00  0.00     0.726 C 
HETATM    5  N2  UNL     1      26.418   7.619  50.034  1.00  0.00    -0.025 NA
HETATM    6  C4  UNL     1      26.062   8.949  49.691  1.00  0.00     0.279 C 
HETATM    7  O1  UNL     1      26.580   9.607  50.654  1.00  0.00    -0.269 OA
HETATM    8  C5  UNL     1      25.249   8.961  48.372  1.00  0.00     0.220 C 
HETATM    9  C6  UNL     1      24.093   8.136  48.773  1.00  0.00     0.241 C 
HETATM   10  O2  UNL     1      23.345   8.434  49.707  1.00  0.00    -0.272 OA
HETATM   11  N3  UNL     1      23.404   7.010  48.516  1.00  0.00    -0.326 N 
HETATM   12  C7  UNL     1      22.709   5.880  48.260  1.00  0.00     0.035 A 
HETATM   13  C8  UNL     1      21.952   4.843  47.966  1.00  0.00     0.029 A 
HETATM   14  C9  UNL     1      22.256   3.521  48.201  1.00  0.00     0.003 A 
HETATM   15  C10 UNL     1      23.420   3.070  48.786  1.00  0.00     0.010 A 
HETATM   16  C11 UNL     1      24.415   3.910  49.205  1.00  0.00    -0.028 A 
HETATM   17  C12 UNL     1      23.781   5.102  48.827  1.00  0.00     0.039 A 
HETATM   18  C13 UNL     1      25.792   3.922  49.752  1.00  0.00     0.166 C 
HETATM   19  N4  UNL     1      26.303   5.300  49.860  1.00  0.00    -0.210 N 
HETATM   20  H5  UNL     1      23.973   6.982  47.597  1.00  0.00     0.169 HD
HETATM   21  H16 UNL     1      26.871   5.330  50.768  1.00  0.00     0.179 HD
ENDROOT
BRANCH  18  22
HETATM   22  C14 UNL     1      25.713   3.270  51.072  1.00  0.00    -0.030 A 
HETATM   23  C15 UNL     1      26.742   2.466  51.525  1.00  0.00     0.009 A 
HETATM   24  C16 UNL     1      26.656   1.857  52.765  1.00  0.00     0.001 A 
HETATM   25  C17 UNL     1      25.585   2.007  53.597  1.00  0.00     0.000 A 
HETATM   26  C18 UNL     1      24.540   2.815  53.153  1.00  0.00     0.001 A 
HETATM   27  C19 UNL     1      24.632   3.419  51.915  1.00  0.00     0.009 A 
ENDBRANCH  18  22
TORSDOF 1
ENDMDL
MODEL 7
REMARK VINA RESULT:      -7.8      1.688      2.622
REMARK  1 active torsions:
REMARK  status: ('A' for Active; 'I' for Inactive)
REMARK    1  A    between atoms: C13_18  and  C14_19 
ROOT
HETATM    1  C1  UNL     1      22.115   4.693  46.449  1.00  0.00     0.067 C 
HETATM    2  C2  UNL     1      22.398   4.674  47.904  1.00  0.00     0.050 C 
HETATM    3  N1  UNL     1      22.650   3.624  48.576  1.00  0.00    -0.071 NA
HETATM    4  C3  UNL     1      23.766   3.595  49.509  1.00  0.00     0.726 C 
HETATM    5  N2  UNL     1      24.427   4.704  49.549  1.00  0.00    -0.025 NA
HETATM    6  C4  UNL     1      23.961   5.949  49.054  1.00  0.00     0.279 C 
HETATM    7  O1  UNL     1      25.042   6.628  49.016  1.00  0.00    -0.269 OA
HETATM    8  C5  UNL     1      22.432   5.889  48.812  1.00  0.00     0.220 C 
HETATM    9  C6  UNL     1      21.965   5.596  50.181  1.00  0.00     0.241 C 
HETATM   10  O2  UNL     1      22.190   6.337  51.141  1.00  0.00    -0.272 OA
HETATM   11  N3  UNL     1      21.298   4.719  50.951  1.00  0.00    -0.326 N 
HETATM   12  C7  UNL     1      20.628   3.839  51.727  1.00  0.00     0.035 A 
HETATM   13  C8  UNL     1      19.891   3.055  52.486  1.00  0.00     0.029 A 
HETATM   14  C9  UNL     1      20.241   1.806  52.948  1.00  0.00     0.003 A 
HETATM   15  C10 UNL     1      21.435   1.171  52.681  1.00  0.00     0.010 A 
HETATM   16  C11 UNL     1      22.419   1.731  51.912  1.00  0.00    -0.028 A 
HETATM   17  C12 UNL     1      21.742   2.929  51.643  1.00  0.00     0.039 A 
HETATM   18  C13 UNL     1      23.732   1.444  51.290  1.00  0.00     0.166 C 
HETATM   19  N4  UNL     1      24.175   2.572  50.452  1.00  0.00    -0.210 N 
HETATM   20  H5  UNL     1      20.973   4.286  50.015  1.00  0.00     0.169 HD
HETATM   21  H16 UNL     1      25.234   2.646  50.597  1.00  0.00     0.179 HD
ENDROOT
BRANCH  18  22
HETATM   22  C14 UNL     1      24.667   1.198  52.404  1.00  0.00    -0.030 A 
HETATM   23  C15 UNL     1      24.760  -0.052  52.984  1.00  0.00     0.009 A 
HETATM   24  C16 UNL     1      25.640  -0.271  54.030  1.00  0.00     0.001 A 
HETATM   25  C17 UNL     1      26.448   0.702  54.541  1.00  0.00     0.000 A 
HETATM   26  C18 UNL     1      26.364   1.969  53.965  1.00  0.00     0.001 A 
HETATM   27  C19 UNL     1      25.485   2.180  52.923  1.00  0.00     0.009 A 
ENDBRANCH  18  22
TORSDOF 1
ENDMDL
MODEL 8
REMARK VINA RESULT:      -7.8      3.893      6.189
REMARK  1 active torsions:
REMARK  status: ('A' for Active; 'I' for Inactive)
REMARK    1  A    between atoms: C13_18  and  C14_19 
ROOT
HETATM    1  C1  UNL     1      18.771   2.732  51.831  1.00  0.00     0.067 C 
HETATM    2  C2  UNL     1      19.928   2.601  50.913  1.00  0.00     0.050 C 
HETATM    3  N1  UNL     1      20.687   3.561  50.568  1.00  0.00    -0.071 NA
HETATM    4  C3  UNL     1      22.133   3.402  50.589  1.00  0.00     0.726 C 
HETATM    5  N2  UNL     1      22.513   2.236  50.991  1.00  0.00    -0.025 NA
HETATM    6  C4  UNL     1      21.683   1.088  51.062  1.00  0.00     0.279 C 
HETATM    7  O1  UNL     1      22.383   0.313  51.797  1.00  0.00    -0.269 OA
HETATM    8  C5  UNL     1      20.385   1.316  50.248  1.00  0.00     0.220 C 
HETATM    9  C6  UNL     1      20.957   1.536  48.905  1.00  0.00     0.241 C 
HETATM   10  O2  UNL     1      21.653   0.698  48.325  1.00  0.00    -0.272 OA
HETATM   11  N3  UNL     1      21.068   2.406  47.887  1.00  0.00    -0.326 N 
HETATM   12  C7  UNL     1      21.180   3.278  46.861  1.00  0.00     0.035 A 
HETATM   13  C8  UNL     1      21.217   4.063  45.804  1.00  0.00     0.029 A 
HETATM   14  C9  UNL     1      21.940   5.229  45.682  1.00  0.00     0.003 A 
HETATM   15  C10 UNL     1      22.746   5.765  46.663  1.00  0.00     0.010 A 
HETATM   16  C11 UNL     1      22.916   5.179  47.888  1.00  0.00    -0.028 A 
HETATM   17  C12 UNL     1      22.079   4.079  47.651  1.00  0.00     0.039 A 
HETATM   18  C13 UNL     1      23.537   5.389  49.217  1.00  0.00     0.166 C 
HETATM   19  N4  UNL     1      23.182   4.298  50.141  1.00  0.00    -0.210 N 
HETATM   20  H5  UNL     1      20.273   2.945  48.384  1.00  0.00     0.169 HD
HETATM   21  H16 UNL     1      24.063   4.110  50.722  1.00  0.00     0.179 HD
ENDROOT
BRANCH  18  22
HETATM   22  C14 UNL     1      24.992   5.447  48.982  1.00  0.00    -0.030 A 
HETATM   23  C15 UNL     1      25.792   4.351  49.243  1.00  0.00     0.009 A 
HETATM   24  C16 UNL     1      27.157   4.417  49.020  1.00  0.00     0.001 A 
HETATM   25  C17 UNL     1      27.782   5.532  48.545  1.00  0.00     0.000 A 
HETATM   26  C18 UNL     1      26.987   6.646  48.278  1.00  0.00     0.001 A 
HETATM   27  C19 UNL     1      25.627   6.573  48.502  1.00  0.00     0.009 A 
ENDBRANCH  18  22
TORSDOF 1
ENDMDL
MODEL 9
REMARK VINA RESULT:      -7.8      2.537      4.700
REMARK  1 active torsions:
REMARK  status: ('A' for Active; 'I' for Inactive)
REMARK    1  A    between atoms: C13_18  and  C14_19 
ROOT
HETATM    1  C1  UNL     1      21.852   8.159  50.187  1.00  0.00     0.067 C 
HETATM    2  C2  UNL     1      22.070   6.707  49.983  1.00  0.00     0.050 C 
HETATM    3  N1  UNL     1      22.487   5.907  50.880  1.00  0.00    -0.071 NA
HETATM    4  C3  UNL     1      21.830   4.626  51.089  1.00  0.00     0.726 C 
HETATM    5  N2  UNL     1      20.826   4.432  50.301  1.00  0.00    -0.025 NA
HETATM    6  C4  UNL     1      20.569   5.164  49.113  1.00  0.00     0.279 C 
HETATM    7  O1  UNL     1      19.353   4.851  48.879  1.00  0.00    -0.269 OA
HETATM    8  C5  UNL     1      21.833   5.953  48.688  1.00  0.00     0.220 C 
HETATM    9  C6  UNL     1      22.780   4.838  48.490  1.00  0.00     0.241 C 
HETATM   10  O2  UNL     1      22.586   3.927  47.682  1.00  0.00    -0.272 OA
HETATM   11  N3  UNL     1      23.947   4.304  48.888  1.00  0.00    -0.326 N 
HETATM   12  C7  UNL     1      25.121   3.765  49.286  1.00  0.00     0.035 A 
HETATM   13  C8  UNL     1      26.308   3.276  49.576  1.00  0.00     0.029 A 
HETATM   14  C9  UNL     1      26.656   2.617  50.735  1.00  0.00     0.003 A 
HETATM   15  C10 UNL     1      25.802   2.367  51.788  1.00  0.00     0.010 A 
HETATM   16  C11 UNL     1      24.490   2.756  51.790  1.00  0.00    -0.028 A 
HETATM   17  C12 UNL     1      24.504   3.354  50.521  1.00  0.00     0.039 A 
HETATM   18  C13 UNL     1      23.283   2.818  52.646  1.00  0.00     0.166 C 
HETATM   19  N4  UNL     1      22.185   3.519  51.956  1.00  0.00    -0.210 N 
HETATM   20  H5  UNL     1      24.110   5.256  49.375  1.00  0.00     0.169 HD
HETATM   21  H16 UNL     1      21.290   2.996  52.225  1.00  0.00     0.179 HD
ENDROOT
BRANCH  18  22
HETATM   22  C14 UNL     1      22.925   1.420  52.949  1.00  0.00    -0.030 A 
HETATM   23  C15 UNL     1      21.636   0.964  52.751  1.00  0.00     0.009 A 
HETATM   24  C16 UNL     1      21.310  -0.350  53.040  1.00  0.00     0.001 A 
HETATM   25  C17 UNL     1      22.211  -1.253  53.524  1.00  0.00     0.000 A 
HETATM   26  C18 UNL     1      23.516  -0.805  53.729  1.00  0.00     0.001 A 
HETATM   27  C19 UNL     1      23.833   0.506  53.438  1.00  0.00     0.009 A 
ENDBRANCH  18  22
TORSDOF 1
ENDMDL
