MODEL 1
REMARK VINA RESULT:      -6.5      0.000      0.000
REMARK  8 active torsions:
REMARK  status: ('A' for Active; 'I' for Inactive)
REMARK    1  A    between atoms: O1_1  and  C1_2 
REMARK    2  A    between atoms: C1_2  and  C2_3 
REMARK    3  A    between atoms: C2_3  and  C3_4 
REMARK    4  A    between atoms: C3_4  and  N3_19 
REMARK    5  A    between atoms: C4_5  and  C5_6 
REMARK    6  A    between atoms: C6_8  and  N2_9 
REMARK    7  A    between atoms: N2_9  and  C7_10 
REMARK    8  A    between atoms: N3_19  and  P1_20 
ROOT
HETATM    1  C5  UNL     1      22.647   0.512  52.423  1.00  0.00     0.064 A 
HETATM    2  N1  UNL     1      23.479   0.643  53.416  1.00  0.00    -0.231 NA
HETATM    3  C6  UNL     1      24.402   1.434  52.671  1.00  0.00     0.130 A 
HETATM    4  C13 UNL     1      23.576   1.319  51.644  1.00  0.00     0.082 A 
ENDROOT
BRANCH   3   5
HETATM    5  N2  UNL     1      25.660   2.129  52.754  1.00  0.00    -0.341 N 
HETATM    6  H7  UNL     1      25.737   3.145  52.608  1.00  0.00     0.167 HD
BRANCH   5   7
HETATM    7  C7  UNL     1      26.860   1.388  53.051  1.00  0.00     0.035 A 
HETATM    8  C8  UNL     1      28.012   1.964  53.540  1.00  0.00     0.032 A 
HETATM    9  C9  UNL     1      29.105   1.165  53.791  1.00  0.00     0.046 A 
HETATM   10  C10 UNL     1      29.094  -0.211  53.568  1.00  0.00     0.138 A 
HETATM   11  F1  UNL     1      30.151  -1.021  53.805  1.00  0.00    -0.204 F 
HETATM   12  C11 UNL     1      27.952  -0.811  53.078  1.00  0.00     0.074 A 
HETATM   13 CL1  UNL     1      27.805  -2.533  52.753  1.00  0.00    -0.081 Cl
HETATM   14  C12 UNL     1      26.878   0.016  52.839  1.00  0.00     0.056 A 
ENDBRANCH   5   7
ENDBRANCH   3   5
BRANCH   1  15
HETATM   15  C4  UNL     1      21.370  -0.177  52.296  1.00  0.00     0.059 C 
HETATM   16  C3  UNL     1      20.243   0.497  52.458  1.00  0.00     0.037 C 
BRANCH  16  17
HETATM   17  C2  UNL     1      18.856  -0.008  52.373  1.00  0.00     0.085 C 
BRANCH  17  18
HETATM   18  C1  UNL     1      18.702  -1.145  53.356  1.00  0.00     0.170 C 
BRANCH  18  19
HETATM   19  O1  UNL     1      17.416  -1.132  53.865  1.00  0.00    -0.400 OA
HETATM   20  H1  UNL     1      16.928  -0.287  53.734  1.00  0.00     0.209 HD
ENDBRANCH  18  19
ENDBRANCH  17  18
ENDBRANCH  16  17
BRANCH  16  21
HETATM   21  N3  UNL     1      20.281   1.868  52.749  1.00  0.00    -0.262 NA
BRANCH  21  22
HETATM   22  P1  UNL     1      19.816   3.068  51.780  1.00  0.00     0.046 P 
HETATM   23  H12 UNL     1      19.936   4.474  52.056  1.00  0.00     0.088 HD
ENDBRANCH  21  22
ENDBRANCH  16  21
ENDBRANCH   1  15
TORSDOF 8
ENDMDL
MODEL 2
REMARK VINA RESULT:      -6.5      3.956      5.032
REMARK  8 active torsions:
REMARK  status: ('A' for Active; 'I' for Inactive)
REMARK    1  A    between atoms: O1_1  and  C1_2 
REMARK    2  A    between atoms: C1_2  and  C2_3 
REMARK    3  A    between atoms: C2_3  and  C3_4 
REMARK    4  A    between atoms: C3_4  and  N3_19 
REMARK    5  A    between atoms: C4_5  and  C5_6 
REMARK    6  A    between atoms: C6_8  and  N2_9 
REMARK    7  A    between atoms: N2_9  and  C7_10 
REMARK    8  A    between atoms: N3_19  and  P1_20 
ROOT
HETATM    1  C5  UNL     1      23.617   2.862  51.934  1.00  0.00     0.064 A 
HETATM    2  N1  UNL     1      24.234   2.655  53.062  1.00  0.00    -0.231 NA
HETATM    3  C6  UNL     1      24.368   1.252  52.846  1.00  0.00     0.130 A 
HETATM    4  C13 UNL     1      23.743   1.432  51.694  1.00  0.00     0.082 A 
ENDROOT
BRANCH   3   5
HETATM    5  N2  UNL     1      24.878   0.036  53.424  1.00  0.00    -0.341 N 
HETATM    6  H7  UNL     1      24.261  -0.675  53.841  1.00  0.00     0.167 HD
BRANCH   5   7
HETATM    7  C7  UNL     1      26.300  -0.206  53.427  1.00  0.00     0.035 A 
HETATM    8  C8  UNL     1      26.877  -1.374  52.979  1.00  0.00     0.032 A 
HETATM    9  C9  UNL     1      28.246  -1.503  53.024  1.00  0.00     0.046 A 
HETATM   10  C10 UNL     1      29.079  -0.495  53.509  1.00  0.00     0.138 A 
HETATM   11  F1  UNL     1      30.427  -0.593  53.566  1.00  0.00    -0.204 F 
HETATM   12  C11 UNL     1      28.524   0.683  53.964  1.00  0.00     0.074 A 
HETATM   13 CL1  UNL     1      29.458   2.031  54.599  1.00  0.00    -0.081 Cl
HETATM   14  C12 UNL     1      27.153   0.780  53.903  1.00  0.00     0.056 A 
ENDBRANCH   5   7
ENDBRANCH   3   5
BRANCH   1  15
HETATM   15  C4  UNL     1      23.087   4.069  51.313  1.00  0.00     0.059 C 
HETATM   16  C3  UNL     1      23.898   4.871  50.642  1.00  0.00     0.037 C 
BRANCH  16  17
HETATM   17  C2  UNL     1      23.566   6.131  49.944  1.00  0.00     0.085 C 
BRANCH  17  18
HETATM   18  C1  UNL     1      23.500   7.239  50.970  1.00  0.00     0.170 C 
BRANCH  18  19
HETATM   19  O1  UNL     1      24.551   7.097  51.858  1.00  0.00    -0.400 OA
HETATM   20  H1  UNL     1      24.609   7.800  52.545  1.00  0.00     0.209 HD
ENDBRANCH  18  19
ENDBRANCH  17  18
ENDBRANCH  16  17
BRANCH  16  21
HETATM   21  N3  UNL     1      25.260   4.558  50.531  1.00  0.00    -0.262 NA
BRANCH  21  22
HETATM   22  P1  UNL     1      26.220   4.879  49.276  1.00  0.00     0.046 P 
HETATM   23  H12 UNL     1      26.874   6.130  49.010  1.00  0.00     0.088 HD
ENDBRANCH  21  22
ENDBRANCH  16  21
ENDBRANCH   1  15
TORSDOF 8
ENDMDL
MODEL 3
REMARK VINA RESULT:      -6.5      1.770      1.940
REMARK  8 active torsions:
REMARK  status: ('A' for Active; 'I' for Inactive)
REMARK    1  A    between atoms: O1_1  and  C1_2 
REMARK    2  A    between atoms: C1_2  and  C2_3 
REMARK    3  A    between atoms: C2_3  and  C3_4 
REMARK    4  A    between atoms: C3_4  and  N3_19 
REMARK    5  A    between atoms: C4_5  and  C5_6 
REMARK    6  A    between atoms: C6_8  and  N2_9 
REMARK    7  A    between atoms: N2_9  and  C7_10 
REMARK    8  A    between atoms: N3_19  and  P1_20 
ROOT
HETATM    1  C5  UNL     1      23.078   2.005  52.226  1.00  0.00     0.064 A 
HETATM    2  N1  UNL     1      24.055   1.728  51.410  1.00  0.00    -0.231 NA
HETATM    3  C6  UNL     1      25.040   2.378  52.210  1.00  0.00     0.130 A 
HETATM    4  C13 UNL     1      24.068   2.675  53.056  1.00  0.00     0.082 A 
ENDROOT
BRANCH   3   5
HETATM    5  N2  UNL     1      26.443   2.695  52.286  1.00  0.00    -0.341 N 
HETATM    6  H7  UNL     1      26.816   3.607  51.989  1.00  0.00     0.167 HD
BRANCH   5   7
HETATM    7  C7  UNL     1      27.365   1.710  52.794  1.00  0.00     0.035 A 
HETATM    8  C8  UNL     1      28.517   2.026  53.482  1.00  0.00     0.032 A 
HETATM    9  C9  UNL     1      29.330   1.008  53.925  1.00  0.00     0.046 A 
HETATM   10  C10 UNL     1      29.036  -0.337  53.705  1.00  0.00     0.138 A 
HETATM   11  F1  UNL     1      29.816  -1.358  54.128  1.00  0.00    -0.204 F 
HETATM   12  C11 UNL     1      27.889  -0.677  53.017  1.00  0.00     0.074 A 
HETATM   13 CL1  UNL     1      27.401  -2.331  52.672  1.00  0.00    -0.081 Cl
HETATM   14  C12 UNL     1      27.098   0.364  52.590  1.00  0.00     0.056 A 
ENDBRANCH   5   7
ENDBRANCH   3   5
BRANCH   1  15
HETATM   15  C4  UNL     1      21.653   1.706  52.187  1.00  0.00     0.059 C 
HETATM   16  C3  UNL     1      21.211   0.561  52.682  1.00  0.00     0.037 C 
BRANCH  16  17
HETATM   17  C2  UNL     1      19.818   0.068  52.741  1.00  0.00     0.085 C 
BRANCH  17  18
HETATM   18  C1  UNL     1      19.137   0.409  51.436  1.00  0.00     0.170 C 
BRANCH  18  19
HETATM   19  O1  UNL     1      18.051  -0.430  51.260  1.00  0.00    -0.400 OA
HETATM   20  H1  UNL     1      17.837  -0.637  50.322  1.00  0.00     0.209 HD
ENDBRANCH  18  19
ENDBRANCH  17  18
ENDBRANCH  16  17
BRANCH  16  21
HETATM   21  N3  UNL     1      22.112  -0.356  53.240  1.00  0.00    -0.262 NA
BRANCH  21  22
HETATM   22  P1  UNL     1      21.847  -1.309  54.514  1.00  0.00     0.046 P 
HETATM   23  H12 UNL     1      20.607  -1.954  54.844  1.00  0.00     0.088 HD
ENDBRANCH  21  22
ENDBRANCH  16  21
ENDBRANCH   1  15
TORSDOF 8
ENDMDL
MODEL 4
REMARK VINA RESULT:      -6.3      5.508      7.066
REMARK  8 active torsions:
REMARK  status: ('A' for Active; 'I' for Inactive)
REMARK    1  A    between atoms: O1_1  and  C1_2 
REMARK    2  A    between atoms: C1_2  and  C2_3 
REMARK    3  A    between atoms: C2_3  and  C3_4 
REMARK    4  A    between atoms: C3_4  and  N3_19 
REMARK    5  A    between atoms: C4_5  and  C5_6 
REMARK    6  A    between atoms: C6_8  and  N2_9 
REMARK    7  A    between atoms: N2_9  and  C7_10 
REMARK    8  A    between atoms: N3_19  and  P1_20 
ROOT
HETATM    1  C5  UNL     1      26.319   4.937  49.379  1.00  0.00     0.064 A 
HETATM    2  N1  UNL     1      26.949   3.985  50.007  1.00  0.00    -0.231 NA
HETATM    3  C6  UNL     1      25.777   3.193  50.188  1.00  0.00     0.130 A 
HETATM    4  C13 UNL     1      25.111   4.144  49.554  1.00  0.00     0.082 A 
ENDROOT
BRANCH   3   5
HETATM    5  N2  UNL     1      25.292   1.956  50.741  1.00  0.00    -0.341 N 
HETATM    6  H7  UNL     1      24.546   1.408  50.290  1.00  0.00     0.167 HD
BRANCH   5   7
HETATM    7  C7  UNL     1      25.860   1.457  51.968  1.00  0.00     0.035 A 
HETATM    8  C8  UNL     1      25.777   2.120  53.174  1.00  0.00     0.032 A 
HETATM    9  C9  UNL     1      26.355   1.555  54.288  1.00  0.00     0.046 A 
HETATM   10  C10 UNL     1      27.025   0.333  54.248  1.00  0.00     0.138 A 
HETATM   11  F1  UNL     1      27.602  -0.246  55.326  1.00  0.00    -0.204 F 
HETATM   12  C11 UNL     1      27.121  -0.349  53.052  1.00  0.00     0.074 A 
HETATM   13 CL1  UNL     1      27.937  -1.895  52.863  1.00  0.00    -0.081 Cl
HETATM   14  C12 UNL     1      26.532   0.243  51.958  1.00  0.00     0.056 A 
ENDBRANCH   5   7
ENDBRANCH   3   5
BRANCH   1  15
HETATM   15  C4  UNL     1      26.769   6.198  48.805  1.00  0.00     0.059 C 
HETATM   16  C3  UNL     1      26.425   7.339  49.381  1.00  0.00     0.037 C 
BRANCH  16  17
HETATM   17  C2  UNL     1      26.772   8.714  48.964  1.00  0.00     0.085 C 
BRANCH  17  18
HETATM   18  C1  UNL     1      27.955   9.175  49.784  1.00  0.00     0.170 C 
BRANCH  18  19
HETATM   19  O1  UNL     1      27.530   9.466  51.068  1.00  0.00    -0.400 OA
HETATM   20  H1  UNL     1      27.777  10.363  51.391  1.00  0.00     0.209 HD
ENDBRANCH  18  19
ENDBRANCH  17  18
ENDBRANCH  16  17
BRANCH  16  21
HETATM   21  N3  UNL     1      25.632   7.330  50.537  1.00  0.00    -0.262 NA
BRANCH  21  22
HETATM   22  P1  UNL     1      24.088   7.781  50.646  1.00  0.00     0.046 P 
HETATM   23  H12 UNL     1      22.948   6.993  50.264  1.00  0.00     0.088 HD
ENDBRANCH  21  22
ENDBRANCH  16  21
ENDBRANCH   1  15
TORSDOF 8
ENDMDL
MODEL 5
REMARK VINA RESULT:      -6.1      5.199      8.390
REMARK  8 active torsions:
REMARK  status: ('A' for Active; 'I' for Inactive)
REMARK    1  A    between atoms: O1_1  and  C1_2 
REMARK    2  A    between atoms: C1_2  and  C2_3 
REMARK    3  A    between atoms: C2_3  and  C3_4 
REMARK    4  A    between atoms: C3_4  and  N3_19 
REMARK    5  A    between atoms: C4_5  and  C5_6 
REMARK    6  A    between atoms: C6_8  and  N2_9 
REMARK    7  A    between atoms: N2_9  and  C7_10 
REMARK    8  A    between atoms: N3_19  and  P1_20 
ROOT
HETATM    1  C5  UNL     1      23.394  -0.715  53.634  1.00  0.00     0.064 A 
HETATM    2  N1  UNL     1      22.357  -0.924  52.874  1.00  0.00    -0.231 NA
HETATM    3  C6  UNL     1      21.429  -0.875  53.956  1.00  0.00     0.130 A 
HETATM    4  C13 UNL     1      22.464  -0.662  54.752  1.00  0.00     0.082 A 
ENDROOT
BRANCH   3   5
HETATM    5  N2  UNL     1      20.032  -0.976  54.286  1.00  0.00    -0.341 N 
HETATM    6  H7  UNL     1      19.707  -1.182  55.242  1.00  0.00     0.167 HD
BRANCH   5   7
HETATM    7  C7  UNL     1      19.044  -0.785  53.254  1.00  0.00     0.035 A 
HETATM    8  C8  UNL     1      19.173   0.131  52.233  1.00  0.00     0.032 A 
HETATM    9  C9  UNL     1      18.170   0.234  51.296  1.00  0.00     0.046 A 
HETATM   10  C10 UNL     1      17.022  -0.556  51.338  1.00  0.00     0.138 A 
HETATM   11  F1  UNL     1      16.020  -0.477  50.432  1.00  0.00    -0.204 F 
HETATM   12  C11 UNL     1      16.869  -1.479  52.351  1.00  0.00     0.074 A 
HETATM   13 CL1  UNL     1      15.473  -2.535  52.520  1.00  0.00    -0.081 Cl
HETATM   14  C12 UNL     1      17.891  -1.557  53.270  1.00  0.00     0.056 A 
ENDBRANCH   5   7
ENDBRANCH   3   5
BRANCH   1  15
HETATM   15  C4  UNL     1      24.818  -0.606  53.343  1.00  0.00     0.059 C 
HETATM   16  C3  UNL     1      25.309   0.539  52.899  1.00  0.00     0.037 C 
BRANCH  16  17
HETATM   17  C2  UNL     1      26.709   0.858  52.547  1.00  0.00     0.085 C 
BRANCH  17  18
HETATM   18  C1  UNL     1      27.407   1.367  53.787  1.00  0.00     0.170 C 
BRANCH  18  19
HETATM   19  O1  UNL     1      27.047   2.686  54.000  1.00  0.00    -0.400 OA
HETATM   20  H1  UNL     1      27.803   3.310  54.098  1.00  0.00     0.209 HD
ENDBRANCH  18  19
ENDBRANCH  17  18
ENDBRANCH  16  17
BRANCH  16  21
HETATM   21  N3  UNL     1      24.462   1.641  52.711  1.00  0.00    -0.262 NA
BRANCH  21  22
HETATM   22  P1  UNL     1      24.210   2.433  51.331  1.00  0.00     0.046 P 
HETATM   23  H12 UNL     1      23.161   3.383  51.080  1.00  0.00     0.088 HD
ENDBRANCH  21  22
ENDBRANCH  16  21
ENDBRANCH   1  15
TORSDOF 8
ENDMDL
MODEL 6
REMARK VINA RESULT:      -6.1      4.609      7.564
REMARK  8 active torsions:
REMARK  status: ('A' for Active; 'I' for Inactive)
REMARK    1  A    between atoms: O1_1  and  C1_2 
REMARK    2  A    between atoms: C1_2  and  C2_3 
REMARK    3  A    between atoms: C2_3  and  C3_4 
REMARK    4  A    between atoms: C3_4  and  N3_19 
REMARK    5  A    between atoms: C4_5  and  C5_6 
REMARK    6  A    between atoms: C6_8  and  N2_9 
REMARK    7  A    between atoms: N2_9  and  C7_10 
REMARK    8  A    between atoms: N3_19  and  P1_20 
ROOT
HETATM    1  C5  UNL     1      25.479   2.351  52.400  1.00  0.00     0.064 A 
HETATM    2  N1  UNL     1      24.544   2.737  53.220  1.00  0.00    -0.231 NA
HETATM    3  C6  UNL     1      23.490   2.502  52.288  1.00  0.00     0.130 A 
HETATM    4  C13 UNL     1      24.420   2.104  51.433  1.00  0.00     0.082 A 
ENDROOT
BRANCH   3   5
HETATM    5  N2  UNL     1      22.064   2.575  52.112  1.00  0.00    -0.341 N 
HETATM    6  H7  UNL     1      21.601   3.406  51.716  1.00  0.00     0.167 HD
BRANCH   5   7
HETATM    7  C7  UNL     1      21.243   1.455  52.499  1.00  0.00     0.035 A 
HETATM    8  C8  UNL     1      19.944   1.277  52.076  1.00  0.00     0.032 A 
HETATM    9  C9  UNL     1      19.246   0.171  52.505  1.00  0.00     0.046 A 
HETATM   10  C10 UNL     1      19.804  -0.782  53.356  1.00  0.00     0.138 A 
HETATM   11  F1  UNL     1      19.143  -1.879  53.794  1.00  0.00    -0.204 F 
HETATM   12  C11 UNL     1      21.102  -0.625  53.794  1.00  0.00     0.074 A 
HETATM   13 CL1  UNL     1      21.923  -1.751  54.868  1.00  0.00    -0.081 Cl
HETATM   14  C12 UNL     1      21.771   0.491  53.346  1.00  0.00     0.056 A 
ENDBRANCH   5   7
ENDBRANCH   3   5
BRANCH   1  15
HETATM   15  C4  UNL     1      26.927   2.261  52.536  1.00  0.00     0.059 C 
HETATM   16  C3  UNL     1      27.475   1.138  52.972  1.00  0.00     0.037 C 
BRANCH  16  17
HETATM   17  C2  UNL     1      28.908   0.841  53.180  1.00  0.00     0.085 C 
BRANCH  17  18
HETATM   18  C1  UNL     1      29.245   1.116  54.627  1.00  0.00     0.170 C 
BRANCH  18  19
HETATM   19  O1  UNL     1      29.718   2.411  54.743  1.00  0.00    -0.400 OA
HETATM   20  H1  UNL     1      29.931   2.692  55.663  1.00  0.00     0.209 HD
ENDBRANCH  18  19
ENDBRANCH  17  18
ENDBRANCH  16  17
BRANCH  16  21
HETATM   21  N3  UNL     1      26.664   0.043  53.300  1.00  0.00    -0.262 NA
BRANCH  21  22
HETATM   22  P1  UNL     1      26.753  -1.439  52.673  1.00  0.00     0.046 P 
HETATM   23  H12 UNL     1      27.959  -2.164  52.383  1.00  0.00     0.088 HD
ENDBRANCH  21  22
ENDBRANCH  16  21
ENDBRANCH   1  15
TORSDOF 8
ENDMDL
MODEL 7
REMARK VINA RESULT:      -6.1      4.951      8.236
REMARK  8 active torsions:
REMARK  status: ('A' for Active; 'I' for Inactive)
REMARK    1  A    between atoms: O1_1  and  C1_2 
REMARK    2  A    between atoms: C1_2  and  C2_3 
REMARK    3  A    between atoms: C2_3  and  C3_4 
REMARK    4  A    between atoms: C3_4  and  N3_19 
REMARK    5  A    between atoms: C4_5  and  C5_6 
REMARK    6  A    between atoms: C6_8  and  N2_9 
REMARK    7  A    between atoms: N2_9  and  C7_10 
REMARK    8  A    between atoms: N3_19  and  P1_20 
ROOT
HETATM    1  C5  UNL     1      22.772  -0.812  54.202  1.00  0.00     0.064 A 
HETATM    2  N1  UNL     1      21.969  -1.555  53.495  1.00  0.00    -0.231 NA
HETATM    3  C6  UNL     1      20.788  -1.001  54.070  1.00  0.00     0.130 A 
HETATM    4  C13 UNL     1      21.579  -0.234  54.803  1.00  0.00     0.082 A 
ENDROOT
BRANCH   3   5
HETATM    5  N2  UNL     1      19.350  -1.066  54.046  1.00  0.00    -0.341 N 
HETATM    6  H7  UNL     1      18.800  -1.358  54.865  1.00  0.00     0.167 HD
BRANCH   5   7
HETATM    7  C7  UNL     1      18.645  -0.713  52.839  1.00  0.00     0.035 A 
HETATM    8  C8  UNL     1      17.352  -1.104  52.568  1.00  0.00     0.032 A 
HETATM    9  C9  UNL     1      16.769  -0.712  51.384  1.00  0.00     0.046 A 
HETATM   10  C10 UNL     1      17.438   0.069  50.442  1.00  0.00     0.138 A 
HETATM   11  F1  UNL     1      16.892   0.470  49.271  1.00  0.00    -0.204 F 
HETATM   12  C11 UNL     1      18.734   0.472  50.691  1.00  0.00     0.074 A 
HETATM   13 CL1  UNL     1      19.688   1.457  49.590  1.00  0.00    -0.081 Cl
HETATM   14  C12 UNL     1      19.285   0.064  51.884  1.00  0.00     0.056 A 
ENDBRANCH   5   7
ENDBRANCH   3   5
BRANCH   1  15
HETATM   15  C4  UNL     1      24.225  -0.715  54.258  1.00  0.00     0.059 C 
HETATM   16  C3  UNL     1      24.852   0.159  53.488  1.00  0.00     0.037 C 
BRANCH  16  17
HETATM   17  C2  UNL     1      26.305   0.416  53.392  1.00  0.00     0.085 C 
BRANCH  17  18
HETATM   18  C1  UNL     1      26.899   0.309  54.777  1.00  0.00     0.170 C 
BRANCH  18  19
HETATM   19  O1  UNL     1      28.023  -0.496  54.727  1.00  0.00    -0.400 OA
HETATM   20  H1  UNL     1      27.866  -1.403  54.375  1.00  0.00     0.209 HD
ENDBRANCH  18  19
ENDBRANCH  17  18
ENDBRANCH  16  17
BRANCH  16  21
HETATM   21  N3  UNL     1      24.120   0.986  52.624  1.00  0.00    -0.262 NA
BRANCH  21  22
HETATM   22  P1  UNL     1      24.081   2.597  52.641  1.00  0.00     0.046 P 
HETATM   23  H12 UNL     1      23.033   3.412  53.190  1.00  0.00     0.088 HD
ENDBRANCH  21  22
ENDBRANCH  16  21
ENDBRANCH   1  15
TORSDOF 8
ENDMDL
MODEL 8
REMARK VINA RESULT:      -6.0      5.181      5.817
REMARK  8 active torsions:
REMARK  status: ('A' for Active; 'I' for Inactive)
REMARK    1  A    between atoms: O1_1  and  C1_2 
REMARK    2  A    between atoms: C1_2  and  C2_3 
REMARK    3  A    between atoms: C2_3  and  C3_4 
REMARK    4  A    between atoms: C3_4  and  N3_19 
REMARK    5  A    between atoms: C4_5  and  C5_6 
REMARK    6  A    between atoms: C6_8  and  N2_9 
REMARK    7  A    between atoms: N2_9  and  C7_10 
REMARK    8  A    between atoms: N3_19  and  P1_20 
ROOT
HETATM    1  C5  UNL     1      22.834   2.681  51.982  1.00  0.00     0.064 A 
HETATM    2  N1  UNL     1      23.186   3.026  50.776  1.00  0.00    -0.231 NA
HETATM    3  C6  UNL     1      23.656   4.312  51.173  1.00  0.00     0.130 A 
HETATM    4  C13 UNL     1      23.307   3.990  52.408  1.00  0.00     0.082 A 
ENDROOT
BRANCH   3   5
HETATM    5  N2  UNL     1      24.250   5.528  50.682  1.00  0.00    -0.341 N 
HETATM    6  H7  UNL     1      23.829   6.452  50.853  1.00  0.00     0.167 HD
BRANCH   5   7
HETATM    7  C7  UNL     1      25.474   5.463  49.924  1.00  0.00     0.035 A 
HETATM    8  C8  UNL     1      26.171   4.296  49.697  1.00  0.00     0.032 A 
HETATM    9  C9  UNL     1      27.331   4.344  48.957  1.00  0.00     0.046 A 
HETATM   10  C10 UNL     1      27.834   5.532  48.427  1.00  0.00     0.138 A 
HETATM   11  F1  UNL     1      28.971   5.609  47.697  1.00  0.00    -0.204 F 
HETATM   12  C11 UNL     1      27.154   6.713  48.643  1.00  0.00     0.074 A 
HETATM   13 CL1  UNL     1      27.678   8.276  48.031  1.00  0.00    -0.081 Cl
HETATM   14  C12 UNL     1      25.998   6.630  49.384  1.00  0.00     0.056 A 
ENDBRANCH   5   7
ENDBRANCH   3   5
BRANCH   1  15
HETATM   15  C4  UNL     1      22.233   1.468  52.520  1.00  0.00     0.059 C 
HETATM   16  C3  UNL     1      23.010   0.503  52.985  1.00  0.00     0.037 C 
BRANCH  16  17
HETATM   17  C2  UNL     1      22.607  -0.795  53.567  1.00  0.00     0.085 C 
BRANCH  17  18
HETATM   18  C1  UNL     1      21.591  -0.533  54.654  1.00  0.00     0.170 C 
BRANCH  18  19
HETATM   19  O1  UNL     1      20.939  -1.715  54.958  1.00  0.00    -0.400 OA
HETATM   20  H1  UNL     1      20.525  -2.168  54.187  1.00  0.00     0.209 HD
ENDBRANCH  18  19
ENDBRANCH  17  18
ENDBRANCH  16  17
BRANCH  16  21
HETATM   21  N3  UNL     1      24.404   0.651  52.958  1.00  0.00    -0.262 NA
BRANCH  21  22
HETATM   22  P1  UNL     1      25.495  -0.452  53.396  1.00  0.00     0.046 P 
HETATM   23  H12 UNL     1      26.353  -1.190  52.512  1.00  0.00     0.088 HD
ENDBRANCH  21  22
ENDBRANCH  16  21
ENDBRANCH   1  15
TORSDOF 8
ENDMDL
MODEL 9
REMARK VINA RESULT:      -5.8      2.295      2.446
REMARK  8 active torsions:
REMARK  status: ('A' for Active; 'I' for Inactive)
REMARK    1  A    between atoms: O1_1  and  C1_2 
REMARK    2  A    between atoms: C1_2  and  C2_3 
REMARK    3  A    between atoms: C2_3  and  C3_4 
REMARK    4  A    between atoms: C3_4  and  N3_19 
REMARK    5  A    between atoms: C4_5  and  C5_6 
REMARK    6  A    between atoms: C6_8  and  N2_9 
REMARK    7  A    between atoms: N2_9  and  C7_10 
REMARK    8  A    between atoms: N3_19  and  P1_20 
ROOT
HETATM    1  C5  UNL     1      23.468   1.979  51.097  1.00  0.00     0.064 A 
HETATM    2  N1  UNL     1      24.694   2.402  50.970  1.00  0.00    -0.231 NA
HETATM    3  C6  UNL     1      24.988   2.276  52.360  1.00  0.00     0.130 A 
HETATM    4  C13 UNL     1      23.747   1.845  52.519  1.00  0.00     0.082 A 
ENDROOT
BRANCH   3   5
HETATM    5  N2  UNL     1      26.022   2.459  53.344  1.00  0.00    -0.341 N 
HETATM    6  H7  UNL     1      26.012   3.242  54.013  1.00  0.00     0.167 HD
BRANCH   5   7
HETATM    7  C7  UNL     1      27.115   1.521  53.406  1.00  0.00     0.035 A 
HETATM    8  C8  UNL     1      28.393   1.862  53.791  1.00  0.00     0.032 A 
HETATM    9  C9  UNL     1      29.366   0.889  53.817  1.00  0.00     0.046 A 
HETATM   10  C10 UNL     1      29.110  -0.436  53.467  1.00  0.00     0.138 A 
HETATM   11  F1  UNL     1      30.044  -1.414  53.482  1.00  0.00    -0.204 F 
HETATM   12  C11 UNL     1      27.838  -0.801  53.077  1.00  0.00     0.074 A 
HETATM   13 CL1  UNL     1      27.381  -2.434  52.611  1.00  0.00    -0.081 Cl
HETATM   14  C12 UNL     1      26.889   0.195  53.064  1.00  0.00     0.056 A 
ENDBRANCH   5   7
ENDBRANCH   3   5
BRANCH   1  15
HETATM   15  C4  UNL     1      22.394   1.780  50.133  1.00  0.00     0.059 C 
HETATM   16  C3  UNL     1      21.411   2.662  50.058  1.00  0.00     0.037 C 
BRANCH  16  17
HETATM   17  C2  UNL     1      20.237   2.647  49.159  1.00  0.00     0.085 C 
BRANCH  17  18
HETATM   18  C1  UNL     1      19.205   1.708  49.739  1.00  0.00     0.170 C 
BRANCH  18  19
HETATM   19  O1  UNL     1      18.677   2.271  50.888  1.00  0.00    -0.400 OA
HETATM   20  H1  UNL     1      18.930   3.210  51.042  1.00  0.00     0.209 HD
ENDBRANCH  18  19
ENDBRANCH  17  18
ENDBRANCH  16  17
BRANCH  16  21
HETATM   21  N3  UNL     1      21.405   3.781  50.902  1.00  0.00    -0.262 NA
BRANCH  21  22
HETATM   22  P1  UNL     1      21.017   5.291  50.493  1.00  0.00     0.046 P 
HETATM   23  H12 UNL     1      21.432   5.977  49.300  1.00  0.00     0.088 HD
ENDBRANCH  21  22
ENDBRANCH  16  21
ENDBRANCH   1  15
TORSDOF 8
ENDMDL
