MODEL 1
REMARK VINA RESULT:      -8.7      0.000      0.000
REMARK  8 active torsions:
REMARK  status: ('A' for Active; 'I' for Inactive)
REMARK    1  A    between atoms: O1_2  and  C2_3 
REMARK    2  A    between atoms: C6_7  and  C7_8 
REMARK    3  A    between atoms: C9_10  and  C10_11 
REMARK    4  A    between atoms: C10_11  and  C11_12 
REMARK    5  A    between atoms: C12_13  and  C13_14 
REMARK    6  A    between atoms: C13_14  and  C14_15 
REMARK    7  A    between atoms: C14_15  and  C15_16 
REMARK    8  A    between atoms: C15_16  and  O2_18 
ROOT
HETATM    1  C7  UNL     1      25.962   5.172  49.059  1.00  0.00    -0.019 C 
HETATM    2  C8  UNL     1      25.968   3.959  49.578  1.00  0.00     0.018 C 
HETATM    3  C9  UNL     1      24.745   3.293  50.148  1.00  0.00    -0.028 C 
HETATM    4  C21 UNL     1      23.589   3.964  49.501  1.00  0.00     0.308 C 
HETATM    5  N2  UNL     1      23.633   5.407  49.704  1.00  0.00     0.091 N 
HETATM    6  C22 UNL     1      24.737   6.008  48.992  1.00  0.00     0.309 C 
HETATM    7  H27 UNL     1      23.789   5.595  50.734  1.00  0.00     0.316 HD
ENDROOT
BRANCH   3   8
HETATM    8  C10 UNL     1      24.556   2.353  51.011  1.00  0.00     0.038 C 
BRANCH   8   9
HETATM    9  C11 UNL     1      24.471   1.287  51.977  1.00  0.00     0.037 A 
HETATM   10  C12 UNL     1      25.377   0.452  52.577  1.00  0.00    -0.050 A 
HETATM   11  C17 UNL     1      25.034  -0.561  53.602  1.00  0.00     0.065 A 
HETATM   12  C18 UNL     1      23.604  -0.564  53.877  1.00  0.00    -0.005 A 
HETATM   13  C19 UNL     1      22.688   0.181  53.355  1.00  0.00     0.087 A 
HETATM   14  N1  UNL     1      23.073   1.160  52.368  1.00  0.00    -0.361 N 
HETATM   15  C20 UNL     1      21.959   1.920  51.875  1.00  0.00     0.155 C 
BRANCH  10  16
HETATM   16  C13 UNL     1      26.787   0.613  52.207  1.00  0.00     0.039 C 
BRANCH  16  17
HETATM   17  C14 UNL     1      27.609   1.622  52.885  1.00  0.00     0.035 C 
BRANCH  17  18
HETATM   18  C15 UNL     1      28.826   1.263  53.622  1.00  0.00     0.114 C 
HETATM   19  C16 UNL     1      28.648   0.333  54.771  1.00  0.00     0.039 C 
BRANCH  18  20
HETATM   20  O2  UNL     1      29.240   2.504  54.254  1.00  0.00    -0.396 OA
HETATM   21  H17 UNL     1      30.232   2.490  54.347  1.00  0.00     0.210 HD
ENDBRANCH  18  20
ENDBRANCH  17  18
ENDBRANCH  16  17
ENDBRANCH  10  16
ENDBRANCH   8   9
ENDBRANCH   3   8
BRANCH   1  22
HETATM   22  C6  UNL     1      27.212   5.695  48.544  1.00  0.00    -0.025 A 
HETATM   23  C5  UNL     1      27.207   6.961  47.993  1.00  0.00     0.012 A 
HETATM   24  C4  UNL     1      28.310   7.580  47.469  1.00  0.00     0.004 A 
HETATM   25  C3  UNL     1      29.525   6.942  47.468  1.00  0.00     0.037 A 
HETATM   26  C2  UNL     1      29.563   5.675  48.011  1.00  0.00     0.069 A 
HETATM   27  C23 UNL     1      28.423   5.096  48.526  1.00  0.00     0.048 A 
BRANCH  26  28
HETATM   28  O1  UNL     1      30.785   4.976  48.034  1.00  0.00    -0.356 OA
HETATM   29  C1  UNL     1      31.930   5.584  48.591  1.00  0.00     0.210 C 
ENDBRANCH  26  28
ENDBRANCH   1  22
TORSDOF 8
ENDMDL
MODEL 2
REMARK VINA RESULT:      -8.4      1.405      1.858
REMARK  8 active torsions:
REMARK  status: ('A' for Active; 'I' for Inactive)
REMARK    1  A    between atoms: O1_2  and  C2_3 
REMARK    2  A    between atoms: C6_7  and  C7_8 
REMARK    3  A    between atoms: C9_10  and  C10_11 
REMARK    4  A    between atoms: C10_11  and  C11_12 
REMARK    5  A    between atoms: C12_13  and  C13_14 
REMARK    6  A    between atoms: C13_14  and  C14_15 
REMARK    7  A    between atoms: C14_15  and  C15_16 
REMARK    8  A    between atoms: C15_16  and  O2_18 
ROOT
HETATM    1  C7  UNL     1      25.599   4.921  49.206  1.00  0.00    -0.019 C 
HETATM    2  C8  UNL     1      25.734   3.790  49.873  1.00  0.00     0.018 C 
HETATM    3  C9  UNL     1      24.571   2.948  50.324  1.00  0.00    -0.028 C 
HETATM    4  C21 UNL     1      23.448   3.304  49.420  1.00  0.00     0.308 C 
HETATM    5  N2  UNL     1      23.189   4.738  49.438  1.00  0.00     0.091 N 
HETATM    6  C22 UNL     1      24.274   5.480  48.838  1.00  0.00     0.309 C 
HETATM    7  H27 UNL     1      23.120   5.053  50.447  1.00  0.00     0.316 HD
ENDROOT
BRANCH   3   8
HETATM    8  C10 UNL     1      24.406   2.077  51.261  1.00  0.00     0.038 C 
BRANCH   8   9
HETATM    9  C11 UNL     1      24.299   1.028  52.244  1.00  0.00     0.037 A 
HETATM   10  C12 UNL     1      25.169   0.115  52.781  1.00  0.00    -0.050 A 
HETATM   11  C17 UNL     1      24.816  -0.856  53.842  1.00  0.00     0.065 A 
HETATM   12  C18 UNL     1      23.418  -0.725  54.228  1.00  0.00    -0.005 A 
HETATM   13  C19 UNL     1      22.536   0.099  53.770  1.00  0.00     0.087 A 
HETATM   14  N1  UNL     1      22.931   1.033  52.744  1.00  0.00    -0.361 N 
HETATM   15  C20 UNL     1      21.857   1.891  52.331  1.00  0.00     0.155 C 
BRANCH  10  16
HETATM   16  C13 UNL     1      26.554   0.144  52.301  1.00  0.00     0.039 C 
BRANCH  16  17
HETATM   17  C14 UNL     1      27.585   0.833  53.085  1.00  0.00     0.035 C 
BRANCH  17  18
HETATM   18  C15 UNL     1      28.613   0.098  53.831  1.00  0.00     0.114 C 
HETATM   19  C16 UNL     1      28.996  -1.232  53.284  1.00  0.00     0.039 C 
BRANCH  18  20
HETATM   20  O2  UNL     1      27.973  -0.230  55.094  1.00  0.00    -0.396 OA
HETATM   21  H17 UNL     1      28.661  -0.617  55.701  1.00  0.00     0.210 HD
ENDBRANCH  18  20
ENDBRANCH  17  18
ENDBRANCH  16  17
ENDBRANCH  10  16
ENDBRANCH   8   9
ENDBRANCH   3   8
BRANCH   1  22
HETATM   22  C6  UNL     1      26.803   5.634  48.831  1.00  0.00    -0.025 A 
HETATM   23  C5  UNL     1      27.935   4.895  48.552  1.00  0.00     0.012 A 
HETATM   24  C4  UNL     1      29.140   5.434  48.186  1.00  0.00     0.004 A 
HETATM   25  C3  UNL     1      29.283   6.794  48.076  1.00  0.00     0.037 A 
HETATM   26  C2  UNL     1      28.170   7.561  48.348  1.00  0.00     0.069 A 
HETATM   27  C23 UNL     1      26.980   6.969  48.712  1.00  0.00     0.048 A 
BRANCH  26  28
HETATM   28  O1  UNL     1      28.264   8.963  48.250  1.00  0.00    -0.356 OA
HETATM   29  C1  UNL     1      28.798   9.706  49.324  1.00  0.00     0.210 C 
ENDBRANCH  26  28
ENDBRANCH   1  22
TORSDOF 8
ENDMDL
MODEL 3
REMARK VINA RESULT:      -8.0      4.654      7.620
REMARK  8 active torsions:
REMARK  status: ('A' for Active; 'I' for Inactive)
REMARK    1  A    between atoms: O1_2  and  C2_3 
REMARK    2  A    between atoms: C6_7  and  C7_8 
REMARK    3  A    between atoms: C9_10  and  C10_11 
REMARK    4  A    between atoms: C10_11  and  C11_12 
REMARK    5  A    between atoms: C12_13  and  C13_14 
REMARK    6  A    between atoms: C13_14  and  C14_15 
REMARK    7  A    between atoms: C14_15  and  C15_16 
REMARK    8  A    between atoms: C15_16  and  O2_18 
ROOT
HETATM    1  C7  UNL     1      23.622  -0.341  53.775  1.00  0.00    -0.019 C 
HETATM    2  C8  UNL     1      22.681   0.198  53.023  1.00  0.00     0.018 C 
HETATM    3  C9  UNL     1      21.209   0.017  53.277  1.00  0.00    -0.028 C 
HETATM    4  C21 UNL     1      21.093  -0.320  54.718  1.00  0.00     0.308 C 
HETATM    5  N2  UNL     1      21.905  -1.483  55.057  1.00  0.00     0.091 N 
HETATM    6  C22 UNL     1      23.316  -1.191  54.953  1.00  0.00     0.309 C 
HETATM    7  H27 UNL     1      21.695  -2.252  54.359  1.00  0.00     0.316 HD
ENDROOT
BRANCH   3   8
HETATM    8  C10 UNL     1      20.157   0.089  52.535  1.00  0.00     0.038 C 
BRANCH   8   9
HETATM    9  C11 UNL     1      19.056   0.205  51.611  1.00  0.00     0.037 A 
HETATM   10  C12 UNL     1      18.844   0.887  50.442  1.00  0.00    -0.050 A 
HETATM   11  C17 UNL     1      17.606   0.802  49.634  1.00  0.00     0.065 A 
HETATM   12  C18 UNL     1      16.635  -0.090  50.254  1.00  0.00    -0.005 A 
HETATM   13  C19 UNL     1      16.754  -0.761  51.350  1.00  0.00     0.087 A 
HETATM   14  N1  UNL     1      17.983  -0.653  52.098  1.00  0.00    -0.361 N 
HETATM   15  C20 UNL     1      17.982  -1.454  53.289  1.00  0.00     0.155 C 
BRANCH  10  16
HETATM   16  C13 UNL     1      19.943   1.718  49.940  1.00  0.00     0.039 C 
BRANCH  16  17
HETATM   17  C14 UNL     1      20.989   1.117  49.104  1.00  0.00     0.035 C 
BRANCH  17  18
HETATM   18  C15 UNL     1      22.253   1.810  48.827  1.00  0.00     0.114 C 
HETATM   19  C16 UNL     1      22.905   2.475  49.987  1.00  0.00     0.039 C 
BRANCH  18  20
HETATM   20  O2  UNL     1      21.871   2.922  47.972  1.00  0.00    -0.396 OA
HETATM   21  H17 UNL     1      22.458   2.912  47.168  1.00  0.00     0.210 HD
ENDBRANCH  18  20
ENDBRANCH  17  18
ENDBRANCH  16  17
ENDBRANCH  10  16
ENDBRANCH   8   9
ENDBRANCH   3   8
BRANCH   1  22
HETATM   22  C6  UNL     1      25.004  -0.087  53.419  1.00  0.00    -0.025 A 
HETATM   23  C5  UNL     1      25.254   0.655  52.283  1.00  0.00     0.012 A 
HETATM   24  C4  UNL     1      26.506   0.973  51.826  1.00  0.00     0.004 A 
HETATM   25  C3  UNL     1      27.618   0.547  52.509  1.00  0.00     0.037 A 
HETATM   26  C2  UNL     1      27.402  -0.198  53.649  1.00  0.00     0.069 A 
HETATM   27  C23 UNL     1      26.121  -0.489  54.066  1.00  0.00     0.048 A 
BRANCH  26  28
HETATM   28  O1  UNL     1      28.509  -0.660  54.386  1.00  0.00    -0.356 OA
HETATM   29  C1  UNL     1      29.728  -0.924  53.727  1.00  0.00     0.210 C 
ENDBRANCH  26  28
ENDBRANCH   1  22
TORSDOF 8
ENDMDL
MODEL 4
REMARK VINA RESULT:      -7.9      1.337      1.759
REMARK  8 active torsions:
REMARK  status: ('A' for Active; 'I' for Inactive)
REMARK    1  A    between atoms: O1_2  and  C2_3 
REMARK    2  A    between atoms: C6_7  and  C7_8 
REMARK    3  A    between atoms: C9_10  and  C10_11 
REMARK    4  A    between atoms: C10_11  and  C11_12 
REMARK    5  A    between atoms: C12_13  and  C13_14 
REMARK    6  A    between atoms: C13_14  and  C14_15 
REMARK    7  A    between atoms: C14_15  and  C15_16 
REMARK    8  A    between atoms: C15_16  and  O2_18 
ROOT
HETATM    1  C7  UNL     1      26.361   5.697  48.779  1.00  0.00    -0.019 C 
HETATM    2  C8  UNL     1      26.272   4.484  49.292  1.00  0.00     0.018 C 
HETATM    3  C9  UNL     1      24.973   3.856  49.718  1.00  0.00    -0.028 C 
HETATM    4  C21 UNL     1      23.918   4.560  48.946  1.00  0.00     0.308 C 
HETATM    5  N2  UNL     1      23.981   6.001  49.157  1.00  0.00     0.091 N 
HETATM    6  C22 UNL     1      25.177   6.569  48.577  1.00  0.00     0.309 C 
HETATM    7  H27 UNL     1      24.026   6.185  50.200  1.00  0.00     0.316 HD
ENDROOT
BRANCH   3   8
HETATM    8  C10 UNL     1      24.661   2.922  50.551  1.00  0.00     0.038 C 
BRANCH   8   9
HETATM    9  C11 UNL     1      24.387   1.934  51.566  1.00  0.00     0.037 A 
HETATM   10  C12 UNL     1      25.043   1.492  52.684  1.00  0.00    -0.050 A 
HETATM   11  C17 UNL     1      24.516   0.468  53.616  1.00  0.00     0.065 A 
HETATM   12  C18 UNL     1      23.216  -0.019  53.177  1.00  0.00    -0.005 A 
HETATM   13  C19 UNL     1      22.537   0.339  52.139  1.00  0.00     0.087 A 
HETATM   14  N1  UNL     1      23.088   1.347  51.267  1.00  0.00    -0.361 N 
HETATM   15  C20 UNL     1      22.229   1.652  50.158  1.00  0.00     0.155 C 
BRANCH  10  16
HETATM   16  C13 UNL     1      26.332   2.117  52.999  1.00  0.00     0.039 C 
BRANCH  16  17
HETATM   17  C14 UNL     1      27.344   1.366  53.751  1.00  0.00     0.035 C 
BRANCH  17  18
HETATM   18  C15 UNL     1      28.774   1.459  53.434  1.00  0.00     0.114 C 
HETATM   19  C16 UNL     1      29.585   0.240  53.697  1.00  0.00     0.039 C 
BRANCH  18  20
HETATM   20  O2  UNL     1      29.290   2.421  54.394  1.00  0.00    -0.396 OA
HETATM   21  H17 UNL     1      29.949   1.954  54.978  1.00  0.00     0.210 HD
ENDBRANCH  18  20
ENDBRANCH  17  18
ENDBRANCH  16  17
ENDBRANCH  10  16
ENDBRANCH   8   9
ENDBRANCH   3   8
BRANCH   1  22
HETATM   22  C6  UNL     1      27.675   6.183  48.410  1.00  0.00    -0.025 A 
HETATM   23  C5  UNL     1      28.699   5.264  48.303  1.00  0.00     0.012 A 
HETATM   24  C4  UNL     1      29.988   5.579  47.964  1.00  0.00     0.004 A 
HETATM   25  C3  UNL     1      30.335   6.881  47.703  1.00  0.00     0.037 A 
HETATM   26  C2  UNL     1      29.334   7.823  47.801  1.00  0.00     0.069 A 
HETATM   27  C23 UNL     1      28.052   7.454  48.146  1.00  0.00     0.048 A 
BRANCH  26  28
HETATM   28  O1  UNL     1      29.638   9.174  47.545  1.00  0.00    -0.356 OA
HETATM   29  C1  UNL     1      30.769   9.503  46.769  1.00  0.00     0.210 C 
ENDBRANCH  26  28
ENDBRANCH   1  22
TORSDOF 8
ENDMDL
MODEL 5
REMARK VINA RESULT:      -7.9      1.697      2.596
REMARK  8 active torsions:
REMARK  status: ('A' for Active; 'I' for Inactive)
REMARK    1  A    between atoms: O1_2  and  C2_3 
REMARK    2  A    between atoms: C6_7  and  C7_8 
REMARK    3  A    between atoms: C9_10  and  C10_11 
REMARK    4  A    between atoms: C10_11  and  C11_12 
REMARK    5  A    between atoms: C12_13  and  C13_14 
REMARK    6  A    between atoms: C13_14  and  C14_15 
REMARK    7  A    between atoms: C14_15  and  C15_16 
REMARK    8  A    between atoms: C15_16  and  O2_18 
ROOT
HETATM    1  C7  UNL     1      23.949   4.447  49.508  1.00  0.00    -0.019 C 
HETATM    2  C8  UNL     1      24.100   3.508  50.424  1.00  0.00     0.018 C 
HETATM    3  C9  UNL     1      23.179   2.326  50.561  1.00  0.00    -0.028 C 
HETATM    4  C21 UNL     1      22.548   2.156  49.228  1.00  0.00     0.308 C 
HETATM    5  N2  UNL     1      21.886   3.381  48.796  1.00  0.00     0.091 N 
HETATM    6  C22 UNL     1      22.842   4.430  48.520  1.00  0.00     0.309 C 
HETATM    7  H27 UNL     1      21.270   3.724  49.586  1.00  0.00     0.316 HD
ENDROOT
BRANCH   3   8
HETATM    8  C10 UNL     1      22.877   1.534  51.533  1.00  0.00     0.038 C 
BRANCH   8   9
HETATM    9  C11 UNL     1      22.660   0.655  52.655  1.00  0.00     0.037 A 
HETATM   10  C12 UNL     1      23.468  -0.122  53.443  1.00  0.00    -0.050 A 
HETATM   11  C17 UNL     1      22.995  -0.922  54.596  1.00  0.00     0.065 A 
HETATM   12  C18 UNL     1      21.556  -0.788  54.773  1.00  0.00    -0.005 A 
HETATM   13  C19 UNL     1      20.727  -0.086  54.075  1.00  0.00     0.087 A 
HETATM   14  N1  UNL     1      21.237   0.685  52.967  1.00  0.00    -0.361 N 
HETATM   15  C20 UNL     1      20.211   1.420  52.282  1.00  0.00     0.155 C 
BRANCH  10  16
HETATM   16  C13 UNL     1      24.904  -0.116  53.147  1.00  0.00     0.039 C 
BRANCH  16  17
HETATM   17  C14 UNL     1      25.785   0.844  53.822  1.00  0.00     0.035 C 
BRANCH  17  18
HETATM   18  C15 UNL     1      26.230   2.081  53.170  1.00  0.00     0.114 C 
HETATM   19  C16 UNL     1      26.976   1.917  51.892  1.00  0.00     0.039 C 
BRANCH  18  20
HETATM   20  O2  UNL     1      27.228   2.624  54.076  1.00  0.00    -0.396 OA
HETATM   21  H17 UNL     1      28.103   2.197  53.866  1.00  0.00     0.210 HD
ENDBRANCH  18  20
ENDBRANCH  17  18
ENDBRANCH  16  17
ENDBRANCH  10  16
ENDBRANCH   8   9
ENDBRANCH   3   8
BRANCH   1  22
HETATM   22  C6  UNL     1      24.908   5.533  49.486  1.00  0.00    -0.025 A 
HETATM   23  C5  UNL     1      24.606   6.679  50.191  1.00  0.00     0.012 A 
HETATM   24  C4  UNL     1      25.416   7.782  50.259  1.00  0.00     0.004 A 
HETATM   25  C3  UNL     1      26.619   7.796  49.598  1.00  0.00     0.037 A 
HETATM   26  C2  UNL     1      26.950   6.665  48.883  1.00  0.00     0.069 A 
HETATM   27  C23 UNL     1      26.099   5.582  48.848  1.00  0.00     0.048 A 
BRANCH  26  28
HETATM   28  O1  UNL     1      28.173   6.629  48.186  1.00  0.00    -0.356 OA
HETATM   29  C1  UNL     1      28.974   5.468  48.238  1.00  0.00     0.210 C 
ENDBRANCH  26  28
ENDBRANCH   1  22
TORSDOF 8
ENDMDL
MODEL 6
REMARK VINA RESULT:      -7.8      3.298      6.898
REMARK  8 active torsions:
REMARK  status: ('A' for Active; 'I' for Inactive)
REMARK    1  A    between atoms: O1_2  and  C2_3 
REMARK    2  A    between atoms: C6_7  and  C7_8 
REMARK    3  A    between atoms: C9_10  and  C10_11 
REMARK    4  A    between atoms: C10_11  and  C11_12 
REMARK    5  A    between atoms: C12_13  and  C13_14 
REMARK    6  A    between atoms: C13_14  and  C14_15 
REMARK    7  A    between atoms: C14_15  and  C15_16 
REMARK    8  A    between atoms: C15_16  and  O2_18 
ROOT
HETATM    1  C7  UNL     1      25.069   0.124  52.718  1.00  0.00    -0.019 C 
HETATM    2  C8  UNL     1      24.874   1.072  51.821  1.00  0.00     0.018 C 
HETATM    3  C9  UNL     1      23.518   1.624  51.477  1.00  0.00    -0.028 C 
HETATM    4  C21 UNL     1      22.665   1.349  52.660  1.00  0.00     0.308 C 
HETATM    5  N2  UNL     1      22.665  -0.070  52.994  1.00  0.00     0.091 N 
HETATM    6  C22 UNL     1      23.957  -0.500  53.477  1.00  0.00     0.309 C 
HETATM    7  H27 UNL     1      22.465  -0.621  52.112  1.00  0.00     0.316 HD
ENDROOT
BRANCH   3   8
HETATM    8  C10 UNL     1      23.029   2.219  50.442  1.00  0.00     0.038 C 
BRANCH   8   9
HETATM    9  C11 UNL     1      22.583   2.960  49.288  1.00  0.00     0.037 A 
HETATM   10  C12 UNL     1      23.030   4.071  48.622  1.00  0.00    -0.050 A 
HETATM   11  C17 UNL     1      22.403   4.624  47.399  1.00  0.00     0.065 A 
HETATM   12  C18 UNL     1      21.239   3.841  47.007  1.00  0.00    -0.005 A 
HETATM   13  C19 UNL     1      20.752   2.792  47.580  1.00  0.00     0.087 A 
HETATM   14  N1  UNL     1      21.403   2.285  48.763  1.00  0.00    -0.361 N 
HETATM   15  C20 UNL     1      20.761   1.116  49.293  1.00  0.00     0.155 C 
BRANCH  10  16
HETATM   16  C13 UNL     1      24.241   4.720  49.135  1.00  0.00     0.039 C 
BRANCH  16  17
HETATM   17  C14 UNL     1      24.126   5.835  50.081  1.00  0.00     0.035 C 
BRANCH  17  18
HETATM   18  C15 UNL     1      23.996   5.616  51.526  1.00  0.00     0.114 C 
HETATM   19  C16 UNL     1      22.611   5.438  52.041  1.00  0.00     0.039 C 
BRANCH  18  20
HETATM   20  O2  UNL     1      24.416   6.875  52.118  1.00  0.00    -0.396 OA
HETATM   21  H17 UNL     1      23.780   7.102  52.851  1.00  0.00     0.210 HD
ENDBRANCH  18  20
ENDBRANCH  17  18
ENDBRANCH  16  17
ENDBRANCH  10  16
ENDBRANCH   8   9
ENDBRANCH   3   8
BRANCH   1  22
HETATM   22  C6  UNL     1      26.429  -0.318  52.954  1.00  0.00    -0.025 A 
HETATM   23  C5  UNL     1      26.737  -1.637  52.693  1.00  0.00     0.012 A 
HETATM   24  C4  UNL     1      27.977  -2.192  52.869  1.00  0.00     0.004 A 
HETATM   25  C3  UNL     1      29.017  -1.425  53.334  1.00  0.00     0.037 A 
HETATM   26  C2  UNL     1      28.741  -0.102  53.604  1.00  0.00     0.069 A 
HETATM   27  C23 UNL     1      27.475   0.407  53.410  1.00  0.00     0.048 A 
BRANCH  26  28
HETATM   28  O1  UNL     1      29.772   0.728  54.085  1.00  0.00    -0.356 OA
HETATM   29  C1  UNL     1      29.477   2.045  54.496  1.00  0.00     0.210 C 
ENDBRANCH  26  28
ENDBRANCH   1  22
TORSDOF 8
ENDMDL
MODEL 7
REMARK VINA RESULT:      -7.8      2.346      8.162
REMARK  8 active torsions:
REMARK  status: ('A' for Active; 'I' for Inactive)
REMARK    1  A    between atoms: O1_2  and  C2_3 
REMARK    2  A    between atoms: C6_7  and  C7_8 
REMARK    3  A    between atoms: C9_10  and  C10_11 
REMARK    4  A    between atoms: C10_11  and  C11_12 
REMARK    5  A    between atoms: C12_13  and  C13_14 
REMARK    6  A    between atoms: C13_14  and  C14_15 
REMARK    7  A    between atoms: C14_15  and  C15_16 
REMARK    8  A    between atoms: C15_16  and  O2_18 
ROOT
HETATM    1  C7  UNL     1      24.275   2.121  51.433  1.00  0.00    -0.019 C 
HETATM    2  C8  UNL     1      24.475   2.907  50.391  1.00  0.00     0.018 C 
HETATM    3  C9  UNL     1      25.769   3.631  50.132  1.00  0.00    -0.028 C 
HETATM    4  C21 UNL     1      26.808   2.860  50.862  1.00  0.00     0.308 C 
HETATM    5  N2  UNL     1      26.472   2.724  52.274  1.00  0.00     0.091 N 
HETATM    6  C22 UNL     1      25.315   1.878  52.463  1.00  0.00     0.309 C 
HETATM    7  H27 UNL     1      26.221   3.681  52.652  1.00  0.00     0.316 HD
ENDROOT
BRANCH   3   8
HETATM    8  C10 UNL     1      26.085   4.689  49.467  1.00  0.00     0.038 C 
BRANCH   8   9
HETATM    9  C11 UNL     1      26.548   5.816  48.696  1.00  0.00     0.037 A 
HETATM   10  C12 UNL     1      27.754   6.194  48.167  1.00  0.00    -0.050 A 
HETATM   11  C17 UNL     1      27.967   7.411  47.350  1.00  0.00     0.065 A 
HETATM   12  C18 UNL     1      26.729   8.163  47.198  1.00  0.00    -0.005 A 
HETATM   13  C19 UNL     1      25.560   7.881  47.666  1.00  0.00     0.087 A 
HETATM   14  N1  UNL     1      25.400   6.679  48.448  1.00  0.00    -0.361 N 
HETATM   15  C20 UNL     1      24.052   6.485  48.901  1.00  0.00     0.155 C 
BRANCH  10  16
HETATM   16  C13 UNL     1      28.895   5.300  48.388  1.00  0.00     0.039 C 
BRANCH  16  17
HETATM   17  C14 UNL     1      30.253   5.757  48.073  1.00  0.00     0.035 C 
BRANCH  17  18
HETATM   18  C15 UNL     1      31.087   6.450  49.063  1.00  0.00     0.114 C 
HETATM   19  C16 UNL     1      32.522   6.624  48.705  1.00  0.00     0.039 C 
BRANCH  18  20
HETATM   20  O2  UNL     1      31.131   5.538  50.194  1.00  0.00    -0.396 OA
HETATM   21  H17 UNL     1      30.218   5.490  50.590  1.00  0.00     0.210 HD
ENDBRANCH  18  20
ENDBRANCH  17  18
ENDBRANCH  16  17
ENDBRANCH  10  16
ENDBRANCH   8   9
ENDBRANCH   3   8
BRANCH   1  22
HETATM   22  C6  UNL     1      22.981   1.483  51.562  1.00  0.00    -0.025 A 
HETATM   23  C5  UNL     1      22.191   1.384  50.435  1.00  0.00     0.012 A 
HETATM   24  C4  UNL     1      20.949   0.808  50.409  1.00  0.00     0.004 A 
HETATM   25  C3  UNL     1      20.408   0.280  51.555  1.00  0.00     0.037 A 
HETATM   26  C2  UNL     1      21.173   0.364  52.699  1.00  0.00     0.069 A 
HETATM   27  C23 UNL     1      22.418   0.953  52.672  1.00  0.00     0.048 A 
BRANCH  26  28
HETATM   28  O1  UNL     1      20.664  -0.162  53.902  1.00  0.00    -0.356 OA
HETATM   29  C1  UNL     1      20.884  -1.519  54.222  1.00  0.00     0.210 C 
ENDBRANCH  26  28
ENDBRANCH   1  22
TORSDOF 8
ENDMDL
MODEL 8
REMARK VINA RESULT:      -7.8      3.878      8.827
REMARK  8 active torsions:
REMARK  status: ('A' for Active; 'I' for Inactive)
REMARK    1  A    between atoms: O1_2  and  C2_3 
REMARK    2  A    between atoms: C6_7  and  C7_8 
REMARK    3  A    between atoms: C9_10  and  C10_11 
REMARK    4  A    between atoms: C10_11  and  C11_12 
REMARK    5  A    between atoms: C12_13  and  C13_14 
REMARK    6  A    between atoms: C13_14  and  C14_15 
REMARK    7  A    between atoms: C14_15  and  C15_16 
REMARK    8  A    between atoms: C15_16  and  O2_18 
ROOT
HETATM    1  C7  UNL     1      20.740  -0.399  53.087  1.00  0.00    -0.019 C 
HETATM    2  C8  UNL     1      21.463   0.201  52.159  1.00  0.00     0.018 C 
HETATM    3  C9  UNL     1      22.919   0.542  52.331  1.00  0.00    -0.028 C 
HETATM    4  C21 UNL     1      23.425  -0.390  53.370  1.00  0.00     0.308 C 
HETATM    5  N2  UNL     1      22.640  -0.294  54.595  1.00  0.00     0.091 N 
HETATM    6  C22 UNL     1      21.298  -0.794  54.404  1.00  0.00     0.309 C 
HETATM    7  H27 UNL     1      22.556   0.729  54.858  1.00  0.00     0.316 HD
ENDROOT
BRANCH   3   8
HETATM    8  C10 UNL     1      23.704   1.412  51.794  1.00  0.00     0.038 C 
BRANCH   8   9
HETATM    9  C11 UNL     1      24.622   2.294  51.117  1.00  0.00     0.037 A 
HETATM   10  C12 UNL     1      25.981   2.472  51.134  1.00  0.00    -0.050 A 
HETATM   11  C17 UNL     1      26.710   3.443  50.286  1.00  0.00     0.065 A 
HETATM   12  C18 UNL     1      25.792   4.198  49.445  1.00  0.00    -0.005 A 
HETATM   13  C19 UNL     1      24.507   4.096  49.373  1.00  0.00     0.087 A 
HETATM   14  N1  UNL     1      23.842   3.128  50.212  1.00  0.00    -0.361 N 
HETATM   15  C20 UNL     1      22.418   3.118  50.029  1.00  0.00     0.155 C 
BRANCH  10  16
HETATM   16  C13 UNL     1      26.762   1.601  52.019  1.00  0.00     0.039 C 
BRANCH  16  17
HETATM   17  C14 UNL     1      27.649   2.192  53.027  1.00  0.00     0.035 C 
BRANCH  17  18
HETATM   18  C15 UNL     1      28.782   1.450  53.592  1.00  0.00     0.114 C 
HETATM   19  C16 UNL     1      28.440   0.326  54.506  1.00  0.00     0.039 C 
BRANCH  18  20
HETATM   20  O2  UNL     1      29.435   2.409  54.468  1.00  0.00    -0.396 OA
HETATM   21  H17 UNL     1      28.955   2.409  55.341  1.00  0.00     0.210 HD
ENDBRANCH  18  20
ENDBRANCH  17  18
ENDBRANCH  16  17
ENDBRANCH  10  16
ENDBRANCH   8   9
ENDBRANCH   3   8
BRANCH   1  22
HETATM   22  C6  UNL     1      19.348  -0.669  52.791  1.00  0.00    -0.025 A 
HETATM   23  C5  UNL     1      18.699  -1.626  53.546  1.00  0.00     0.012 A 
HETATM   24  C4  UNL     1      17.388  -1.984  53.379  1.00  0.00     0.004 A 
HETATM   25  C3  UNL     1      16.625  -1.381  52.410  1.00  0.00     0.037 A 
HETATM   26  C2  UNL     1      17.244  -0.421  51.638  1.00  0.00     0.069 A 
HETATM   27  C23 UNL     1      18.568  -0.097  51.847  1.00  0.00     0.048 A 
BRANCH  26  28
HETATM   28  O1  UNL     1      16.507   0.227  50.629  1.00  0.00    -0.356 OA
HETATM   29  C1  UNL     1      16.260  -0.434  49.408  1.00  0.00     0.210 C 
ENDBRANCH  26  28
ENDBRANCH   1  22
TORSDOF 8
ENDMDL
MODEL 9
REMARK VINA RESULT:      -7.8      2.472      4.131
REMARK  8 active torsions:
REMARK  status: ('A' for Active; 'I' for Inactive)
REMARK    1  A    between atoms: O1_2  and  C2_3 
REMARK    2  A    between atoms: C6_7  and  C7_8 
REMARK    3  A    between atoms: C9_10  and  C10_11 
REMARK    4  A    between atoms: C10_11  and  C11_12 
REMARK    5  A    between atoms: C12_13  and  C13_14 
REMARK    6  A    between atoms: C13_14  and  C14_15 
REMARK    7  A    between atoms: C14_15  and  C15_16 
REMARK    8  A    between atoms: C15_16  and  O2_18 
ROOT
HETATM    1  C7  UNL     1      26.009   5.224  48.971  1.00  0.00    -0.019 C 
HETATM    2  C8  UNL     1      25.961   4.022  49.515  1.00  0.00     0.018 C 
HETATM    3  C9  UNL     1      24.693   3.388  50.018  1.00  0.00    -0.028 C 
HETATM    4  C21 UNL     1      23.593   4.061  49.283  1.00  0.00     0.308 C 
HETATM    5  N2  UNL     1      23.648   5.508  49.458  1.00  0.00     0.091 N 
HETATM    6  C22 UNL     1      24.806   6.076  48.807  1.00  0.00     0.309 C 
HETATM    7  H27 UNL     1      23.741   5.716  50.493  1.00  0.00     0.316 HD
ENDROOT
BRANCH   3   8
HETATM    8  C10 UNL     1      24.434   2.470  50.886  1.00  0.00     0.038 C 
BRANCH   8   9
HETATM    9  C11 UNL     1      24.023   1.475  51.845  1.00  0.00     0.037 A 
HETATM   10  C12 UNL     1      22.821   1.080  52.372  1.00  0.00    -0.050 A 
HETATM   11  C17 UNL     1      22.652  -0.032  53.336  1.00  0.00     0.065 A 
HETATM   12  C18 UNL     1      23.935  -0.640  53.664  1.00  0.00    -0.005 A 
HETATM   13  C19 UNL     1      25.105  -0.325  53.219  1.00  0.00     0.087 A 
HETATM   14  N1  UNL     1      25.217   0.759  52.274  1.00  0.00    -0.361 N 
HETATM   15  C20 UNL     1      26.570   0.998  51.860  1.00  0.00     0.155 C 
BRANCH  10  16
HETATM   16  C13 UNL     1      21.620   1.780  51.904  1.00  0.00     0.039 C 
BRANCH  16  17
HETATM   17  C14 UNL     1      20.799   1.192  50.839  1.00  0.00     0.035 C 
BRANCH  17  18
HETATM   18  C15 UNL     1      19.340   1.090  50.951  1.00  0.00     0.114 C 
HETATM   19  C16 UNL     1      18.819  -0.080  51.709  1.00  0.00     0.039 C 
BRANCH  18  20
HETATM   20  O2  UNL     1      18.894   0.836  49.591  1.00  0.00    -0.396 OA
HETATM   21  H17 UNL     1      19.675   0.945  48.982  1.00  0.00     0.210 HD
ENDBRANCH  18  20
ENDBRANCH  17  18
ENDBRANCH  16  17
ENDBRANCH  10  16
ENDBRANCH   8   9
ENDBRANCH   3   8
BRANCH   1  22
HETATM   22  C6  UNL     1      27.298   5.716  48.527  1.00  0.00    -0.025 A 
HETATM   23  C5  UNL     1      27.376   7.021  48.084  1.00  0.00     0.012 A 
HETATM   24  C4  UNL     1      28.524   7.618  47.637  1.00  0.00     0.004 A 
HETATM   25  C3  UNL     1      29.702   6.914  47.606  1.00  0.00     0.037 A 
HETATM   26  C2  UNL     1      29.658   5.607  48.042  1.00  0.00     0.069 A 
HETATM   27  C23 UNL     1      28.475   5.053  48.483  1.00  0.00     0.048 A 
BRANCH  26  28
HETATM   28  O1  UNL     1      30.838   4.840  48.030  1.00  0.00    -0.356 OA
HETATM   29  C1  UNL     1      32.021   5.367  48.589  1.00  0.00     0.210 C 
ENDBRANCH  26  28
ENDBRANCH   1  22
TORSDOF 8
ENDMDL
