MODEL 1
REMARK VINA RESULT:      -8.8      0.000      0.000
REMARK  9 active torsions:
REMARK  status: ('A' for Active; 'I' for Inactive)
REMARK    1  A    between atoms: C4_7  and  N4_8 
REMARK    2  A    between atoms: N4_8  and  C5_9 
REMARK    3  A    between atoms: C11_17  and  C12_18 
REMARK    4  A    between atoms: C12_18  and  C13_19 
REMARK    5  A    between atoms: C13_19  and  N5_20 
REMARK       I    between atoms: N5_20  and  C14_21 
REMARK    6  A    between atoms: C14_21  and  C15_23 
REMARK    7  A    between atoms: C16_24  and  C17_25 
REMARK    8  A    between atoms: C17_25  and  C18_26 
REMARK    9  A    between atoms: C18_26  and  N6_27 
ROOT
HETATM    1  N1  UNL     1      22.352   3.241  47.475  1.00  0.00    -0.190 NA
HETATM    2  C1  UNL     1      22.301   2.644  48.457  1.00  0.00     0.120 C 
HETATM    3  C2  UNL     1      22.245   1.911  49.688  1.00  0.00     0.152 A 
HETATM    4  N2  UNL     1      21.424   0.881  49.893  1.00  0.00    -0.230 NA
HETATM    5  C3  UNL     1      21.387   0.209  51.048  1.00  0.00     0.236 A 
HETATM    6  N3  UNL     1      22.184   0.544  52.072  1.00  0.00    -0.223 NA
HETATM    7  C4  UNL     1      23.063   1.570  51.995  1.00  0.00     0.142 A 
HETATM    8  C11 UNL     1      23.031   2.196  50.779  1.00  0.00     0.051 A 
ENDROOT
BRANCH   8   9
HETATM    9  C12 UNL     1      23.938   3.301  50.548  1.00  0.00     0.035 C 
BRANCH   9  10
HETATM   10  C13 UNL     1      25.125   3.753  50.377  1.00  0.00     0.093 C 
BRANCH  10  11
HETATM   11  N5  UNL     1      26.451   3.955  50.010  1.00  0.00    -0.326 N 
HETATM   12  C14 UNL     1      26.662   4.978  49.046  1.00  0.00     0.300 C 
HETATM   13  O1  UNL     1      25.617   5.539  48.683  1.00  0.00    -0.258 OA
HETATM   14  H8  UNL     1      27.212   3.382  50.429  1.00  0.00     0.169 HD
BRANCH  12  15
HETATM   15  C15 UNL     1      27.980   5.279  48.583  1.00  0.00    -0.005 C 
HETATM   16  C16 UNL     1      29.081   5.513  48.188  1.00  0.00    -0.095 C 
BRANCH  16  17
HETATM   17  C17 UNL     1      30.437   5.777  47.709  1.00  0.00     0.124 C 
BRANCH  17  18
HETATM   18  C18 UNL     1      31.457   5.732  48.823  1.00  0.00     0.284 C 
BRANCH  18  19
HETATM   19  N6  UNL     1      32.548   4.861  48.589  1.00  0.00     0.089 N 
HETATM   20  C19 UNL     1      33.758   5.604  48.392  1.00  0.00     0.272 C 
HETATM   21  C20 UNL     1      34.671   4.949  47.375  1.00  0.00     0.030 C 
HETATM   22  C21 UNL     1      34.688   3.448  47.480  1.00  0.00     0.003 C 
HETATM   23  C22 UNL     1      33.292   2.852  47.409  1.00  0.00     0.030 C 
HETATM   24  C23 UNL     1      32.251   3.962  47.509  1.00  0.00     0.272 C 
ENDBRANCH  18  19
ENDBRANCH  17  18
ENDBRANCH  16  17
ENDBRANCH  12  15
ENDBRANCH  10  11
ENDBRANCH   9  10
ENDBRANCH   8   9
BRANCH   7  25
HETATM   25  N4  UNL     1      23.864   1.852  53.120  1.00  0.00    -0.340 N 
HETATM   26  H2  UNL     1      23.593   2.427  53.957  1.00  0.00     0.167 HD
BRANCH  25  27
HETATM   27  C5  UNL     1      25.193   1.289  53.115  1.00  0.00     0.035 A 
HETATM   28  C6  UNL     1      25.370  -0.039  52.781  1.00  0.00     0.032 A 
HETATM   29  C7  UNL     1      26.618  -0.668  52.739  1.00  0.00     0.046 A 
HETATM   30  C8  UNL     1      27.732   0.116  53.057  1.00  0.00     0.138 A 
HETATM   31  F1  UNL     1      28.976  -0.429  53.037  1.00  0.00    -0.204 F 
HETATM   32  C9  UNL     1      27.528   1.438  53.386  1.00  0.00     0.074 A 
HETATM   33 CL1  UNL     1      28.881   2.475  53.791  1.00  0.00    -0.081 Cl
HETATM   34  C10 UNL     1      26.312   2.056  53.428  1.00  0.00     0.056 A 
ENDBRANCH  25  27
ENDBRANCH   7  25
TORSDOF 9
ENDMDL
MODEL 2
REMARK VINA RESULT:      -8.8      1.115      1.401
REMARK  9 active torsions:
REMARK  status: ('A' for Active; 'I' for Inactive)
REMARK    1  A    between atoms: C4_7  and  N4_8 
REMARK    2  A    between atoms: N4_8  and  C5_9 
REMARK    3  A    between atoms: C11_17  and  C12_18 
REMARK    4  A    between atoms: C12_18  and  C13_19 
REMARK    5  A    between atoms: C13_19  and  N5_20 
REMARK       I    between atoms: N5_20  and  C14_21 
REMARK    6  A    between atoms: C14_21  and  C15_23 
REMARK    7  A    between atoms: C16_24  and  C17_25 
REMARK    8  A    between atoms: C17_25  and  C18_26 
REMARK    9  A    between atoms: C18_26  and  N6_27 
ROOT
HETATM    1  N1  UNL     1      21.881   2.402  48.033  1.00  0.00    -0.190 NA
HETATM    2  C1  UNL     1      22.056   1.977  49.088  1.00  0.00     0.120 C 
HETATM    3  C2  UNL     1      22.282   1.461  50.405  1.00  0.00     0.152 A 
HETATM    4  N2  UNL     1      21.552   0.487  50.948  1.00  0.00    -0.230 NA
HETATM    5  C3  UNL     1      21.779   0.017  52.179  1.00  0.00     0.236 A 
HETATM    6  N3  UNL     1      22.767   0.510  52.939  1.00  0.00    -0.223 NA
HETATM    7  C4  UNL     1      23.582   1.500  52.507  1.00  0.00     0.142 A 
HETATM    8  C11 UNL     1      23.275   1.916  51.241  1.00  0.00     0.051 A 
ENDROOT
BRANCH   8   9
HETATM    9  C12 UNL     1      24.083   2.957  50.641  1.00  0.00     0.035 C 
BRANCH   9  10
HETATM   10  C13 UNL     1      25.165   3.343  50.073  1.00  0.00     0.093 C 
BRANCH  10  11
HETATM   11  N5  UNL     1      26.486   3.578  49.708  1.00  0.00    -0.326 N 
HETATM   12  C14 UNL     1      26.705   4.774  48.970  1.00  0.00     0.300 C 
HETATM   13  O1  UNL     1      25.670   5.427  48.769  1.00  0.00    -0.258 OA
HETATM   14  H8  UNL     1      27.238   2.910  49.972  1.00  0.00     0.169 HD
BRANCH  12  15
HETATM   15  C15 UNL     1      28.019   5.126  48.534  1.00  0.00    -0.005 C 
HETATM   16  C16 UNL     1      29.116   5.435  48.183  1.00  0.00    -0.095 C 
BRANCH  16  17
HETATM   17  C17 UNL     1      30.455   5.838  47.753  1.00  0.00     0.124 C 
BRANCH  17  18
HETATM   18  C18 UNL     1      31.493   5.614  48.829  1.00  0.00     0.284 C 
BRANCH  18  19
HETATM   19  N6  UNL     1      32.552   4.752  48.455  1.00  0.00     0.089 N 
HETATM   20  C19 UNL     1      33.799   5.460  48.433  1.00  0.00     0.272 C 
HETATM   21  C20 UNL     1      34.715   4.970  47.329  1.00  0.00     0.030 C 
HETATM   22  C21 UNL     1      34.663   3.478  47.143  1.00  0.00     0.003 C 
HETATM   23  C22 UNL     1      33.247   2.975  46.926  1.00  0.00     0.030 C 
HETATM   24  C23 UNL     1      32.251   4.093  47.215  1.00  0.00     0.272 C 
ENDBRANCH  18  19
ENDBRANCH  17  18
ENDBRANCH  16  17
ENDBRANCH  12  15
ENDBRANCH  10  11
ENDBRANCH   9  10
ENDBRANCH   8   9
BRANCH   7  25
HETATM   25  N4  UNL     1      24.596   1.958  53.372  1.00  0.00    -0.340 N 
HETATM   26  H2  UNL     1      24.520   2.736  54.076  1.00  0.00     0.167 HD
BRANCH  25  27
HETATM   27  C5  UNL     1      25.869   1.283  53.277  1.00  0.00     0.035 A 
HETATM   28  C6  UNL     1      27.034   1.993  53.489  1.00  0.00     0.032 A 
HETATM   29  C7  UNL     1      28.309   1.422  53.428  1.00  0.00     0.046 A 
HETATM   30  C8  UNL     1      28.379   0.057  53.136  1.00  0.00     0.138 A 
HETATM   31  F1  UNL     1      29.585  -0.563  53.061  1.00  0.00    -0.204 F 
HETATM   32  C9  UNL     1      27.201  -0.628  52.929  1.00  0.00     0.074 A 
HETATM   33 CL1  UNL     1      27.218  -2.341  52.563  1.00  0.00    -0.081 Cl
HETATM   34  C10 UNL     1      25.955  -0.076  52.988  1.00  0.00     0.056 A 
ENDBRANCH  25  27
ENDBRANCH   7  25
TORSDOF 9
ENDMDL
MODEL 3
REMARK VINA RESULT:      -8.4      3.469      8.456
REMARK  9 active torsions:
REMARK  status: ('A' for Active; 'I' for Inactive)
REMARK    1  A    between atoms: C4_7  and  N4_8 
REMARK    2  A    between atoms: N4_8  and  C5_9 
REMARK    3  A    between atoms: C11_17  and  C12_18 
REMARK    4  A    between atoms: C12_18  and  C13_19 
REMARK    5  A    between atoms: C13_19  and  N5_20 
REMARK       I    between atoms: N5_20  and  C14_21 
REMARK    6  A    between atoms: C14_21  and  C15_23 
REMARK    7  A    between atoms: C16_24  and  C17_25 
REMARK    8  A    between atoms: C17_25  and  C18_26 
REMARK    9  A    between atoms: C18_26  and  N6_27 
ROOT
HETATM    1  N1  UNL     1      25.752   8.307  45.928  1.00  0.00    -0.190 NA
HETATM    2  C1  UNL     1      26.771   8.450  46.444  1.00  0.00     0.120 C 
HETATM    3  C2  UNL     1      28.041   8.614  47.087  1.00  0.00     0.152 A 
HETATM    4  N2  UNL     1      28.770   9.727  47.001  1.00  0.00    -0.230 NA
HETATM    5  C3  UNL     1      29.952   9.862  47.610  1.00  0.00     0.236 A 
HETATM    6  N3  UNL     1      30.471   8.870  48.347  1.00  0.00    -0.223 NA
HETATM    7  C4  UNL     1      29.833   7.688  48.515  1.00  0.00     0.142 A 
HETATM    8  C11 UNL     1      28.634   7.643  47.858  1.00  0.00     0.051 A 
ENDROOT
BRANCH   8   9
HETATM    9  C12 UNL     1      27.831   6.443  47.969  1.00  0.00     0.035 C 
BRANCH   9  10
HETATM   10  C13 UNL     1      27.423   5.432  48.643  1.00  0.00     0.093 C 
BRANCH  10  11
HETATM   11  N5  UNL     1      27.296   4.219  49.311  1.00  0.00    -0.326 N 
HETATM   12  C14 UNL     1      26.187   4.129  50.196  1.00  0.00     0.300 C 
HETATM   13  O1  UNL     1      25.497   5.159  50.231  1.00  0.00    -0.258 OA
HETATM   14  H8  UNL     1      27.980   3.451  49.152  1.00  0.00     0.169 HD
BRANCH  12  15
HETATM   15  C15 UNL     1      25.951   2.935  50.944  1.00  0.00    -0.005 C 
HETATM   16  C16 UNL     1      25.739   1.933  51.556  1.00  0.00    -0.095 C 
BRANCH  16  17
HETATM   17  C17 UNL     1      25.455   0.709  52.303  1.00  0.00     0.124 C 
BRANCH  17  18
HETATM   18  C18 UNL     1      25.991   0.763  53.716  1.00  0.00     0.284 C 
BRANCH  18  19
HETATM   19  N6  UNL     1      27.197   0.050  53.917  1.00  0.00     0.089 N 
HETATM   20  C19 UNL     1      28.280   0.949  54.185  1.00  0.00     0.272 C 
HETATM   21  C20 UNL     1      29.587   0.463  53.593  1.00  0.00     0.030 C 
HETATM   22  C21 UNL     1      29.766  -1.027  53.708  1.00  0.00     0.003 C 
HETATM   23  C22 UNL     1      28.593  -1.793  53.120  1.00  0.00     0.030 C 
HETATM   24  C23 UNL     1      27.450  -0.831  52.811  1.00  0.00     0.272 C 
ENDBRANCH  18  19
ENDBRANCH  17  18
ENDBRANCH  16  17
ENDBRANCH  12  15
ENDBRANCH  10  11
ENDBRANCH   9  10
ENDBRANCH   8   9
BRANCH   7  25
HETATM   25  N4  UNL     1      30.451   6.700  49.308  1.00  0.00    -0.340 N 
HETATM   26  H2  UNL     1      30.231   6.470  50.310  1.00  0.00     0.167 HD
BRANCH  25  27
HETATM   27  C5  UNL     1      31.492   5.929  48.671  1.00  0.00     0.035 A 
HETATM   28  C6  UNL     1      31.167   5.051  47.657  1.00  0.00     0.032 A 
HETATM   29  C7  UNL     1      32.107   4.271  46.976  1.00  0.00     0.046 A 
HETATM   30  C8  UNL     1      33.444   4.409  47.365  1.00  0.00     0.138 A 
HETATM   31  F1  UNL     1      34.410   3.683  46.747  1.00  0.00    -0.204 F 
HETATM   32  C9  UNL     1      33.741   5.292  48.380  1.00  0.00     0.074 A 
HETATM   33 CL1  UNL     1      35.395   5.514  48.912  1.00  0.00    -0.081 Cl
HETATM   34  C10 UNL     1      32.827   6.055  49.047  1.00  0.00     0.056 A 
ENDBRANCH  25  27
ENDBRANCH   7  25
TORSDOF 9
ENDMDL
MODEL 4
REMARK VINA RESULT:      -8.3      5.149      9.706
REMARK  9 active torsions:
REMARK  status: ('A' for Active; 'I' for Inactive)
REMARK    1  A    between atoms: C4_7  and  N4_8 
REMARK    2  A    between atoms: N4_8  and  C5_9 
REMARK    3  A    between atoms: C11_17  and  C12_18 
REMARK    4  A    between atoms: C12_18  and  C13_19 
REMARK    5  A    between atoms: C13_19  and  N5_20 
REMARK       I    between atoms: N5_20  and  C14_21 
REMARK    6  A    between atoms: C14_21  and  C15_23 
REMARK    7  A    between atoms: C16_24  and  C17_25 
REMARK    8  A    between atoms: C17_25  and  C18_26 
REMARK    9  A    between atoms: C18_26  and  N6_27 
ROOT
HETATM    1  N1  UNL     1      28.488  -2.688  53.203  1.00  0.00    -0.190 NA
HETATM    2  C1  UNL     1      28.368  -1.551  53.333  1.00  0.00     0.120 C 
HETATM    3  C2  UNL     1      28.205  -0.137  53.500  1.00  0.00     0.152 A 
HETATM    4  N2  UNL     1      29.223   0.722  53.529  1.00  0.00    -0.230 NA
HETATM    5  C3  UNL     1      29.051   2.039  53.685  1.00  0.00     0.236 A 
HETATM    6  N3  UNL     1      27.827   2.567  53.823  1.00  0.00    -0.223 NA
HETATM    7  C4  UNL     1      26.708   1.805  53.811  1.00  0.00     0.142 A 
HETATM    8  C11 UNL     1      26.982   0.475  53.647  1.00  0.00     0.051 A 
ENDROOT
BRANCH   8   9
HETATM    9  C12 UNL     1      25.875  -0.456  53.592  1.00  0.00     0.035 C 
BRANCH   9  10
HETATM   10  C13 UNL     1      24.654  -0.723  53.308  1.00  0.00     0.093 C 
BRANCH  10  11
HETATM   11  N5  UNL     1      23.312  -0.672  52.947  1.00  0.00    -0.326 N 
HETATM   12  C14 UNL     1      22.393  -0.930  54.000  1.00  0.00     0.300 C 
HETATM   13  O1  UNL     1      22.940  -1.161  55.089  1.00  0.00    -0.258 OA
HETATM   14  H8  UNL     1      23.032  -0.456  51.968  1.00  0.00     0.169 HD
BRANCH  12  15
HETATM   15  C15 UNL     1      20.985  -0.912  53.756  1.00  0.00    -0.005 C 
HETATM   16  C16 UNL     1      19.812  -0.910  53.539  1.00  0.00    -0.095 C 
BRANCH  16  17
HETATM   17  C17 UNL     1      18.380  -0.908  53.248  1.00  0.00     0.124 C 
BRANCH  17  18
HETATM   18  C18 UNL     1      18.070  -0.306  51.896  1.00  0.00     0.284 C 
BRANCH  18  19
HETATM   19  N6  UNL     1      18.885   0.794  51.539  1.00  0.00     0.089 N 
HETATM   20  C19 UNL     1      18.129   2.012  51.552  1.00  0.00     0.272 C 
HETATM   21  C20 UNL     1      18.571   2.971  50.465  1.00  0.00     0.030 C 
HETATM   22  C21 UNL     1      20.063   2.983  50.264  1.00  0.00     0.003 C 
HETATM   23  C22 UNL     1      20.619   1.592  50.010  1.00  0.00     0.030 C 
HETATM   24  C23 UNL     1      19.543   0.547  50.286  1.00  0.00     0.272 C 
ENDBRANCH  18  19
ENDBRANCH  17  18
ENDBRANCH  16  17
ENDBRANCH  12  15
ENDBRANCH  10  11
ENDBRANCH   9  10
ENDBRANCH   8   9
BRANCH   7  25
HETATM   25  N4  UNL     1      25.461   2.445  53.961  1.00  0.00    -0.340 N 
HETATM   26  H2  UNL     1      24.927   2.578  54.857  1.00  0.00     0.167 HD
BRANCH  25  27
HETATM   27  C5  UNL     1      24.862   2.967  52.757  1.00  0.00     0.035 A 
HETATM   28  C6  UNL     1      25.319   2.538  51.527  1.00  0.00     0.032 A 
HETATM   29  C7  UNL     1      24.794   2.981  50.308  1.00  0.00     0.046 A 
HETATM   30  C8  UNL     1      23.749   3.908  50.369  1.00  0.00     0.138 A 
HETATM   31  F1  UNL     1      23.191   4.380  49.225  1.00  0.00    -0.204 F 
HETATM   32  C9  UNL     1      23.311   4.319  51.609  1.00  0.00     0.074 A 
HETATM   33 CL1  UNL     1      22.003   5.475  51.755  1.00  0.00    -0.081 Cl
HETATM   34  C10 UNL     1      23.821   3.890  52.801  1.00  0.00     0.056 A 
ENDBRANCH  25  27
ENDBRANCH   7  25
TORSDOF 9
ENDMDL
MODEL 5
REMARK VINA RESULT:      -8.2      2.445      3.191
REMARK  9 active torsions:
REMARK  status: ('A' for Active; 'I' for Inactive)
REMARK    1  A    between atoms: C4_7  and  N4_8 
REMARK    2  A    between atoms: N4_8  and  C5_9 
REMARK    3  A    between atoms: C11_17  and  C12_18 
REMARK    4  A    between atoms: C12_18  and  C13_19 
REMARK    5  A    between atoms: C13_19  and  N5_20 
REMARK       I    between atoms: N5_20  and  C14_21 
REMARK    6  A    between atoms: C14_21  and  C15_23 
REMARK    7  A    between atoms: C16_24  and  C17_25 
REMARK    8  A    between atoms: C17_25  and  C18_26 
REMARK    9  A    between atoms: C18_26  and  N6_27 
ROOT
HETATM    1  N1  UNL     1      22.276   2.435  47.960  1.00  0.00    -0.190 NA
HETATM    2  C1  UNL     1      22.534   2.249  49.065  1.00  0.00     0.120 C 
HETATM    3  C2  UNL     1      22.864   2.027  50.442  1.00  0.00     0.152 A 
HETATM    4  N2  UNL     1      22.067   1.385  51.295  1.00  0.00    -0.230 NA
HETATM    5  C3  UNL     1      22.393   1.187  52.577  1.00  0.00     0.236 A 
HETATM    6  N3  UNL     1      23.555   1.632  53.074  1.00  0.00    -0.223 NA
HETATM    7  C4  UNL     1      24.455   2.300  52.314  1.00  0.00     0.142 A 
HETATM    8  C11 UNL     1      24.036   2.454  51.021  1.00  0.00     0.051 A 
ENDROOT
BRANCH   8   9
HETATM    9  C12 UNL     1      24.912   3.132  50.088  1.00  0.00     0.035 C 
BRANCH   9  10
HETATM   10  C13 UNL     1      25.984   3.789  49.840  1.00  0.00     0.093 C 
BRANCH  10  11
HETATM   11  N5  UNL     1      27.205   4.241  49.353  1.00  0.00    -0.326 N 
HETATM   12  C14 UNL     1      27.165   5.502  48.699  1.00  0.00     0.300 C 
HETATM   13  O1  UNL     1      26.033   6.008  48.667  1.00  0.00    -0.258 OA
HETATM   14  H8  UNL     1      28.070   3.674  49.476  1.00  0.00     0.169 HD
BRANCH  12  15
HETATM   15  C15 UNL     1      28.355   6.074  48.151  1.00  0.00    -0.005 C 
HETATM   16  C16 UNL     1      29.359   6.536  47.701  1.00  0.00    -0.095 C 
BRANCH  16  17
HETATM   17  C17 UNL     1      30.600   7.096  47.171  1.00  0.00     0.124 C 
BRANCH  17  18
HETATM   18  C18 UNL     1      31.549   7.527  48.266  1.00  0.00     0.284 C 
BRANCH  18  19
HETATM   19  N6  UNL     1      32.146   8.794  48.065  1.00  0.00     0.089 N 
HETATM   20  C19 UNL     1      31.217   9.846  48.359  1.00  0.00     0.272 C 
HETATM   21  C20 UNL     1      31.396  11.039  47.442  1.00  0.00     0.030 C 
HETATM   22  C21 UNL     1      32.840  11.338  47.141  1.00  0.00     0.003 C 
HETATM   23  C22 UNL     1      33.574  10.126  46.593  1.00  0.00     0.030 C 
HETATM   24  C23 UNL     1      32.705   8.883  46.744  1.00  0.00     0.272 C 
ENDBRANCH  18  19
ENDBRANCH  17  18
ENDBRANCH  16  17
ENDBRANCH  12  15
ENDBRANCH  10  11
ENDBRANCH   9  10
ENDBRANCH   8   9
BRANCH   7  25
HETATM   25  N4  UNL     1      25.653   2.731  52.919  1.00  0.00    -0.340 N 
HETATM   26  H2  UNL     1      25.868   3.700  53.267  1.00  0.00     0.167 HD
BRANCH  25  27
HETATM   27  C5  UNL     1      26.686   1.734  53.073  1.00  0.00     0.035 A 
HETATM   28  C6  UNL     1      27.927   2.107  53.546  1.00  0.00     0.032 A 
HETATM   29  C7  UNL     1      28.984   1.211  53.737  1.00  0.00     0.046 A 
HETATM   30  C8  UNL     1      28.741  -0.130  53.423  1.00  0.00     0.138 A 
HETATM   31  F1  UNL     1      29.722  -1.055  53.585  1.00  0.00    -0.204 F 
HETATM   32  C9  UNL     1      27.493  -0.475  52.953  1.00  0.00     0.074 A 
HETATM   33 CL1  UNL     1      27.122  -2.138  52.546  1.00  0.00    -0.081 Cl
HETATM   34  C10 UNL     1      26.459   0.396  52.766  1.00  0.00     0.056 A 
ENDBRANCH  25  27
ENDBRANCH   7  25
TORSDOF 9
ENDMDL
MODEL 6
REMARK VINA RESULT:      -8.1      2.708      3.405
REMARK  9 active torsions:
REMARK  status: ('A' for Active; 'I' for Inactive)
REMARK    1  A    between atoms: C4_7  and  N4_8 
REMARK    2  A    between atoms: N4_8  and  C5_9 
REMARK    3  A    between atoms: C11_17  and  C12_18 
REMARK    4  A    between atoms: C12_18  and  C13_19 
REMARK    5  A    between atoms: C13_19  and  N5_20 
REMARK       I    between atoms: N5_20  and  C14_21 
REMARK    6  A    between atoms: C14_21  and  C15_23 
REMARK    7  A    between atoms: C16_24  and  C17_25 
REMARK    8  A    between atoms: C17_25  and  C18_26 
REMARK    9  A    between atoms: C18_26  and  N6_27 
ROOT
HETATM    1  N1  UNL     1      20.271   4.028  51.472  1.00  0.00    -0.190 NA
HETATM    2  C1  UNL     1      21.072   3.257  51.769  1.00  0.00     0.120 C 
HETATM    3  C2  UNL     1      22.080   2.306  52.134  1.00  0.00     0.152 A 
HETATM    4  N2  UNL     1      21.892   1.345  53.039  1.00  0.00    -0.230 NA
HETATM    5  C3  UNL     1      22.845   0.466  53.364  1.00  0.00     0.236 A 
HETATM    6  N3  UNL     1      24.055   0.509  52.790  1.00  0.00    -0.223 NA
HETATM    7  C4  UNL     1      24.377   1.435  51.857  1.00  0.00     0.142 A 
HETATM    8  C11 UNL     1      23.342   2.289  51.588  1.00  0.00     0.051 A 
ENDROOT
BRANCH   8   9
HETATM    9  C12 UNL     1      23.538   3.318  50.589  1.00  0.00     0.035 C 
BRANCH   9  10
HETATM   10  C13 UNL     1      24.314   4.030  49.857  1.00  0.00     0.093 C 
BRANCH  10  11
HETATM   11  N5  UNL     1      25.220   4.961  49.362  1.00  0.00    -0.326 N 
HETATM   12  C14 UNL     1      26.534   4.465  49.140  1.00  0.00     0.300 C 
HETATM   13  O1  UNL     1      26.665   3.265  49.423  1.00  0.00    -0.258 OA
HETATM   14  H8  UNL     1      24.928   5.942  49.177  1.00  0.00     0.169 HD
BRANCH  12  15
HETATM   15  C15 UNL     1      27.558   5.325  48.636  1.00  0.00    -0.005 C 
HETATM   16  C16 UNL     1      28.401   6.050  48.202  1.00  0.00    -0.095 C 
BRANCH  16  17
HETATM   17  C17 UNL     1      29.426   6.931  47.647  1.00  0.00     0.124 C 
BRANCH  17  18
HETATM   18  C18 UNL     1      29.912   7.950  48.653  1.00  0.00     0.284 C 
BRANCH  18  19
HETATM   19  N6  UNL     1      30.427   9.140  48.085  1.00  0.00     0.089 N 
HETATM   20  C19 UNL     1      31.537   8.854  47.225  1.00  0.00     0.272 C 
HETATM   21  C20 UNL     1      32.595   9.938  47.278  1.00  0.00     0.030 C 
HETATM   22  C21 UNL     1      32.014  11.323  47.364  1.00  0.00     0.003 C 
HETATM   23  C22 UNL     1      31.041  11.466  48.522  1.00  0.00     0.030 C 
HETATM   24  C23 UNL     1      30.736  10.094  49.114  1.00  0.00     0.272 C 
ENDBRANCH  18  19
ENDBRANCH  17  18
ENDBRANCH  16  17
ENDBRANCH  12  15
ENDBRANCH  10  11
ENDBRANCH   9  10
ENDBRANCH   8   9
BRANCH   7  25
HETATM   25  N4  UNL     1      25.672   1.406  51.303  1.00  0.00    -0.340 N 
HETATM   26  H2  UNL     1      25.956   1.742  50.348  1.00  0.00     0.167 HD
BRANCH  25  27
HETATM   27  C5  UNL     1      26.712   0.857  52.140  1.00  0.00     0.035 A 
HETATM   28  C6  UNL     1      26.880  -0.512  52.210  1.00  0.00     0.032 A 
HETATM   29  C7  UNL     1      27.865  -1.133  52.984  1.00  0.00     0.046 A 
HETATM   30  C8  UNL     1      28.713  -0.297  53.718  1.00  0.00     0.138 A 
HETATM   31  F1  UNL     1      29.693  -0.832  54.491  1.00  0.00    -0.204 F 
HETATM   32  C9  UNL     1      28.525   1.065  53.629  1.00  0.00     0.074 A 
HETATM   33 CL1  UNL     1      29.556   2.167  54.519  1.00  0.00    -0.081 Cl
HETATM   34  C10 UNL     1      27.566   1.675  52.875  1.00  0.00     0.056 A 
ENDBRANCH  25  27
ENDBRANCH   7  25
TORSDOF 9
ENDMDL
MODEL 7
REMARK VINA RESULT:      -8.1      1.802      2.034
REMARK  9 active torsions:
REMARK  status: ('A' for Active; 'I' for Inactive)
REMARK    1  A    between atoms: C4_7  and  N4_8 
REMARK    2  A    between atoms: N4_8  and  C5_9 
REMARK    3  A    between atoms: C11_17  and  C12_18 
REMARK    4  A    between atoms: C12_18  and  C13_19 
REMARK    5  A    between atoms: C13_19  and  N5_20 
REMARK       I    between atoms: N5_20  and  C14_21 
REMARK    6  A    between atoms: C14_21  and  C15_23 
REMARK    7  A    between atoms: C16_24  and  C17_25 
REMARK    8  A    between atoms: C17_25  and  C18_26 
REMARK    9  A    between atoms: C18_26  and  N6_27 
ROOT
HETATM    1  N1  UNL     1      20.742   5.777  50.103  1.00  0.00    -0.190 NA
HETATM    2  C1  UNL     1      21.328   4.979  50.690  1.00  0.00     0.120 C 
HETATM    3  C2  UNL     1      22.068   3.994  51.421  1.00  0.00     0.152 A 
HETATM    4  N2  UNL     1      21.500   2.965  52.051  1.00  0.00    -0.230 NA
HETATM    5  C3  UNL     1      22.209   2.055  52.727  1.00  0.00     0.236 A 
HETATM    6  N3  UNL     1      23.544   2.134  52.808  1.00  0.00    -0.223 NA
HETATM    7  C4  UNL     1      24.244   3.129  52.215  1.00  0.00     0.142 A 
HETATM    8  C11 UNL     1      23.437   4.010  51.547  1.00  0.00     0.051 A 
ENDROOT
BRANCH   8   9
HETATM    9  C12 UNL     1      24.055   5.115  50.844  1.00  0.00     0.035 C 
BRANCH   9  10
HETATM   10  C13 UNL     1      24.979   5.579  50.086  1.00  0.00     0.093 C 
BRANCH  10  11
HETATM   11  N5  UNL     1      26.180   6.013  49.538  1.00  0.00    -0.326 N 
HETATM   12  C14 UNL     1      27.067   4.980  49.129  1.00  0.00     0.300 C 
HETATM   13  O1  UNL     1      26.622   3.839  49.327  1.00  0.00    -0.258 OA
HETATM   14  H8  UNL     1      26.386   7.029  49.445  1.00  0.00     0.169 HD
BRANCH  12  15
HETATM   15  C15 UNL     1      28.336   5.298  48.554  1.00  0.00    -0.005 C 
HETATM   16  C16 UNL     1      29.387   5.563  48.055  1.00  0.00    -0.095 C 
BRANCH  16  17
HETATM   17  C17 UNL     1      30.670   5.871  47.427  1.00  0.00     0.124 C 
BRANCH  17  18
HETATM   18  C18 UNL     1      31.810   5.085  48.034  1.00  0.00     0.284 C 
BRANCH  18  19
HETATM   19  N6  UNL     1      32.681   4.486  47.093  1.00  0.00     0.089 N 
HETATM   20  C19 UNL     1      33.451   3.444  47.704  1.00  0.00     0.272 C 
HETATM   21  C20 UNL     1      34.854   3.362  47.139  1.00  0.00     0.030 C 
HETATM   22  C21 UNL     1      34.903   3.596  45.653  1.00  0.00     0.003 C 
HETATM   23  C22 UNL     1      34.240   4.904  45.256  1.00  0.00     0.030 C 
HETATM   24  C23 UNL     1      33.488   5.485  46.448  1.00  0.00     0.272 C 
ENDBRANCH  18  19
ENDBRANCH  17  18
ENDBRANCH  16  17
ENDBRANCH  12  15
ENDBRANCH  10  11
ENDBRANCH   9  10
ENDBRANCH   8   9
BRANCH   7  25
HETATM   25  N4  UNL     1      25.646   3.135  52.350  1.00  0.00    -0.340 N 
HETATM   26  H2  UNL     1      26.280   3.973  52.300  1.00  0.00     0.167 HD
BRANCH  25  27
HETATM   27  C5  UNL     1      26.271   1.854  52.580  1.00  0.00     0.035 A 
HETATM   28  C6  UNL     1      26.040   0.815  51.701  1.00  0.00     0.032 A 
HETATM   29  C7  UNL     1      26.608  -0.456  51.837  1.00  0.00     0.046 A 
HETATM   30  C8  UNL     1      27.454  -0.656  52.933  1.00  0.00     0.138 A 
HETATM   31  F1  UNL     1      28.040  -1.865  53.127  1.00  0.00    -0.204 F 
HETATM   32  C9  UNL     1      27.668   0.397  53.794  1.00  0.00     0.074 A 
HETATM   33 CL1  UNL     1      28.719   0.213  55.184  1.00  0.00    -0.081 Cl
HETATM   34  C10 UNL     1      27.115   1.638  53.665  1.00  0.00     0.056 A 
ENDBRANCH  25  27
ENDBRANCH   7  25
TORSDOF 9
ENDMDL
MODEL 8
REMARK VINA RESULT:      -8.1      3.264      9.933
REMARK  9 active torsions:
REMARK  status: ('A' for Active; 'I' for Inactive)
REMARK    1  A    between atoms: C4_7  and  N4_8 
REMARK    2  A    between atoms: N4_8  and  C5_9 
REMARK    3  A    between atoms: C11_17  and  C12_18 
REMARK    4  A    between atoms: C12_18  and  C13_19 
REMARK    5  A    between atoms: C13_19  and  N5_20 
REMARK       I    between atoms: N5_20  and  C14_21 
REMARK    6  A    between atoms: C14_21  and  C15_23 
REMARK    7  A    between atoms: C16_24  and  C17_25 
REMARK    8  A    between atoms: C17_25  and  C18_26 
REMARK    9  A    between atoms: C18_26  and  N6_27 
ROOT
HETATM    1  N1  UNL     1      27.067   8.731  46.091  1.00  0.00    -0.190 NA
HETATM    2  C1  UNL     1      28.060   8.718  46.672  1.00  0.00     0.120 C 
HETATM    3  C2  UNL     1      29.297   8.686  47.393  1.00  0.00     0.152 A 
HETATM    4  N2  UNL     1      30.122   9.729  47.484  1.00  0.00    -0.230 NA
HETATM    5  C3  UNL     1      31.273   9.680  48.164  1.00  0.00     0.236 A 
HETATM    6  N3  UNL     1      31.659   8.564  48.797  1.00  0.00    -0.223 NA
HETATM    7  C4  UNL     1      30.913   7.434  48.784  1.00  0.00     0.142 A 
HETATM    8  C11 UNL     1      29.757   7.578  48.066  1.00  0.00     0.051 A 
ENDROOT
BRANCH   8   9
HETATM    9  C12 UNL     1      28.850   6.453  47.986  1.00  0.00     0.035 C 
BRANCH   9  10
HETATM   10  C13 UNL     1      28.094   5.587  48.553  1.00  0.00     0.093 C 
BRANCH  10  11
HETATM   11  N5  UNL     1      27.507   4.672  49.420  1.00  0.00    -0.326 N 
HETATM   12  C14 UNL     1      26.085   4.702  49.457  1.00  0.00     0.300 C 
HETATM   13  O1  UNL     1      25.588   5.548  48.699  1.00  0.00    -0.258 OA
HETATM   14  H8  UNL     1      28.091   4.024  49.986  1.00  0.00     0.169 HD
BRANCH  12  15
HETATM   15  C15 UNL     1      25.364   3.813  50.312  1.00  0.00    -0.005 C 
HETATM   16  C16 UNL     1      24.770   3.078  51.041  1.00  0.00    -0.095 C 
BRANCH  16  17
HETATM   17  C17 UNL     1      24.065   2.172  51.946  1.00  0.00     0.124 C 
BRANCH  17  18
HETATM   18  C18 UNL     1      22.978   1.391  51.243  1.00  0.00     0.284 C 
BRANCH  18  19
HETATM   19  N6  UNL     1      22.259   0.501  52.076  1.00  0.00     0.089 N 
HETATM   20  C19 UNL     1      21.090   1.135  52.609  1.00  0.00     0.272 C 
HETATM   21  C20 UNL     1      20.784   0.677  54.021  1.00  0.00     0.030 C 
HETATM   22  C21 UNL     1      21.035  -0.792  54.229  1.00  0.00     0.003 C 
HETATM   23  C22 UNL     1      22.444  -1.195  53.828  1.00  0.00     0.030 C 
HETATM   24  C23 UNL     1      23.120  -0.046  53.089  1.00  0.00     0.272 C 
ENDBRANCH  18  19
ENDBRANCH  17  18
ENDBRANCH  16  17
ENDBRANCH  12  15
ENDBRANCH  10  11
ENDBRANCH   9  10
ENDBRANCH   8   9
BRANCH   7  25
HETATM   25  N4  UNL     1      31.394   6.306  49.477  1.00  0.00    -0.340 N 
HETATM   26  H2  UNL     1      31.104   5.986  50.436  1.00  0.00     0.167 HD
BRANCH  25  27
HETATM   27  C5  UNL     1      32.387   5.511  48.794  1.00  0.00     0.035 A 
HETATM   28  C6  UNL     1      33.717   5.875  48.865  1.00  0.00     0.032 A 
HETATM   29  C7  UNL     1      34.748   5.162  48.244  1.00  0.00     0.046 A 
HETATM   30  C8  UNL     1      34.383   4.022  47.521  1.00  0.00     0.138 A 
HETATM   31  F1  UNL     1      35.333   3.281  46.894  1.00  0.00    -0.204 F 
HETATM   32  C9  UNL     1      33.050   3.682  47.468  1.00  0.00     0.074 A 
HETATM   33 CL1  UNL     1      32.527   2.263  46.582  1.00  0.00    -0.081 Cl
HETATM   34  C10 UNL     1      32.040   4.374  48.071  1.00  0.00     0.056 A 
ENDBRANCH  25  27
ENDBRANCH   7  25
TORSDOF 9
ENDMDL
MODEL 9
REMARK VINA RESULT:      -8.0      5.202     10.837
REMARK  9 active torsions:
REMARK  status: ('A' for Active; 'I' for Inactive)
REMARK    1  A    between atoms: C4_7  and  N4_8 
REMARK    2  A    between atoms: N4_8  and  C5_9 
REMARK    3  A    between atoms: C11_17  and  C12_18 
REMARK    4  A    between atoms: C12_18  and  C13_19 
REMARK    5  A    between atoms: C13_19  and  N5_20 
REMARK       I    between atoms: N5_20  and  C14_21 
REMARK    6  A    between atoms: C14_21  and  C15_23 
REMARK    7  A    between atoms: C16_24  and  C17_25 
REMARK    8  A    between atoms: C17_25  and  C18_26 
REMARK    9  A    between atoms: C18_26  and  N6_27 
ROOT
HETATM    1  N1  UNL     1      28.226  -2.766  53.133  1.00  0.00    -0.190 NA
HETATM    2  C1  UNL     1      28.187  -1.627  53.290  1.00  0.00     0.120 C 
HETATM    3  C2  UNL     1      28.125  -0.210  53.491  1.00  0.00     0.152 A 
HETATM    4  N2  UNL     1      29.203   0.560  53.641  1.00  0.00    -0.230 NA
HETATM    5  C3  UNL     1      29.125   1.881  53.826  1.00  0.00     0.236 A 
HETATM    6  N3  UNL     1      27.941   2.507  53.870  1.00  0.00    -0.223 NA
HETATM    7  C4  UNL     1      26.769   1.843  53.731  1.00  0.00     0.142 A 
HETATM    8  C11 UNL     1      26.948   0.500  53.546  1.00  0.00     0.051 A 
ENDROOT
BRANCH   8   9
HETATM    9  C12 UNL     1      25.779  -0.333  53.360  1.00  0.00     0.035 C 
BRANCH   9  10
HETATM   10  C13 UNL     1      24.506  -0.487  53.365  1.00  0.00     0.093 C 
BRANCH  10  11
HETATM   11  N5  UNL     1      23.161  -0.606  53.033  1.00  0.00    -0.326 N 
HETATM   12  C14 UNL     1      22.312  -1.026  54.093  1.00  0.00     0.300 C 
HETATM   13  O1  UNL     1      22.912  -1.221  55.161  1.00  0.00    -0.258 OA
HETATM   14  H8  UNL     1      22.831  -0.394  52.070  1.00  0.00     0.169 HD
BRANCH  12  15
HETATM   15  C15 UNL     1      20.909  -1.189  53.877  1.00  0.00    -0.005 C 
HETATM   16  C16 UNL     1      19.738  -1.342  53.707  1.00  0.00    -0.095 C 
BRANCH  16  17
HETATM   17  C17 UNL     1      18.307  -1.554  53.496  1.00  0.00     0.124 C 
BRANCH  17  18
HETATM   18  C18 UNL     1      17.685  -0.465  52.651  1.00  0.00     0.284 C 
BRANCH  18  19
HETATM   19  N6  UNL     1      17.090  -0.918  51.450  1.00  0.00     0.089 N 
HETATM   20  C19 UNL     1      17.422  -0.050  50.359  1.00  0.00     0.272 C 
HETATM   21  C20 UNL     1      16.281   0.089  49.370  1.00  0.00     0.030 C 
HETATM   22  C21 UNL     1      15.544  -1.203  49.140  1.00  0.00     0.003 C 
HETATM   23  C22 UNL     1      15.056  -1.824  50.438  1.00  0.00     0.030 C 
HETATM   24  C23 UNL     1      15.674  -1.094  51.625  1.00  0.00     0.272 C 
ENDBRANCH  18  19
ENDBRANCH  17  18
ENDBRANCH  16  17
ENDBRANCH  12  15
ENDBRANCH  10  11
ENDBRANCH   9  10
ENDBRANCH   8   9
BRANCH   7  25
HETATM   25  N4  UNL     1      25.570   2.581  53.789  1.00  0.00    -0.340 N 
HETATM   26  H2  UNL     1      25.105   2.959  54.654  1.00  0.00     0.167 HD
BRANCH  25  27
HETATM   27  C5  UNL     1      24.919   2.842  52.528  1.00  0.00     0.035 A 
HETATM   28  C6  UNL     1      25.668   2.878  51.369  1.00  0.00     0.032 A 
HETATM   29  C7  UNL     1      25.123   3.114  50.102  1.00  0.00     0.046 A 
HETATM   30  C8  UNL     1      23.741   3.320  50.036  1.00  0.00     0.138 A 
HETATM   31  F1  UNL     1      23.145   3.554  48.838  1.00  0.00    -0.204 F 
HETATM   32  C9  UNL     1      23.018   3.278  51.207  1.00  0.00     0.074 A 
HETATM   33 CL1  UNL     1      21.283   3.525  51.193  1.00  0.00    -0.081 Cl
HETATM   34  C10 UNL     1      23.545   3.049  52.445  1.00  0.00     0.056 A 
ENDBRANCH  25  27
ENDBRANCH   7  25
TORSDOF 9
ENDMDL
