MODEL 1
REMARK VINA RESULT:      -7.1      0.000      0.000
REMARK  4 active torsions:
REMARK  status: ('A' for Active; 'I' for Inactive)
REMARK    1  A    between atoms: O1_2  and  C2_3 
REMARK    2  A    between atoms: C2_3  and  C3_4 
REMARK    3  A    between atoms: C3_4  and  O2_5 
REMARK    4  A    between atoms: O2_5  and  C4_6 
ROOT
HETATM    1  C4  UNL     1      23.474   2.356  50.966  1.00  0.00     0.120 C 
HETATM    2  C5  UNL     1      22.329   2.318  51.627  1.00  0.00     0.173 C 
HETATM    3  O3  UNL     1      22.134   1.586  52.822  1.00  0.00    -0.358 OA
HETATM    4  C6  UNL     1      20.881   1.203  53.247  1.00  0.00     0.200 C 
HETATM    5  C7  UNL     1      20.839   0.388  54.484  1.00  0.00     0.194 C 
HETATM    6  O4  UNL     1      21.427  -0.792  54.585  1.00  0.00    -0.385 OA
HETATM    7  C8  UNL     1      22.711  -1.095  54.574  1.00  0.00     0.195 C 
HETATM    8  C9  UNL     1      23.438  -0.645  53.380  1.00  0.00     0.008 C 
HETATM    9  C10 UNL     1      24.450   0.128  53.096  1.00  0.00    -0.038 C 
HETATM   10  C11 UNL     1      25.365   0.759  52.138  1.00  0.00     0.002 C 
HETATM   11  C12 UNL     1      24.477   1.562  51.619  1.00  0.00     0.102 C 
HETATM   12  N1  UNL     1      24.928   2.469  52.670  1.00  0.00    -0.261 NA
HETATM   13  C13 UNL     1      25.880   2.026  53.489  1.00  0.00     0.100 C 
HETATM   14  C14 UNL     1      25.312   0.758  54.111  1.00  0.00     0.063 C 
HETATM   15  C15 UNL     1      26.486  -0.248  54.264  1.00  0.00     0.041 C 
HETATM   16  C16 UNL     1      27.130  -0.420  52.900  1.00  0.00    -0.025 C 
HETATM   17  C17 UNL     1      26.777   0.507  51.985  1.00  0.00     0.010 C 
ENDROOT
BRANCH   1  18
HETATM   18  O2  UNL     1      23.958   2.944  49.835  1.00  0.00    -0.345 OA
BRANCH  18  19
HETATM   19  C3  UNL     1      23.956   4.329  49.563  1.00  0.00     0.202 C 
BRANCH  19  20
HETATM   20  C2  UNL     1      25.255   4.902  50.093  1.00  0.00     0.193 C 
BRANCH  20  21
HETATM   21  O1  UNL     1      26.293   4.047  49.705  1.00  0.00    -0.394 OA
HETATM   22  C1  UNL     1      27.205   4.688  48.878  1.00  0.00     0.201 C 
ENDBRANCH  20  21
ENDBRANCH  19  20
ENDBRANCH  18  19
ENDBRANCH   1  18
TORSDOF 4
ENDMDL
MODEL 2
REMARK VINA RESULT:      -7.0      2.246      4.722
REMARK  4 active torsions:
REMARK  status: ('A' for Active; 'I' for Inactive)
REMARK    1  A    between atoms: O1_2  and  C2_3 
REMARK    2  A    between atoms: C2_3  and  C3_4 
REMARK    3  A    between atoms: C3_4  and  O2_5 
REMARK    4  A    between atoms: O2_5  and  C4_6 
ROOT
HETATM    1  C4  UNL     1      23.275   2.807  51.479  1.00  0.00     0.120 C 
HETATM    2  C5  UNL     1      24.507   2.442  51.164  1.00  0.00     0.173 C 
HETATM    3  O3  UNL     1      25.123   1.259  51.638  1.00  0.00    -0.358 OA
HETATM    4  C6  UNL     1      26.492   1.112  51.670  1.00  0.00     0.200 C 
HETATM    5  C7  UNL     1      26.992  -0.158  52.249  1.00  0.00     0.194 C 
HETATM    6  O4  UNL     1      26.746  -0.523  53.496  1.00  0.00    -0.385 OA
HETATM    7  C8  UNL     1      25.603  -0.855  54.065  1.00  0.00     0.195 C 
HETATM    8  C9  UNL     1      24.553   0.169  53.978  1.00  0.00     0.008 C 
HETATM    9  C10 UNL     1      23.347   0.280  53.495  1.00  0.00    -0.038 C 
HETATM   10  C11 UNL     1      22.124   1.050  53.236  1.00  0.00     0.002 C 
HETATM   11  C12 UNL     1      22.659   1.851  52.355  1.00  0.00     0.102 C 
HETATM   12  N1  UNL     1      22.230   0.823  51.409  1.00  0.00    -0.261 NA
HETATM   13  C13 UNL     1      21.610  -0.244  51.909  1.00  0.00     0.100 C 
HETATM   14  C14 UNL     1      22.590  -0.840  52.911  1.00  0.00     0.063 C 
HETATM   15  C15 UNL     1      21.758  -1.378  54.107  1.00  0.00     0.041 C 
HETATM   16  C16 UNL     1      20.904  -0.236  54.629  1.00  0.00    -0.025 C 
HETATM   17  C17 UNL     1      20.817   0.829  53.805  1.00  0.00     0.010 C 
ENDROOT
BRANCH   1  18
HETATM   18  O2  UNL     1      22.436   3.843  51.196  1.00  0.00    -0.345 OA
BRANCH  18  19
HETATM   19  C3  UNL     1      21.444   4.356  52.059  1.00  0.00     0.202 C 
BRANCH  19  20
HETATM   20  C2  UNL     1      20.117   4.273  51.333  1.00  0.00     0.193 C 
BRANCH  20  21
HETATM   21  O1  UNL     1      19.230   3.547  52.138  1.00  0.00    -0.394 OA
HETATM   22  C1  UNL     1      18.632   2.509  51.436  1.00  0.00     0.201 C 
ENDBRANCH  20  21
ENDBRANCH  19  20
ENDBRANCH  18  19
ENDBRANCH   1  18
TORSDOF 4
ENDMDL
MODEL 3
REMARK VINA RESULT:      -6.8      2.166      5.631
REMARK  4 active torsions:
REMARK  status: ('A' for Active; 'I' for Inactive)
REMARK    1  A    between atoms: O1_2  and  C2_3 
REMARK    2  A    between atoms: C2_3  and  C3_4 
REMARK    3  A    between atoms: C3_4  and  O2_5 
REMARK    4  A    between atoms: O2_5  and  C4_6 
ROOT
HETATM    1  C4  UNL     1      23.263  -0.475  53.295  1.00  0.00     0.120 C 
HETATM    2  C5  UNL     1      24.281  -0.534  54.138  1.00  0.00     0.173 C 
HETATM    3  O3  UNL     1      25.397   0.336  54.088  1.00  0.00    -0.358 OA
HETATM    4  C6  UNL     1      26.606   0.003  54.657  1.00  0.00     0.200 C 
HETATM    5  C7  UNL     1      27.699   0.987  54.471  1.00  0.00     0.194 C 
HETATM    6  O4  UNL     1      28.155   1.335  53.279  1.00  0.00    -0.385 OA
HETATM    7  C8  UNL     1      27.554   2.002  52.312  1.00  0.00     0.195 C 
HETATM    8  C9  UNL     1      26.296   1.406  51.844  1.00  0.00     0.008 C 
HETATM    9  C10 UNL     1      25.039   1.745  51.753  1.00  0.00    -0.038 C 
HETATM   10  C11 UNL     1      23.646   1.457  51.392  1.00  0.00     0.002 C 
HETATM   11  C12 UNL     1      23.445   0.578  52.336  1.00  0.00     0.102 C 
HETATM   12  N1  UNL     1      23.021   1.747  53.102  1.00  0.00    -0.261 NA
HETATM   13  C13 UNL     1      23.074   2.928  52.490  1.00  0.00     0.100 C 
HETATM   14  C14 UNL     1      24.527   3.090  52.064  1.00  0.00     0.063 C 
HETATM   15  C15 UNL     1      24.527   3.805  50.685  1.00  0.00     0.041 C 
HETATM   16  C16 UNL     1      23.656   2.994  49.742  1.00  0.00    -0.025 C 
HETATM   17  C17 UNL     1      22.872   2.075  50.344  1.00  0.00     0.010 C 
ENDROOT
BRANCH   1  18
HETATM   18  O2  UNL     1      22.092  -1.141  53.092  1.00  0.00    -0.345 OA
BRANCH  18  19
HETATM   19  C3  UNL     1      21.056  -1.290  54.039  1.00  0.00     0.202 C 
BRANCH  19  20
HETATM   20  C2  UNL     1      20.074  -0.156  53.827  1.00  0.00     0.193 C 
BRANCH  20  21
HETATM   21  O1  UNL     1      19.727  -0.134  52.471  1.00  0.00    -0.394 OA
HETATM   22  C1  UNL     1      18.396  -0.476  52.276  1.00  0.00     0.201 C 
ENDBRANCH  20  21
ENDBRANCH  19  20
ENDBRANCH  18  19
ENDBRANCH   1  18
TORSDOF 4
ENDMDL
MODEL 4
REMARK VINA RESULT:      -6.7      2.248      4.139
REMARK  4 active torsions:
REMARK  status: ('A' for Active; 'I' for Inactive)
REMARK    1  A    between atoms: O1_2  and  C2_3 
REMARK    2  A    between atoms: C2_3  and  C3_4 
REMARK    3  A    between atoms: C3_4  and  O2_5 
REMARK    4  A    between atoms: O2_5  and  C4_6 
ROOT
HETATM    1  C4  UNL     1      23.030   2.910  51.743  1.00  0.00     0.120 C 
HETATM    2  C5  UNL     1      24.256   2.636  51.329  1.00  0.00     0.173 C 
HETATM    3  O3  UNL     1      24.945   1.440  51.642  1.00  0.00    -0.358 OA
HETATM    4  C6  UNL     1      26.319   1.355  51.588  1.00  0.00     0.200 C 
HETATM    5  C7  UNL     1      26.901   0.057  52.003  1.00  0.00     0.194 C 
HETATM    6  O4  UNL     1      26.741  -0.446  53.216  1.00  0.00    -0.385 OA
HETATM    7  C8  UNL     1      25.646  -0.888  53.804  1.00  0.00     0.195 C 
HETATM    8  C9  UNL     1      24.552   0.089  53.880  1.00  0.00     0.008 C 
HETATM    9  C10 UNL     1      23.317   0.194  53.475  1.00  0.00    -0.038 C 
HETATM   10  C11 UNL     1      22.051   0.929  53.361  1.00  0.00     0.002 C 
HETATM   11  C12 UNL     1      22.503   1.840  52.544  1.00  0.00     0.102 C 
HETATM   12  N1  UNL     1      22.065   0.898  51.518  1.00  0.00    -0.261 NA
HETATM   13  C13 UNL     1      21.517  -0.243  51.934  1.00  0.00     0.100 C 
HETATM   14  C14 UNL     1      22.575  -0.894  52.815  1.00  0.00     0.063 C 
HETATM   15  C15 UNL     1      21.834  -1.591  53.988  1.00  0.00     0.041 C 
HETATM   16  C16 UNL     1      20.964  -0.550  54.671  1.00  0.00    -0.025 C 
HETATM   17  C17 UNL     1      20.789   0.590  53.971  1.00  0.00     0.010 C 
ENDROOT
BRANCH   1  18
HETATM   18  O2  UNL     1      22.135   3.929  51.616  1.00  0.00    -0.345 OA
BRANCH  18  19
HETATM   19  C3  UNL     1      22.350   5.267  52.009  1.00  0.00     0.202 C 
BRANCH  19  20
HETATM   20  C2  UNL     1      21.884   6.159  50.877  1.00  0.00     0.193 C 
BRANCH  20  21
HETATM   21  O1  UNL     1      22.868   7.131  50.660  1.00  0.00    -0.394 OA
HETATM   22  C1  UNL     1      24.090   6.751  51.197  1.00  0.00     0.201 C 
ENDBRANCH  20  21
ENDBRANCH  19  20
ENDBRANCH  18  19
ENDBRANCH   1  18
TORSDOF 4
ENDMDL
MODEL 5
REMARK VINA RESULT:      -6.6      2.332      5.655
REMARK  4 active torsions:
REMARK  status: ('A' for Active; 'I' for Inactive)
REMARK    1  A    between atoms: O1_2  and  C2_3 
REMARK    2  A    between atoms: C2_3  and  C3_4 
REMARK    3  A    between atoms: C3_4  and  O2_5 
REMARK    4  A    between atoms: O2_5  and  C4_6 
ROOT
HETATM    1  C4  UNL     1      26.323   1.921  51.499  1.00  0.00     0.120 C 
HETATM    2  C5  UNL     1      26.618   3.052  50.882  1.00  0.00     0.173 C 
HETATM    3  O3  UNL     1      25.649   3.934  50.347  1.00  0.00    -0.358 OA
HETATM    4  C6  UNL     1      25.957   4.844  49.359  1.00  0.00     0.200 C 
HETATM    5  C7  UNL     1      24.825   5.657  48.856  1.00  0.00     0.194 C 
HETATM    6  O4  UNL     1      23.760   5.125  48.280  1.00  0.00    -0.385 OA
HETATM    7  C8  UNL     1      22.819   4.359  48.799  1.00  0.00     0.195 C 
HETATM    8  C9  UNL     1      23.309   3.123  49.423  1.00  0.00     0.008 C 
HETATM    9  C10 UNL     1      23.283   2.555  50.598  1.00  0.00    -0.038 C 
HETATM   10  C11 UNL     1      23.624   1.457  51.511  1.00  0.00     0.002 C 
HETATM   11  C12 UNL     1      24.902   1.714  51.551  1.00  0.00     0.102 C 
HETATM   12  N1  UNL     1      24.527   2.558  52.682  1.00  0.00    -0.261 NA
HETATM   13  C13 UNL     1      23.236   2.602  53.006  1.00  0.00     0.100 C 
HETATM   14  C14 UNL     1      22.526   3.081  51.747  1.00  0.00     0.063 C 
HETATM   15  C15 UNL     1      21.172   2.325  51.664  1.00  0.00     0.041 C 
HETATM   16  C16 UNL     1      21.466   0.837  51.723  1.00  0.00    -0.025 C 
HETATM   17  C17 UNL     1      22.715   0.521  52.126  1.00  0.00     0.010 C 
ENDROOT
BRANCH   1  18
HETATM   18  O2  UNL     1      27.000   0.901  52.098  1.00  0.00    -0.345 OA
BRANCH  18  19
HETATM   19  C3  UNL     1      28.005   1.045  53.078  1.00  0.00     0.202 C 
BRANCH  19  20
HETATM   20  C2  UNL     1      27.493   0.415  54.357  1.00  0.00     0.193 C 
BRANCH  20  21
HETATM   21  O1  UNL     1      28.457  -0.496  54.805  1.00  0.00    -0.394 OA
HETATM   22  C1  UNL     1      29.527  -0.585  53.925  1.00  0.00     0.201 C 
ENDBRANCH  20  21
ENDBRANCH  19  20
ENDBRANCH  18  19
ENDBRANCH   1  18
TORSDOF 4
ENDMDL
MODEL 6
REMARK VINA RESULT:      -6.4      2.222      4.217
REMARK  4 active torsions:
REMARK  status: ('A' for Active; 'I' for Inactive)
REMARK    1  A    between atoms: O1_2  and  C2_3 
REMARK    2  A    between atoms: C2_3  and  C3_4 
REMARK    3  A    between atoms: C3_4  and  O2_5 
REMARK    4  A    between atoms: O2_5  and  C4_6 
ROOT
HETATM    1  C4  UNL     1      24.891   3.544  50.973  1.00  0.00     0.120 C 
HETATM    2  C5  UNL     1      25.867   2.655  51.053  1.00  0.00     0.173 C 
HETATM    3  O3  UNL     1      25.699   1.345  51.561  1.00  0.00    -0.358 OA
HETATM    4  C6  UNL     1      26.760   0.607  52.038  1.00  0.00     0.200 C 
HETATM    5  C7  UNL     1      26.422  -0.724  52.595  1.00  0.00     0.194 C 
HETATM    6  O4  UNL     1      25.616  -0.884  53.631  1.00  0.00    -0.385 OA
HETATM    7  C8  UNL     1      24.322  -0.648  53.734  1.00  0.00     0.195 C 
HETATM    8  C9  UNL     1      23.923   0.731  53.420  1.00  0.00     0.008 C 
HETATM    9  C10 UNL     1      23.143   1.345  52.574  1.00  0.00    -0.038 C 
HETATM   10  C11 UNL     1      22.553   2.565  52.010  1.00  0.00     0.002 C 
HETATM   11  C12 UNL     1      23.655   3.003  51.466  1.00  0.00     0.102 C 
HETATM   12  N1  UNL     1      23.196   2.231  50.314  1.00  0.00    -0.261 NA
HETATM   13  C13 UNL     1      22.044   1.575  50.442  1.00  0.00     0.100 C 
HETATM   14  C14 UNL     1      22.242   0.652  51.637  1.00  0.00     0.063 C 
HETATM   15  C15 UNL     1      20.894   0.595  52.405  1.00  0.00     0.041 C 
HETATM   16  C16 UNL     1      20.490   2.020  52.740  1.00  0.00    -0.025 C 
HETATM   17  C17 UNL     1      21.171   2.974  52.071  1.00  0.00     0.010 C 
ENDROOT
BRANCH   1  18
HETATM   18  O2  UNL     1      24.741   4.831  50.550  1.00  0.00    -0.345 OA
BRANCH  18  19
HETATM   19  C3  UNL     1      23.968   5.823  51.190  1.00  0.00     0.202 C 
BRANCH  19  20
HETATM   20  C2  UNL     1      24.573   7.169  50.848  1.00  0.00     0.193 C 
BRANCH  20  21
HETATM   21  O1  UNL     1      23.526   8.083  50.682  1.00  0.00    -0.394 OA
HETATM   22  C1  UNL     1      22.298   7.445  50.586  1.00  0.00     0.201 C 
ENDBRANCH  20  21
ENDBRANCH  19  20
ENDBRANCH  18  19
ENDBRANCH   1  18
TORSDOF 4
ENDMDL
MODEL 7
REMARK VINA RESULT:      -6.3      1.996      2.696
REMARK  4 active torsions:
REMARK  status: ('A' for Active; 'I' for Inactive)
REMARK    1  A    between atoms: O1_2  and  C2_3 
REMARK    2  A    between atoms: C2_3  and  C3_4 
REMARK    3  A    between atoms: C3_4  and  O2_5 
REMARK    4  A    between atoms: O2_5  and  C4_6 
ROOT
HETATM    1  C4  UNL     1      22.301   1.387  50.733  1.00  0.00     0.120 C 
HETATM    2  C5  UNL     1      21.529   0.786  51.623  1.00  0.00     0.173 C 
HETATM    3  O3  UNL     1      21.972   0.386  52.906  1.00  0.00    -0.358 OA
HETATM    4  C6  UNL     1      21.325  -0.594  53.628  1.00  0.00     0.200 C 
HETATM    5  C7  UNL     1      21.940  -0.948  54.929  1.00  0.00     0.194 C 
HETATM    6  O4  UNL     1      23.166  -1.433  55.034  1.00  0.00    -0.385 OA
HETATM    7  C8  UNL     1      24.324  -0.850  54.785  1.00  0.00     0.195 C 
HETATM    8  C9  UNL     1      24.465  -0.325  53.420  1.00  0.00     0.008 C 
HETATM    9  C10 UNL     1      24.686   0.823  52.843  1.00  0.00    -0.038 C 
HETATM   10  C11 UNL     1      24.869   1.655  51.647  1.00  0.00     0.002 C 
HETATM   11  C12 UNL     1      23.631   1.575  51.242  1.00  0.00     0.102 C 
HETATM   12  N1  UNL     1      23.461   2.770  52.065  1.00  0.00    -0.261 NA
HETATM   13  C13 UNL     1      24.536   3.224  52.707  1.00  0.00     0.100 C 
HETATM   14  C14 UNL     1      25.002   2.062  53.574  1.00  0.00     0.063 C 
HETATM   15  C15 UNL     1      26.555   2.090  53.585  1.00  0.00     0.041 C 
HETATM   16  C16 UNL     1      27.030   2.062  52.143  1.00  0.00    -0.025 C 
HETATM   17  C17 UNL     1      26.076   2.324  51.226  1.00  0.00     0.010 C 
ENDROOT
BRANCH   1  18
HETATM   18  O2  UNL     1      22.175   1.876  49.467  1.00  0.00    -0.345 OA
BRANCH  18  19
HETATM   19  C3  UNL     1      21.955   3.227  49.125  1.00  0.00     0.202 C 
BRANCH  19  20
HETATM   20  C2  UNL     1      20.498   3.539  49.398  1.00  0.00     0.193 C 
BRANCH  20  21
HETATM   21  O1  UNL     1      20.416   4.152  50.653  1.00  0.00    -0.394 OA
HETATM   22  C1  UNL     1      21.164   5.321  50.703  1.00  0.00     0.201 C 
ENDBRANCH  20  21
ENDBRANCH  19  20
ENDBRANCH  18  19
ENDBRANCH   1  18
TORSDOF 4
ENDMDL
MODEL 8
REMARK VINA RESULT:      -6.2      2.019      4.014
REMARK  4 active torsions:
REMARK  status: ('A' for Active; 'I' for Inactive)
REMARK    1  A    between atoms: O1_2  and  C2_3 
REMARK    2  A    between atoms: C2_3  and  C3_4 
REMARK    3  A    between atoms: C3_4  and  O2_5 
REMARK    4  A    between atoms: O2_5  and  C4_6 
ROOT
HETATM    1  C4  UNL     1      25.291   3.498  50.950  1.00  0.00     0.120 C 
HETATM    2  C5  UNL     1      26.167   2.518  51.097  1.00  0.00     0.173 C 
HETATM    3  O3  UNL     1      25.845   1.247  51.628  1.00  0.00    -0.358 OA
HETATM    4  C6  UNL     1      26.803   0.419  52.171  1.00  0.00     0.200 C 
HETATM    5  C7  UNL     1      26.307  -0.854  52.744  1.00  0.00     0.194 C 
HETATM    6  O4  UNL     1      25.445  -0.902  53.746  1.00  0.00    -0.385 OA
HETATM    7  C8  UNL     1      24.179  -0.533  53.783  1.00  0.00     0.195 C 
HETATM    8  C9  UNL     1      23.936   0.869  53.418  1.00  0.00     0.008 C 
HETATM    9  C10 UNL     1      23.260   1.533  52.522  1.00  0.00    -0.038 C 
HETATM   10  C11 UNL     1      22.823   2.790  51.902  1.00  0.00     0.002 C 
HETATM   11  C12 UNL     1      23.986   3.099  51.399  1.00  0.00     0.102 C 
HETATM   12  N1  UNL     1      23.501   2.344  50.247  1.00  0.00    -0.261 NA
HETATM   13  C13 UNL     1      22.283   1.812  50.337  1.00  0.00     0.100 C 
HETATM   14  C14 UNL     1      22.335   0.908  51.562  1.00  0.00     0.063 C 
HETATM   15  C15 UNL     1      20.956   1.010  52.269  1.00  0.00     0.041 C 
HETATM   16  C16 UNL     1      20.686   2.478  52.550  1.00  0.00    -0.025 C 
HETATM   17  C17 UNL     1      21.488   3.338  51.890  1.00  0.00     0.010 C 
ENDROOT
BRANCH   1  18
HETATM   18  O2  UNL     1      25.292   4.781  50.489  1.00  0.00    -0.345 OA
BRANCH  18  19
HETATM   19  C3  UNL     1      25.945   5.235  49.323  1.00  0.00     0.202 C 
BRANCH  19  20
HETATM   20  C2  UNL     1      26.087   6.739  49.434  1.00  0.00     0.193 C 
BRANCH  20  21
HETATM   21  O1  UNL     1      27.316   7.099  48.868  1.00  0.00    -0.394 OA
HETATM   22  C1  UNL     1      27.575   8.454  49.022  1.00  0.00     0.201 C 
ENDBRANCH  20  21
ENDBRANCH  19  20
ENDBRANCH  18  19
ENDBRANCH   1  18
TORSDOF 4
ENDMDL
MODEL 9
REMARK VINA RESULT:      -6.0      2.680      4.499
REMARK  4 active torsions:
REMARK  status: ('A' for Active; 'I' for Inactive)
REMARK    1  A    between atoms: O1_2  and  C2_3 
REMARK    2  A    between atoms: C2_3  and  C3_4 
REMARK    3  A    between atoms: C3_4  and  O2_5 
REMARK    4  A    between atoms: O2_5  and  C4_6 
ROOT
HETATM    1  C4  UNL     1      20.495   0.362  51.580  1.00  0.00     0.120 C 
HETATM    2  C5  UNL     1      20.493  -0.297  52.727  1.00  0.00     0.173 C 
HETATM    3  O3  UNL     1      21.580  -0.302  53.634  1.00  0.00    -0.358 OA
HETATM    4  C6  UNL     1      21.744  -1.300  54.570  1.00  0.00     0.200 C 
HETATM    5  C7  UNL     1      22.962  -1.204  55.408  1.00  0.00     0.194 C 
HETATM    6  O4  UNL     1      24.184  -1.232  54.904  1.00  0.00    -0.385 OA
HETATM    7  C8  UNL     1      24.795  -0.355  54.132  1.00  0.00     0.195 C 
HETATM    8  C9  UNL     1      24.100  -0.055  52.873  1.00  0.00     0.008 C 
HETATM    9  C10 UNL     1      23.592   0.984  52.270  1.00  0.00    -0.038 C 
HETATM   10  C11 UNL     1      22.892   1.611  51.142  1.00  0.00     0.002 C 
HETATM   11  C12 UNL     1      21.735   1.060  51.385  1.00  0.00     0.102 C 
HETATM   12  N1  UNL     1      21.525   2.256  52.198  1.00  0.00    -0.261 NA
HETATM   13  C13 UNL     1      22.519   3.141  52.245  1.00  0.00     0.100 C 
HETATM   14  C14 UNL     1      23.719   2.365  52.768  1.00  0.00     0.063 C 
HETATM   15  C15 UNL     1      24.975   2.902  52.028  1.00  0.00     0.041 C 
HETATM   16  C16 UNL     1      24.720   2.784  50.536  1.00  0.00    -0.025 C 
HETATM   17  C17 UNL     1      23.434   2.556  50.197  1.00  0.00     0.010 C 
ENDROOT
BRANCH   1  18
HETATM   18  O2  UNL     1      19.640   0.556  50.537  1.00  0.00    -0.345 OA
BRANCH  18  19
HETATM   19  C3  UNL     1      18.435   1.288  50.586  1.00  0.00     0.202 C 
BRANCH  19  20
HETATM   20  C2  UNL     1      18.516   2.377  49.536  1.00  0.00     0.193 C 
BRANCH  20  21
HETATM   21  O1  UNL     1      18.346   3.609  50.178  1.00  0.00    -0.394 OA
HETATM   22  C1  UNL     1      17.830   3.454  51.458  1.00  0.00     0.201 C 
ENDBRANCH  20  21
ENDBRANCH  19  20
ENDBRANCH  18  19
ENDBRANCH   1  18
TORSDOF 4
ENDMDL
