MODEL 1
REMARK VINA RESULT:      -6.7      0.000      0.000
REMARK  4 active torsions:
REMARK  status: ('A' for Active; 'I' for Inactive)
REMARK    1  A    between atoms: C7_9  and  N3_10 
REMARK       I    between atoms: N3_10  and  C8_11 
REMARK    2  A    between atoms: C8_11  and  C9_13 
REMARK    3  A    between atoms: C9_13  and  C10_14 
REMARK    4  A    between atoms: C10_14  and  C11_15 
ROOT
HETATM    1  C1  UNL     1      20.143   4.196  50.441  1.00  0.00     0.310 C 
HETATM    2  N1  UNL     1      21.135   4.970  51.153  1.00  0.00     0.089 N 
HETATM    3  C2  UNL     1      21.937   5.786  50.325  1.00  0.00     0.291 C 
HETATM    4  C3  UNL     1      23.405   5.763  50.549  1.00  0.00     0.154 C 
HETATM    5  N2  UNL     1      23.858   4.417  50.830  1.00  0.00    -0.364 N 
HETATM    6  C4  UNL     1      25.067   4.273  50.112  1.00  0.00     0.088 C 
HETATM    7  C5  UNL     1      26.196   3.559  50.201  1.00  0.00     0.019 C 
HETATM    8  C6  UNL     1      26.613   2.553  51.203  1.00  0.00     0.032 C 
HETATM    9  C7  UNL     1      26.127   2.219  52.412  1.00  0.00     0.052 C 
HETATM   10  C12 UNL     1      24.989   2.733  53.204  1.00  0.00     0.142 C 
HETATM   11  N4  UNL     1      23.854   3.239  52.866  1.00  0.00    -0.272 NA
HETATM   12  C13 UNL     1      23.086   3.574  51.684  1.00  0.00     0.235 C 
HETATM   13  C14 UNL     1      21.822   4.219  52.158  1.00  0.00     0.320 C 
ENDROOT
BRANCH   9  14
HETATM   14  N3  UNL     1      26.803   1.178  53.104  1.00  0.00    -0.326 N 
HETATM   15  C8  UNL     1      27.900   1.385  53.955  1.00  0.00     0.222 C 
HETATM   16  O1  UNL     1      28.378   2.524  54.176  1.00  0.00    -0.273 OA
HETATM   17  H11 UNL     1      26.444   0.188  52.957  1.00  0.00     0.169 HD
BRANCH  15  18
HETATM   18  C9  UNL     1      28.578   0.270  54.660  1.00  0.00     0.110 C 
BRANCH  18  19
HETATM   19  C10 UNL     1      29.316  -0.569  53.619  1.00  0.00     0.078 C 
BRANCH  19  20
HETATM   20  C11 UNL     1      28.489  -1.731  53.208  1.00  0.00     0.231 C 
HETATM   21  O2  UNL     1      29.167  -2.739  53.423  1.00  0.00    -0.307 OA
ENDBRANCH  19  20
ENDBRANCH  18  19
ENDBRANCH  15  18
ENDBRANCH   9  14
TORSDOF 4
ENDMDL
MODEL 2
REMARK VINA RESULT:      -6.5      2.411      3.629
REMARK  4 active torsions:
REMARK  status: ('A' for Active; 'I' for Inactive)
REMARK    1  A    between atoms: C7_9  and  N3_10 
REMARK       I    between atoms: N3_10  and  C8_11 
REMARK    2  A    between atoms: C8_11  and  C9_13 
REMARK    3  A    between atoms: C9_13  and  C10_14 
REMARK    4  A    between atoms: C10_14  and  C11_15 
ROOT
HETATM    1  C1  UNL     1      19.889   4.080  50.990  1.00  0.00     0.310 C 
HETATM    2  N1  UNL     1      20.659   3.077  50.287  1.00  0.00     0.089 N 
HETATM    3  C2  UNL     1      20.042   1.809  50.227  1.00  0.00     0.291 C 
HETATM    4  C3  UNL     1      20.873   0.622  50.555  1.00  0.00     0.154 C 
HETATM    5  N2  UNL     1      21.751   0.906  51.672  1.00  0.00    -0.364 N 
HETATM    6  C4  UNL     1      21.720  -0.258  52.474  1.00  0.00     0.088 C 
HETATM    7  C5  UNL     1      22.520  -0.884  53.347  1.00  0.00     0.019 C 
HETATM    8  C6  UNL     1      23.873  -0.527  53.826  1.00  0.00     0.032 C 
HETATM    9  C7  UNL     1      24.788   0.359  53.393  1.00  0.00     0.052 C 
HETATM   10  C12 UNL     1      24.788   1.317  52.266  1.00  0.00     0.142 C 
HETATM   11  N4  UNL     1      23.846   1.975  51.684  1.00  0.00    -0.272 NA
HETATM   12  C13 UNL     1      22.412   2.168  51.750  1.00  0.00     0.235 C 
HETATM   13  C14 UNL     1      22.048   3.091  50.629  1.00  0.00     0.320 C 
ENDROOT
BRANCH   9  14
HETATM   14  N3  UNL     1      26.005   0.426  54.123  1.00  0.00    -0.326 N 
HETATM   15  C8  UNL     1      27.154  -0.311  53.800  1.00  0.00     0.222 C 
HETATM   16  O1  UNL     1      27.199  -1.101  52.826  1.00  0.00    -0.273 OA
HETATM   17  H11 UNL     1      26.030   1.080  54.961  1.00  0.00     0.169 HD
BRANCH  15  18
HETATM   18  C9  UNL     1      28.407  -0.212  54.588  1.00  0.00     0.110 C 
BRANCH  18  19
HETATM   19  C10 UNL     1      29.441   0.528  53.742  1.00  0.00     0.078 C 
BRANCH  19  20
HETATM   20  C11 UNL     1      29.025   1.936  53.528  1.00  0.00     0.231 C 
HETATM   21  O2  UNL     1      29.024   2.475  54.638  1.00  0.00    -0.307 OA
ENDBRANCH  19  20
ENDBRANCH  18  19
ENDBRANCH  15  18
ENDBRANCH   9  14
TORSDOF 4
ENDMDL
MODEL 3
REMARK VINA RESULT:      -6.3      3.258      7.325
REMARK  4 active torsions:
REMARK  status: ('A' for Active; 'I' for Inactive)
REMARK    1  A    between atoms: C7_9  and  N3_10 
REMARK       I    between atoms: N3_10  and  C8_11 
REMARK    2  A    between atoms: C8_11  and  C9_13 
REMARK    3  A    between atoms: C9_13  and  C10_14 
REMARK    4  A    between atoms: C10_14  and  C11_15 
ROOT
HETATM    1  C1  UNL     1      29.846  -0.419  53.337  1.00  0.00     0.310 C 
HETATM    2  N1  UNL     1      29.017   0.537  54.038  1.00  0.00     0.089 N 
HETATM    3  C2  UNL     1      28.193  -0.031  55.034  1.00  0.00     0.291 C 
HETATM    4  C3  UNL     1      26.766   0.382  55.065  1.00  0.00     0.154 C 
HETATM    5  N2  UNL     1      26.238   0.498  53.721  1.00  0.00    -0.364 N 
HETATM    6  C4  UNL     1      24.942  -0.065  53.780  1.00  0.00     0.088 C 
HETATM    7  C5  UNL     1      23.776   0.057  53.134  1.00  0.00     0.019 C 
HETATM    8  C6  UNL     1      23.402   0.928  51.998  1.00  0.00     0.032 C 
HETATM    9  C7  UNL     1      24.000   1.991  51.430  1.00  0.00     0.052 C 
HETATM   10  C12 UNL     1      25.266   2.695  51.728  1.00  0.00     0.142 C 
HETATM   11  N4  UNL     1      26.391   2.295  52.212  1.00  0.00    -0.272 NA
HETATM   12  C13 UNL     1      27.034   1.092  52.696  1.00  0.00     0.235 C 
HETATM   13  C14 UNL     1      28.397   1.490  53.169  1.00  0.00     0.320 C 
ENDROOT
BRANCH   9  14
HETATM   14  N3  UNL     1      23.328   2.588  50.330  1.00  0.00    -0.326 N 
HETATM   15  C8  UNL     1      22.383   3.617  50.455  1.00  0.00     0.222 C 
HETATM   16  O1  UNL     1      22.050   4.100  51.564  1.00  0.00    -0.273 OA
HETATM   17  H11 UNL     1      23.568   2.221  49.361  1.00  0.00     0.169 HD
BRANCH  15  18
HETATM   18  C9  UNL     1      21.703   4.215  49.279  1.00  0.00     0.110 C 
BRANCH  18  19
HETATM   19  C10 UNL     1      22.610   4.033  48.064  1.00  0.00     0.078 C 
BRANCH  19  20
HETATM   20  C11 UNL     1      22.027   3.044  47.125  1.00  0.00     0.231 C 
HETATM   21  O2  UNL     1      22.558   1.960  47.381  1.00  0.00    -0.307 OA
ENDBRANCH  19  20
ENDBRANCH  18  19
ENDBRANCH  15  18
ENDBRANCH   9  14
TORSDOF 4
ENDMDL
MODEL 4
REMARK VINA RESULT:      -6.2      1.833      2.066
REMARK  4 active torsions:
REMARK  status: ('A' for Active; 'I' for Inactive)
REMARK    1  A    between atoms: C7_9  and  N3_10 
REMARK       I    between atoms: N3_10  and  C8_11 
REMARK    2  A    between atoms: C8_11  and  C9_13 
REMARK    3  A    between atoms: C9_13  and  C10_14 
REMARK    4  A    between atoms: C10_14  and  C11_15 
ROOT
HETATM    1  C1  UNL     1      20.523   6.495  49.824  1.00  0.00     0.310 C 
HETATM    2  N1  UNL     1      21.584   6.771  50.768  1.00  0.00     0.089 N 
HETATM    3  C2  UNL     1      22.602   7.610  50.266  1.00  0.00     0.291 C 
HETATM    4  C3  UNL     1      24.011   7.198  50.497  1.00  0.00     0.154 C 
HETATM    5  N2  UNL     1      24.159   5.767  50.332  1.00  0.00    -0.364 N 
HETATM    6  C4  UNL     1      25.373   5.597  49.629  1.00  0.00     0.088 C 
HETATM    7  C5  UNL     1      26.324   4.662  49.500  1.00  0.00     0.019 C 
HETATM    8  C6  UNL     1      26.440   3.327  50.127  1.00  0.00     0.032 C 
HETATM    9  C7  UNL     1      25.794   2.744  51.153  1.00  0.00     0.052 C 
HETATM   10  C12 UNL     1      24.717   3.219  52.048  1.00  0.00     0.142 C 
HETATM   11  N4  UNL     1      23.740   4.040  51.873  1.00  0.00    -0.272 NA
HETATM   12  C13 UNL     1      23.162   4.887  50.851  1.00  0.00     0.235 C 
HETATM   13  C14 UNL     1      22.016   5.611  51.486  1.00  0.00     0.320 C 
ENDROOT
BRANCH   9  14
HETATM   14  N3  UNL     1      26.184   1.418  51.480  1.00  0.00    -0.326 N 
HETATM   15  C8  UNL     1      27.110   1.098  52.484  1.00  0.00     0.222 C 
HETATM   16  O1  UNL     1      27.676   1.972  53.185  1.00  0.00    -0.273 OA
HETATM   17  H11 UNL     1      25.738   0.631  50.920  1.00  0.00     0.169 HD
BRANCH  15  18
HETATM   18  C9  UNL     1      27.491  -0.301  52.795  1.00  0.00     0.110 C 
BRANCH  18  19
HETATM   19  C10 UNL     1      26.211  -1.096  53.045  1.00  0.00     0.078 C 
BRANCH  19  20
HETATM   20  C11 UNL     1      25.431  -0.490  54.151  1.00  0.00     0.231 C 
HETATM   21  O2  UNL     1      25.875  -0.968  55.199  1.00  0.00    -0.307 OA
ENDBRANCH  19  20
ENDBRANCH  18  19
ENDBRANCH  15  18
ENDBRANCH   9  14
TORSDOF 4
ENDMDL
MODEL 5
REMARK VINA RESULT:      -6.2      2.176      2.888
REMARK  4 active torsions:
REMARK  status: ('A' for Active; 'I' for Inactive)
REMARK    1  A    between atoms: C7_9  and  N3_10 
REMARK       I    between atoms: N3_10  and  C8_11 
REMARK    2  A    between atoms: C8_11  and  C9_13 
REMARK    3  A    between atoms: C9_13  and  C10_14 
REMARK    4  A    between atoms: C10_14  and  C11_15 
ROOT
HETATM    1  C1  UNL     1      21.846   3.742  46.951  1.00  0.00     0.310 C 
HETATM    2  N1  UNL     1      21.097   3.430  48.148  1.00  0.00     0.089 N 
HETATM    3  C2  UNL     1      20.811   4.548  48.961  1.00  0.00     0.291 C 
HETATM    4  C3  UNL     1      21.061   4.423  50.419  1.00  0.00     0.154 C 
HETATM    5  N2  UNL     1      22.286   3.690  50.667  1.00  0.00    -0.364 N 
HETATM    6  C4  UNL     1      22.922   4.377  51.726  1.00  0.00     0.088 C 
HETATM    7  C5  UNL     1      23.780   4.099  52.716  1.00  0.00     0.019 C 
HETATM    8  C6  UNL     1      24.432   2.822  53.083  1.00  0.00     0.032 C 
HETATM    9  C7  UNL     1      24.211   1.548  52.713  1.00  0.00     0.052 C 
HETATM   10  C12 UNL     1      23.225   0.936  51.797  1.00  0.00     0.142 C 
HETATM   11  N4  UNL     1      22.644   1.367  50.731  1.00  0.00    -0.272 NA
HETATM   12  C13 UNL     1      22.593   2.539  49.882  1.00  0.00     0.235 C 
HETATM   13  C14 UNL     1      21.573   2.262  48.823  1.00  0.00     0.320 C 
ENDROOT
BRANCH   9  14
HETATM   14  N3  UNL     1      25.059   0.562  53.286  1.00  0.00    -0.326 N 
HETATM   15  C8  UNL     1      26.242   0.103  52.686  1.00  0.00     0.222 C 
HETATM   16  O1  UNL     1      26.651   0.532  51.581  1.00  0.00    -0.273 OA
HETATM   17  H11 UNL     1      24.766   0.159  54.225  1.00  0.00     0.169 HD
BRANCH  15  18
HETATM   18  C9  UNL     1      27.101  -0.929  53.317  1.00  0.00     0.110 C 
BRANCH  18  19
HETATM   19  C10 UNL     1      28.489  -0.327  53.524  1.00  0.00     0.078 C 
BRANCH  19  20
HETATM   20  C11 UNL     1      28.611   0.242  54.888  1.00  0.00     0.231 C 
HETATM   21  O2  UNL     1      28.821   1.451  54.749  1.00  0.00    -0.307 OA
ENDBRANCH  19  20
ENDBRANCH  18  19
ENDBRANCH  15  18
ENDBRANCH   9  14
TORSDOF 4
ENDMDL
MODEL 6
REMARK VINA RESULT:      -6.2      1.812      3.175
REMARK  4 active torsions:
REMARK  status: ('A' for Active; 'I' for Inactive)
REMARK    1  A    between atoms: C7_9  and  N3_10 
REMARK       I    between atoms: N3_10  and  C8_11 
REMARK    2  A    between atoms: C8_11  and  C9_13 
REMARK    3  A    between atoms: C9_13  and  C10_14 
REMARK    4  A    between atoms: C10_14  and  C11_15 
ROOT
HETATM    1  C1  UNL     1      26.441   8.221  49.103  1.00  0.00     0.310 C 
HETATM    2  N1  UNL     1      25.760   7.076  48.540  1.00  0.00     0.089 N 
HETATM    3  C2  UNL     1      24.362   7.078  48.739  1.00  0.00     0.291 C 
HETATM    4  C3  UNL     1      23.732   5.822  49.218  1.00  0.00     0.154 C 
HETATM    5  N2  UNL     1      24.565   5.180  50.214  1.00  0.00    -0.364 N 
HETATM    6  C4  UNL     1      23.670   4.720  51.208  1.00  0.00     0.088 C 
HETATM    7  C5  UNL     1      23.622   3.747  52.127  1.00  0.00     0.019 C 
HETATM    8  C6  UNL     1      24.609   2.695  52.455  1.00  0.00     0.032 C 
HETATM    9  C7  UNL     1      25.707   2.247  51.820  1.00  0.00     0.052 C 
HETATM   10  C12 UNL     1      26.347   2.638  50.546  1.00  0.00     0.142 C 
HETATM   11  N4  UNL     1      26.415   3.760  49.915  1.00  0.00    -0.272 NA
HETATM   12  C13 UNL     1      25.980   5.135  50.032  1.00  0.00     0.235 C 
HETATM   13  C14 UNL     1      26.433   5.839  48.792  1.00  0.00     0.320 C 
ENDROOT
BRANCH   9  14
HETATM   14  N3  UNL     1      26.425   1.197  52.453  1.00  0.00    -0.326 N 
HETATM   15  C8  UNL     1      27.371   1.397  53.471  1.00  0.00     0.222 C 
HETATM   16  O1  UNL     1      27.662   2.536  53.909  1.00  0.00    -0.273 OA
HETATM   17  H11 UNL     1      26.222   0.206  52.125  1.00  0.00     0.169 HD
BRANCH  15  18
HETATM   18  C9  UNL     1      28.099   0.272  54.107  1.00  0.00     0.110 C 
BRANCH  18  19
HETATM   19  C10 UNL     1      28.068  -0.916  53.148  1.00  0.00     0.078 C 
BRANCH  19  20
HETATM   20  C11 UNL     1      29.282  -1.751  53.316  1.00  0.00     0.231 C 
HETATM   21  O2  UNL     1      28.892  -2.894  53.572  1.00  0.00    -0.307 OA
ENDBRANCH  19  20
ENDBRANCH  18  19
ENDBRANCH  15  18
ENDBRANCH   9  14
TORSDOF 4
ENDMDL
MODEL 7
REMARK VINA RESULT:      -6.2      1.550      2.560
REMARK  4 active torsions:
REMARK  status: ('A' for Active; 'I' for Inactive)
REMARK    1  A    between atoms: C7_9  and  N3_10 
REMARK       I    between atoms: N3_10  and  C8_11 
REMARK    2  A    between atoms: C8_11  and  C9_13 
REMARK    3  A    between atoms: C9_13  and  C10_14 
REMARK    4  A    between atoms: C10_14  and  C11_15 
ROOT
HETATM    1  C1  UNL     1      22.596   7.342  50.876  1.00  0.00     0.310 C 
HETATM    2  N1  UNL     1      22.501   6.163  50.045  1.00  0.00     0.089 N 
HETATM    3  C2  UNL     1      21.235   5.539  50.066  1.00  0.00     0.291 C 
HETATM    4  C3  UNL     1      21.197   4.065  50.239  1.00  0.00     0.154 C 
HETATM    5  N2  UNL     1      22.188   3.637  51.205  1.00  0.00    -0.364 N 
HETATM    6  C4  UNL     1      21.546   2.648  51.985  1.00  0.00     0.088 C 
HETATM    7  C5  UNL     1      21.890   1.576  52.709  1.00  0.00     0.019 C 
HETATM    8  C6  UNL     1      23.224   0.990  52.971  1.00  0.00     0.032 C 
HETATM    9  C7  UNL     1      24.430   1.186  52.409  1.00  0.00     0.052 C 
HETATM   10  C12 UNL     1      24.884   2.066  51.311  1.00  0.00     0.142 C 
HETATM   11  N4  UNL     1      24.482   3.218  50.897  1.00  0.00    -0.272 NA
HETATM   12  C13 UNL     1      23.487   4.227  51.194  1.00  0.00     0.235 C 
HETATM   13  C14 UNL     1      23.636   5.299  50.160  1.00  0.00     0.320 C 
ENDROOT
BRANCH   9  14
HETATM   14  N3  UNL     1      25.509   0.426  52.936  1.00  0.00    -0.326 N 
HETATM   15  C8  UNL     1      26.469   0.937  53.823  1.00  0.00     0.222 C 
HETATM   16  O1  UNL     1      26.450   2.124  54.228  1.00  0.00    -0.273 OA
HETATM   17  H11 UNL     1      25.578  -0.590  52.629  1.00  0.00     0.169 HD
BRANCH  15  18
HETATM   18  C9  UNL     1      27.581   0.109  54.350  1.00  0.00     0.110 C 
BRANCH  18  19
HETATM   19  C10 UNL     1      27.984  -0.888  53.266  1.00  0.00     0.078 C 
BRANCH  19  20
HETATM   20  C11 UNL     1      29.358  -1.391  53.510  1.00  0.00     0.231 C 
HETATM   21  O2  UNL     1      29.293  -2.624  53.482  1.00  0.00    -0.307 OA
ENDBRANCH  19  20
ENDBRANCH  18  19
ENDBRANCH  15  18
ENDBRANCH   9  14
TORSDOF 4
ENDMDL
MODEL 8
REMARK VINA RESULT:      -6.1      3.587      4.749
REMARK  4 active torsions:
REMARK  status: ('A' for Active; 'I' for Inactive)
REMARK    1  A    between atoms: C7_9  and  N3_10 
REMARK       I    between atoms: N3_10  and  C8_11 
REMARK    2  A    between atoms: C8_11  and  C9_13 
REMARK    3  A    between atoms: C9_13  and  C10_14 
REMARK    4  A    between atoms: C10_14  and  C11_15 
ROOT
HETATM    1  C1  UNL     1      17.452   3.087  51.629  1.00  0.00     0.310 C 
HETATM    2  N1  UNL     1      17.986   1.875  51.050  1.00  0.00     0.089 N 
HETATM    3  C2  UNL     1      17.498   0.687  51.637  1.00  0.00     0.291 C 
HETATM    4  C3  UNL     1      18.486  -0.364  51.990  1.00  0.00     0.154 C 
HETATM    5  N2  UNL     1      19.689   0.229  52.539  1.00  0.00    -0.364 N 
HETATM    6  C4  UNL     1      20.053  -0.604  53.621  1.00  0.00     0.088 C 
HETATM    7  C5  UNL     1      21.168  -0.946  54.280  1.00  0.00     0.019 C 
HETATM    8  C6  UNL     1      22.568  -0.516  54.073  1.00  0.00     0.032 C 
HETATM    9  C7  UNL     1      23.181   0.135  53.067  1.00  0.00     0.052 C 
HETATM   10  C12 UNL     1      22.685   0.669  51.780  1.00  0.00     0.142 C 
HETATM   11  N4  UNL     1      21.543   1.143  51.418  1.00  0.00    -0.272 NA
HETATM   12  C13 UNL     1      20.225   1.414  51.953  1.00  0.00     0.235 C 
HETATM   13  C14 UNL     1      19.398   1.934  50.820  1.00  0.00     0.320 C 
ENDROOT
BRANCH   9  14
HETATM   14  N3  UNL     1      24.572   0.380  53.222  1.00  0.00    -0.326 N 
HETATM   15  C8  UNL     1      25.127   1.657  53.398  1.00  0.00     0.222 C 
HETATM   16  O1  UNL     1      24.430   2.699  53.434  1.00  0.00    -0.273 OA
HETATM   17  H11 UNL     1      25.217  -0.465  53.200  1.00  0.00     0.169 HD
BRANCH  15  18
HETATM   18  C9  UNL     1      26.587   1.871  53.556  1.00  0.00     0.110 C 
BRANCH  18  19
HETATM   19  C10 UNL     1      27.157   0.690  54.339  1.00  0.00     0.078 C 
BRANCH  19  20
HETATM   20  C11 UNL     1      27.900  -0.222  53.435  1.00  0.00     0.231 C 
HETATM   21  O2  UNL     1      27.328  -1.314  53.488  1.00  0.00    -0.307 OA
ENDBRANCH  19  20
ENDBRANCH  18  19
ENDBRANCH  15  18
ENDBRANCH   9  14
TORSDOF 4
ENDMDL
MODEL 9
REMARK VINA RESULT:      -6.1      3.722      4.420
REMARK  4 active torsions:
REMARK  status: ('A' for Active; 'I' for Inactive)
REMARK    1  A    between atoms: C7_9  and  N3_10 
REMARK       I    between atoms: N3_10  and  C8_11 
REMARK    2  A    between atoms: C8_11  and  C9_13 
REMARK    3  A    between atoms: C9_13  and  C10_14 
REMARK    4  A    between atoms: C10_14  and  C11_15 
ROOT
HETATM    1  C1  UNL     1      22.537   8.544  48.947  1.00  0.00     0.310 C 
HETATM    2  N1  UNL     1      23.474   8.351  50.031  1.00  0.00     0.089 N 
HETATM    3  C2  UNL     1      24.827   8.310  49.629  1.00  0.00     0.291 C 
HETATM    4  C3  UNL     1      25.676   7.221  50.174  1.00  0.00     0.154 C 
HETATM    5  N2  UNL     1      24.939   5.975  50.226  1.00  0.00    -0.364 N 
HETATM    6  C4  UNL     1      25.850   4.984  49.795  1.00  0.00     0.088 C 
HETATM    7  C5  UNL     1      26.047   3.672  49.971  1.00  0.00     0.019 C 
HETATM    8  C6  UNL     1      25.284   2.692  50.776  1.00  0.00     0.032 C 
HETATM    9  C7  UNL     1      24.342   2.832  51.726  1.00  0.00     0.052 C 
HETATM   10  C12 UNL     1      23.710   4.024  52.331  1.00  0.00     0.142 C 
HETATM   11  N4  UNL     1      23.446   5.197  51.869  1.00  0.00    -0.272 NA
HETATM   12  C13 UNL     1      23.578   5.975  50.655  1.00  0.00     0.235 C 
HETATM   13  C14 UNL     1      23.060   7.346  50.962  1.00  0.00     0.320 C 
ENDROOT
BRANCH   9  14
HETATM   14  N3  UNL     1      23.823   1.635  52.290  1.00  0.00    -0.326 N 
HETATM   15  C8  UNL     1      22.655   1.000  51.841  1.00  0.00     0.222 C 
HETATM   16  O1  UNL     1      21.966   1.444  50.892  1.00  0.00    -0.273 OA
HETATM   17  H11 UNL     1      24.365   1.209  53.099  1.00  0.00     0.169 HD
BRANCH  15  18
HETATM   18  C9  UNL     1      22.147  -0.250  52.457  1.00  0.00     0.110 C 
BRANCH  18  19
HETATM   19  C10 UNL     1      22.845  -0.433  53.803  1.00  0.00     0.078 C 
BRANCH  19  20
HETATM   20  C11 UNL     1      21.862  -0.802  54.851  1.00  0.00     0.231 C 
HETATM   21  O2  UNL     1      22.271  -1.847  55.365  1.00  0.00    -0.307 OA
ENDBRANCH  19  20
ENDBRANCH  18  19
ENDBRANCH  15  18
ENDBRANCH   9  14
TORSDOF 4
ENDMDL
