MODEL 1
REMARK VINA RESULT:      -8.1      0.000      0.000
REMARK  7 active torsions:
REMARK  status: ('A' for Active; 'I' for Inactive)
REMARK    1  A    between atoms: C3_3  and  C4_4 
REMARK    2  A    between atoms: C4_4  and  C5_5 
REMARK    3  A    between atoms: C5_5  and  O1_6 
REMARK    4  A    between atoms: O1_6  and  C6_7 
REMARK    5  A    between atoms: C11_12  and  O2_13 
REMARK    6  A    between atoms: C14_18  and  N2_19 
REMARK    7  A    between atoms: N2_19  and  C15_20 
ROOT
HETATM    1  C1  UNL     1      26.408   2.855  50.110  1.00  0.00     0.012 C 
HETATM    2  C2  UNL     1      25.446   3.587  49.932  1.00  0.00    -0.117 C 
HETATM    3  C3  UNL     1      24.281   4.453  49.739  1.00  0.00     0.095 C 
ENDROOT
BRANCH   3   4
HETATM    4  C4  UNL     1      24.088   5.416  50.867  1.00  0.00     0.039 C 
BRANCH   4   5
HETATM    5  C5  UNL     1      23.615   4.758  52.132  1.00  0.00     0.176 C 
BRANCH   5   6
HETATM    6  O1  UNL     1      22.356   4.135  51.888  1.00  0.00    -0.348 OA
BRANCH   6   7
HETATM    7  C6  UNL     1      22.039   2.924  52.324  1.00  0.00     0.099 A 
HETATM    8  C7  UNL     1      22.982   1.927  52.700  1.00  0.00     0.040 A 
HETATM    9  C8  UNL     1      22.799   0.524  53.208  1.00  0.00     0.109 A 
HETATM   10  C9  UNL     1      21.097   0.485  53.199  1.00  0.00     0.133 A 
HETATM   11  C14 UNL     1      24.351  -0.044  53.435  1.00  0.00     0.135 A 
HETATM   12  S1  UNL     1      23.072  -0.530  53.595  1.00  0.00    -0.130 SA
HETATM   13  C13 UNL     1      22.054  -0.886  53.712  1.00  0.00     0.149 A 
HETATM   14  C10 UNL     1      20.231   1.472  52.829  1.00  0.00     0.051 A 
HETATM   15  N1  UNL     1      21.036  -1.212  53.816  1.00  0.00    -0.283 NA
HETATM   16  C11 UNL     1      20.765   2.609  52.421  1.00  0.00     0.100 A 
BRANCH  16  17
HETATM   17  O2  UNL     1      19.706   3.359  52.134  1.00  0.00    -0.353 OA
HETATM   18  C12 UNL     1      18.453   3.050  51.655  1.00  0.00     0.210 C 
ENDBRANCH  16  17
BRANCH  11  19
HETATM   19  N2  UNL     1      25.257   0.964  53.079  1.00  0.00    -0.367 N 
HETATM   20  H13 UNL     1      24.865   1.854  52.707  1.00  0.00     0.161 HD
BRANCH  19  21
HETATM   21  C15 UNL     1      26.645   0.726  53.233  1.00  0.00     0.031 A 
HETATM   22  C16 UNL     1      27.495   1.788  53.478  1.00  0.00     0.032 A 
HETATM   23  C17 UNL     1      28.850   1.490  53.622  1.00  0.00     0.046 A 
HETATM   24  C18 UNL     1      29.358   0.207  53.530  1.00  0.00     0.138 A 
HETATM   25  F1  UNL     1      30.674  -0.059  53.672  1.00  0.00    -0.204 F 
HETATM   26  C19 UNL     1      28.508  -0.845  53.286  1.00  0.00     0.074 A 
HETATM   27 CL1  UNL     1      29.003  -2.508  53.146  1.00  0.00    -0.081 Cl
HETATM   28  C20 UNL     1      27.167  -0.545  53.145  1.00  0.00     0.056 A 
ENDBRANCH  19  21
ENDBRANCH  11  19
ENDBRANCH   6   7
ENDBRANCH   5   6
ENDBRANCH   4   5
ENDBRANCH   3   4
TORSDOF 7
ENDMDL
MODEL 2
REMARK VINA RESULT:      -7.6      1.622      1.816
REMARK  7 active torsions:
REMARK  status: ('A' for Active; 'I' for Inactive)
REMARK    1  A    between atoms: C3_3  and  C4_4 
REMARK    2  A    between atoms: C4_4  and  C5_5 
REMARK    3  A    between atoms: C5_5  and  O1_6 
REMARK    4  A    between atoms: O1_6  and  C6_7 
REMARK    5  A    between atoms: C11_12  and  O2_13 
REMARK    6  A    between atoms: C14_18  and  N2_19 
REMARK    7  A    between atoms: N2_19  and  C15_20 
ROOT
HETATM    1  C1  UNL     1      24.591   6.550  48.651  1.00  0.00     0.012 C 
HETATM    2  C2  UNL     1      23.860   5.581  48.507  1.00  0.00    -0.117 C 
HETATM    3  C3  UNL     1      23.004   4.407  48.324  1.00  0.00     0.095 C 
ENDROOT
BRANCH   3   4
HETATM    4  C4  UNL     1      23.494   3.214  49.081  1.00  0.00     0.039 C 
BRANCH   4   5
HETATM    5  C5  UNL     1      22.845   3.060  50.427  1.00  0.00     0.176 C 
BRANCH   5   6
HETATM    6  O1  UNL     1      21.932   1.966  50.378  1.00  0.00    -0.348 OA
BRANCH   6   7
HETATM    7  C6  UNL     1      21.741   1.125  51.386  1.00  0.00     0.099 A 
HETATM    8  C7  UNL     1      22.761   0.674  52.267  1.00  0.00     0.040 A 
HETATM    9  C8  UNL     1      22.719  -0.263  53.443  1.00  0.00     0.109 A 
HETATM   10  C9  UNL     1      21.057  -0.628  53.401  1.00  0.00     0.133 A 
HETATM   11  C14 UNL     1      24.295  -0.319  53.990  1.00  0.00     0.135 A 
HETATM   12  S1  UNL     1      23.090  -0.886  54.343  1.00  0.00    -0.130 SA
HETATM   13  C13 UNL     1      22.128  -1.317  54.599  1.00  0.00     0.149 A 
HETATM   14  C10 UNL     1      20.112  -0.167  52.530  1.00  0.00     0.051 A 
HETATM   15  N1  UNL     1      21.163  -1.729  54.829  1.00  0.00    -0.283 NA
HETATM   16  C11 UNL     1      20.524   0.669  51.594  1.00  0.00     0.100 A 
BRANCH  16  17
HETATM   17  O2  UNL     1      19.414   0.939  50.915  1.00  0.00    -0.353 OA
HETATM   18  C12 UNL     1      18.272   0.208  50.675  1.00  0.00     0.210 C 
ENDBRANCH  16  17
BRANCH  11  19
HETATM   19  N2  UNL     1      25.083   0.508  53.178  1.00  0.00    -0.367 N 
HETATM   20  H13 UNL     1      24.591   1.151  52.524  1.00  0.00     0.161 HD
BRANCH  19  21
HETATM   21  C15 UNL     1      26.494   0.428  53.281  1.00  0.00     0.031 A 
HETATM   22  C16 UNL     1      27.231   1.584  53.456  1.00  0.00     0.032 A 
HETATM   23  C17 UNL     1      28.615   1.439  53.551  1.00  0.00     0.046 A 
HETATM   24  C18 UNL     1      29.257   0.217  53.478  1.00  0.00     0.138 A 
HETATM   25  F1  UNL     1      30.599   0.100  53.572  1.00  0.00    -0.204 F 
HETATM   26  C19 UNL     1      28.518  -0.930  53.303  1.00  0.00     0.074 A 
HETATM   27 CL1  UNL     1      29.188  -2.533  53.194  1.00  0.00    -0.081 Cl
HETATM   28  C20 UNL     1      27.148  -0.782  53.210  1.00  0.00     0.056 A 
ENDBRANCH  19  21
ENDBRANCH  11  19
ENDBRANCH   6   7
ENDBRANCH   5   6
ENDBRANCH   4   5
ENDBRANCH   3   4
TORSDOF 7
ENDMDL
MODEL 3
REMARK VINA RESULT:      -7.5      4.510      7.207
REMARK  7 active torsions:
REMARK  status: ('A' for Active; 'I' for Inactive)
REMARK    1  A    between atoms: C3_3  and  C4_4 
REMARK    2  A    between atoms: C4_4  and  C5_5 
REMARK    3  A    between atoms: C5_5  and  O1_6 
REMARK    4  A    between atoms: O1_6  and  C6_7 
REMARK    5  A    between atoms: C11_12  and  O2_13 
REMARK    6  A    between atoms: C14_18  and  N2_19 
REMARK    7  A    between atoms: N2_19  and  C15_20 
ROOT
HETATM    1  C1  UNL     1      27.849   5.236  48.549  1.00  0.00     0.012 C 
HETATM    2  C2  UNL     1      27.155   4.335  48.998  1.00  0.00    -0.117 C 
HETATM    3  C3  UNL     1      26.324   3.267  49.557  1.00  0.00     0.095 C 
ENDROOT
BRANCH   3   4
HETATM    4  C4  UNL     1      24.968   3.748  49.966  1.00  0.00     0.039 C 
BRANCH   4   5
HETATM    5  C5  UNL     1      24.129   2.678  50.604  1.00  0.00     0.176 C 
BRANCH   5   6
HETATM    6  O1  UNL     1      24.967   1.848  51.405  1.00  0.00    -0.348 OA
BRANCH   6   7
HETATM    7  C6  UNL     1      24.510   1.035  52.347  1.00  0.00     0.099 A 
HETATM    8  C7  UNL     1      23.144   0.923  52.726  1.00  0.00     0.040 A 
HETATM    9  C8  UNL     1      22.462   0.067  53.757  1.00  0.00     0.109 A 
HETATM   10  C9  UNL     1      23.839  -0.743  54.345  1.00  0.00     0.133 A 
HETATM   11  C14 UNL     1      20.848   0.473  53.638  1.00  0.00     0.135 A 
HETATM   12  S1  UNL     1      21.613  -0.387  54.396  1.00  0.00    -0.130 SA
HETATM   13  C13 UNL     1      22.239  -1.054  54.978  1.00  0.00     0.149 A 
HETATM   14  C10 UNL     1      25.137  -0.601  53.947  1.00  0.00     0.051 A 
HETATM   15  N1  UNL     1      22.884  -1.705  55.539  1.00  0.00    -0.283 NA
HETATM   16  C11 UNL     1      25.372   0.273  52.985  1.00  0.00     0.100 A 
BRANCH  16  17
HETATM   17  O2  UNL     1      26.688   0.195  52.816  1.00  0.00    -0.353 OA
HETATM   18  C12 UNL     1      27.648  -0.623  53.368  1.00  0.00     0.210 C 
ENDBRANCH  16  17
BRANCH  11  19
HETATM   19  N2  UNL     1      20.701   1.449  52.642  1.00  0.00    -0.367 N 
HETATM   20  H13 UNL     1      21.486   2.118  52.505  1.00  0.00     0.161 HD
BRANCH  19  21
HETATM   21  C15 UNL     1      19.505   1.480  51.884  1.00  0.00     0.031 A 
HETATM   22  C16 UNL     1      19.018   0.311  51.331  1.00  0.00     0.032 A 
HETATM   23  C17 UNL     1      17.836   0.407  50.596  1.00  0.00     0.046 A 
HETATM   24  C18 UNL     1      17.155   1.595  50.405  1.00  0.00     0.138 A 
HETATM   25  F1  UNL     1      16.013   1.665  49.689  1.00  0.00    -0.204 F 
HETATM   26  C19 UNL     1      17.645   2.755  50.958  1.00  0.00     0.074 A 
HETATM   27 CL1  UNL     1      16.896   4.319  50.803  1.00  0.00    -0.081 Cl
HETATM   28  C20 UNL     1      18.815   2.655  51.685  1.00  0.00     0.056 A 
ENDBRANCH  19  21
ENDBRANCH  11  19
ENDBRANCH   6   7
ENDBRANCH   5   6
ENDBRANCH   4   5
ENDBRANCH   3   4
TORSDOF 7
ENDMDL
MODEL 4
REMARK VINA RESULT:      -7.5      3.663      5.552
REMARK  7 active torsions:
REMARK  status: ('A' for Active; 'I' for Inactive)
REMARK    1  A    between atoms: C3_3  and  C4_4 
REMARK    2  A    between atoms: C4_4  and  C5_5 
REMARK    3  A    between atoms: C5_5  and  O1_6 
REMARK    4  A    between atoms: O1_6  and  C6_7 
REMARK    5  A    between atoms: C11_12  and  O2_13 
REMARK    6  A    between atoms: C14_18  and  N2_19 
REMARK    7  A    between atoms: N2_19  and  C15_20 
ROOT
HETATM    1  C1  UNL     1      22.485   4.572  47.667  1.00  0.00     0.012 C 
HETATM    2  C2  UNL     1      22.331   3.377  47.874  1.00  0.00    -0.117 C 
HETATM    3  C3  UNL     1      22.153   1.950  48.145  1.00  0.00     0.095 C 
ENDROOT
BRANCH   3   4
HETATM    4  C4  UNL     1      21.046   1.682  49.114  1.00  0.00     0.039 C 
BRANCH   4   5
HETATM    5  C5  UNL     1      21.371   0.596  50.099  1.00  0.00     0.176 C 
BRANCH   5   6
HETATM    6  O1  UNL     1      21.739   1.192  51.341  1.00  0.00    -0.348 OA
BRANCH   6   7
HETATM    7  C6  UNL     1      22.896   0.965  51.949  1.00  0.00     0.099 A 
HETATM    8  C7  UNL     1      24.136   1.552  51.575  1.00  0.00     0.040 A 
HETATM    9  C8  UNL     1      25.519   1.408  52.146  1.00  0.00     0.109 A 
HETATM   10  C9  UNL     1      25.151   0.312  53.395  1.00  0.00     0.133 A 
HETATM   11  C14 UNL     1      26.470   2.395  51.195  1.00  0.00     0.135 A 
HETATM   12  S1  UNL     1      26.657   1.563  52.276  1.00  0.00    -0.130 SA
HETATM   13  C13 UNL     1      26.775   0.901  53.128  1.00  0.00     0.149 A 
HETATM   14  C10 UNL     1      23.938  -0.227  53.717  1.00  0.00     0.051 A 
HETATM   15  N1  UNL     1      26.862   0.240  53.970  1.00  0.00    -0.283 NA
HETATM   16  C11 UNL     1      22.910   0.139  52.973  1.00  0.00     0.100 A 
BRANCH  16  17
HETATM   17  O2  UNL     1      21.892  -0.529  53.509  1.00  0.00    -0.353 OA
HETATM   18  C12 UNL     1      21.837  -1.566  54.413  1.00  0.00     0.210 C 
ENDBRANCH  16  17
BRANCH  11  19
HETATM   19  N2  UNL     1      25.661   2.996  50.220  1.00  0.00    -0.367 N 
HETATM   20  H13 UNL     1      24.770   2.519  49.973  1.00  0.00     0.161 HD
BRANCH  19  21
HETATM   21  C15 UNL     1      26.092   4.206  49.622  1.00  0.00     0.031 A 
HETATM   22  C16 UNL     1      25.232   5.288  49.577  1.00  0.00     0.032 A 
HETATM   23  C17 UNL     1      25.714   6.451  48.976  1.00  0.00     0.046 A 
HETATM   24  C18 UNL     1      26.984   6.557  48.439  1.00  0.00     0.138 A 
HETATM   25  F1  UNL     1      27.430   7.693  47.861  1.00  0.00    -0.204 F 
HETATM   26  C19 UNL     1      27.835   5.478  48.487  1.00  0.00     0.074 A 
HETATM   27 CL1  UNL     1      29.456   5.466  47.854  1.00  0.00    -0.081 Cl
HETATM   28  C20 UNL     1      27.353   4.329  49.083  1.00  0.00     0.056 A 
ENDBRANCH  19  21
ENDBRANCH  11  19
ENDBRANCH   6   7
ENDBRANCH   5   6
ENDBRANCH   4   5
ENDBRANCH   3   4
TORSDOF 7
ENDMDL
MODEL 5
REMARK VINA RESULT:      -7.2      3.809      6.261
REMARK  7 active torsions:
REMARK  status: ('A' for Active; 'I' for Inactive)
REMARK    1  A    between atoms: C3_3  and  C4_4 
REMARK    2  A    between atoms: C4_4  and  C5_5 
REMARK    3  A    between atoms: C5_5  and  O1_6 
REMARK    4  A    between atoms: O1_6  and  C6_7 
REMARK    5  A    between atoms: C11_12  and  O2_13 
REMARK    6  A    between atoms: C14_18  and  N2_19 
REMARK    7  A    between atoms: N2_19  and  C15_20 
ROOT
HETATM    1  C1  UNL     1      18.174  -0.878  52.917  1.00  0.00     0.012 C 
HETATM    2  C2  UNL     1      18.603  -0.144  52.039  1.00  0.00    -0.117 C 
HETATM    3  C3  UNL     1      19.101   0.752  50.993  1.00  0.00     0.095 C 
ENDROOT
BRANCH   3   4
HETATM    4  C4  UNL     1      19.737   1.986  51.549  1.00  0.00     0.039 C 
BRANCH   4   5
HETATM    5  C5  UNL     1      20.886   1.694  52.473  1.00  0.00     0.176 C 
BRANCH   5   6
HETATM    6  O1  UNL     1      21.833   0.876  51.789  1.00  0.00    -0.348 OA
BRANCH   6   7
HETATM    7  C6  UNL     1      23.062   0.650  52.233  1.00  0.00     0.099 A 
HETATM    8  C7  UNL     1      24.218   1.362  51.811  1.00  0.00     0.040 A 
HETATM    9  C8  UNL     1      25.664   1.238  52.205  1.00  0.00     0.109 A 
HETATM   10  C9  UNL     1      25.500  -0.033  53.325  1.00  0.00     0.133 A 
HETATM   11  C14 UNL     1      26.445   2.402  51.301  1.00  0.00     0.135 A 
HETATM   12  S1  UNL     1      26.799   1.451  52.232  1.00  0.00    -0.130 SA
HETATM   13  C13 UNL     1      27.049   0.694  52.968  1.00  0.00     0.149 A 
HETATM   14  C10 UNL     1      24.362  -0.688  53.699  1.00  0.00     0.051 A 
HETATM   15  N1  UNL     1      27.267  -0.064  53.698  1.00  0.00    -0.283 NA
HETATM   16  C11 UNL     1      23.237  -0.299  53.127  1.00  0.00     0.100 A 
BRANCH  16  17
HETATM   17  O2  UNL     1      22.325  -1.098  53.673  1.00  0.00    -0.353 OA
HETATM   18  C12 UNL     1      21.543  -0.979  54.800  1.00  0.00     0.210 C 
ENDBRANCH  16  17
BRANCH  11  19
HETATM   19  N2  UNL     1      25.499   3.069  50.510  1.00  0.00    -0.367 N 
HETATM   20  H13 UNL     1      24.587   2.595  50.348  1.00  0.00     0.161 HD
BRANCH  19  21
HETATM   21  C15 UNL     1      25.827   4.338  49.971  1.00  0.00     0.031 A 
HETATM   22  C16 UNL     1      26.880   4.449  49.083  1.00  0.00     0.032 A 
HETATM   23  C17 UNL     1      27.153   5.723  48.586  1.00  0.00     0.046 A 
HETATM   24  C18 UNL     1      26.429   6.847  48.941  1.00  0.00     0.138 A 
HETATM   25  F1  UNL     1      26.711   8.072  48.449  1.00  0.00    -0.204 F 
HETATM   26  C19 UNL     1      25.383   6.730  49.826  1.00  0.00     0.074 A 
HETATM   27 CL1  UNL     1      24.386   8.053  50.362  1.00  0.00    -0.081 Cl
HETATM   28  C20 UNL     1      25.116   5.466  50.314  1.00  0.00     0.056 A 
ENDBRANCH  19  21
ENDBRANCH  11  19
ENDBRANCH   6   7
ENDBRANCH   5   6
ENDBRANCH   4   5
ENDBRANCH   3   4
TORSDOF 7
ENDMDL
MODEL 6
REMARK VINA RESULT:      -6.9      5.700      7.833
REMARK  7 active torsions:
REMARK  status: ('A' for Active; 'I' for Inactive)
REMARK    1  A    between atoms: C3_3  and  C4_4 
REMARK    2  A    between atoms: C4_4  and  C5_5 
REMARK    3  A    between atoms: C5_5  and  O1_6 
REMARK    4  A    between atoms: O1_6  and  C6_7 
REMARK    5  A    between atoms: C11_12  and  O2_13 
REMARK    6  A    between atoms: C14_18  and  N2_19 
REMARK    7  A    between atoms: N2_19  and  C15_20 
ROOT
HETATM    1  C1  UNL     1      24.082   3.650  53.078  1.00  0.00     0.012 C 
HETATM    2  C2  UNL     1      24.408   2.553  52.649  1.00  0.00    -0.117 C 
HETATM    3  C3  UNL     1      24.801   1.248  52.112  1.00  0.00     0.095 C 
ENDROOT
BRANCH   3   4
HETATM    4  C4  UNL     1      26.203   1.239  51.593  1.00  0.00     0.039 C 
BRANCH   4   5
HETATM    5  C5  UNL     1      26.725   2.611  51.275  1.00  0.00     0.176 C 
BRANCH   5   6
HETATM    6  O1  UNL     1      26.530   2.869  49.886  1.00  0.00    -0.348 OA
BRANCH   6   7
HETATM    7  C6  UNL     1      26.337   4.083  49.386  1.00  0.00     0.099 A 
HETATM    8  C7  UNL     1      27.375   4.959  48.966  1.00  0.00     0.040 A 
HETATM    9  C8  UNL     1      27.335   6.346  48.386  1.00  0.00     0.109 A 
HETATM   10  C9  UNL     1      25.646   6.555  48.381  1.00  0.00     0.133 A 
HETATM   11  C14 UNL     1      28.937   6.743  48.140  1.00  0.00     0.135 A 
HETATM   12  S1  UNL     1      27.713   7.346  47.947  1.00  0.00    -0.130 SA
HETATM   13  C13 UNL     1      26.736   7.795  47.806  1.00  0.00     0.149 A 
HETATM   14  C10 UNL     1      24.684   5.680  48.796  1.00  0.00     0.051 A 
HETATM   15  N1  UNL     1      25.756   8.216  47.678  1.00  0.00    -0.283 NA
HETATM   16  C11 UNL     1      25.101   4.517  49.264  1.00  0.00     0.100 A 
BRANCH  16  17
HETATM   17  O2  UNL     1      23.972   3.893  49.583  1.00  0.00    -0.353 OA
HETATM   18  C12 UNL     1      23.242   2.914  48.948  1.00  0.00     0.210 C 
ENDBRANCH  16  17
BRANCH  11  19
HETATM   19  N2  UNL     1      29.736   5.669  48.554  1.00  0.00    -0.367 N 
HETATM   20  H13 UNL     1      29.253   4.820  48.913  1.00  0.00     0.161 HD
BRANCH  19  21
HETATM   21  C15 UNL     1      31.145   5.790  48.471  1.00  0.00     0.031 A 
HETATM   22  C16 UNL     1      31.743   7.003  48.757  1.00  0.00     0.032 A 
HETATM   23  C17 UNL     1      33.133   7.059  48.658  1.00  0.00     0.046 A 
HETATM   24  C18 UNL     1      33.912   5.977  48.293  1.00  0.00     0.138 A 
HETATM   25  F1  UNL     1      35.257   6.053  48.203  1.00  0.00    -0.204 F 
HETATM   26  C19 UNL     1      33.312   4.772  48.010  1.00  0.00     0.074 A 
HETATM   27 CL1  UNL     1      34.162   3.328  47.540  1.00  0.00    -0.081 Cl
HETATM   28  C20 UNL     1      31.935   4.722  48.109  1.00  0.00     0.056 A 
ENDBRANCH  19  21
ENDBRANCH  11  19
ENDBRANCH   6   7
ENDBRANCH   5   6
ENDBRANCH   4   5
ENDBRANCH   3   4
TORSDOF 7
ENDMDL
MODEL 7
REMARK VINA RESULT:      -6.7      2.959      3.859
REMARK  7 active torsions:
REMARK  status: ('A' for Active; 'I' for Inactive)
REMARK    1  A    between atoms: C3_3  and  C4_4 
REMARK    2  A    between atoms: C4_4  and  C5_5 
REMARK    3  A    between atoms: C5_5  and  O1_6 
REMARK    4  A    between atoms: O1_6  and  C6_7 
REMARK    5  A    between atoms: C11_12  and  O2_13 
REMARK    6  A    between atoms: C14_18  and  N2_19 
REMARK    7  A    between atoms: N2_19  and  C15_20 
ROOT
HETATM    1  C1  UNL     1      29.673   9.397  48.066  1.00  0.00     0.012 C 
HETATM    2  C2  UNL     1      29.156   8.291  48.004  1.00  0.00    -0.117 C 
HETATM    3  C3  UNL     1      28.539   6.964  47.955  1.00  0.00     0.095 C 
ENDROOT
BRANCH   3   4
HETATM    4  C4  UNL     1      27.193   6.932  48.605  1.00  0.00     0.039 C 
BRANCH   4   5
HETATM    5  C5  UNL     1      26.669   5.539  48.812  1.00  0.00     0.176 C 
BRANCH   5   6
HETATM    6  O1  UNL     1      25.658   5.569  49.818  1.00  0.00    -0.348 OA
BRANCH   6   7
HETATM    7  C6  UNL     1      24.756   4.611  49.980  1.00  0.00     0.099 A 
HETATM    8  C7  UNL     1      24.924   3.476  50.821  1.00  0.00     0.040 A 
HETATM    9  C8  UNL     1      24.019   2.313  51.117  1.00  0.00     0.109 A 
HETATM   10  C9  UNL     1      22.710   2.769  50.129  1.00  0.00     0.133 A 
HETATM   11  C14 UNL     1      24.882   1.373  52.192  1.00  0.00     0.135 A 
HETATM   12  S1  UNL     1      23.649   1.321  51.580  1.00  0.00    -0.130 SA
HETATM   13  C13 UNL     1      22.683   1.306  51.085  1.00  0.00     0.149 A 
HETATM   14  C10 UNL     1      22.595   3.874  49.336  1.00  0.00     0.051 A 
HETATM   15  N1  UNL     1      21.735   1.317  50.581  1.00  0.00    -0.283 NA
HETATM   16  C11 UNL     1      23.621   4.706  49.322  1.00  0.00     0.100 A 
BRANCH  16  17
HETATM   17  O2  UNL     1      23.230   5.660  48.484  1.00  0.00    -0.353 OA
HETATM   18  C12 UNL     1      22.958   6.998  48.663  1.00  0.00     0.210 C 
ENDBRANCH  16  17
BRANCH  11  19
HETATM   19  N2  UNL     1      26.119   1.985  52.432  1.00  0.00    -0.367 N 
HETATM   20  H13 UNL     1      26.194   3.008  52.251  1.00  0.00     0.161 HD
BRANCH  19  21
HETATM   21  C15 UNL     1      27.198   1.194  52.899  1.00  0.00     0.031 A 
HETATM   22  C16 UNL     1      28.251   1.798  53.560  1.00  0.00     0.032 A 
HETATM   23  C17 UNL     1      29.281   0.966  53.996  1.00  0.00     0.046 A 
HETATM   24  C18 UNL     1      29.288  -0.402  53.796  1.00  0.00     0.138 A 
HETATM   25  F1  UNL     1      30.297  -1.190  54.226  1.00  0.00    -0.204 F 
HETATM   26  C19 UNL     1      28.238  -0.998  53.138  1.00  0.00     0.074 A 
HETATM   27 CL1  UNL     1      28.110  -2.704  52.815  1.00  0.00    -0.081 Cl
HETATM   28  C20 UNL     1      27.219  -0.170  52.708  1.00  0.00     0.056 A 
ENDBRANCH  19  21
ENDBRANCH  11  19
ENDBRANCH   6   7
ENDBRANCH   5   6
ENDBRANCH   4   5
ENDBRANCH   3   4
TORSDOF 7
ENDMDL
MODEL 8
REMARK VINA RESULT:      -6.6      7.196      9.626
REMARK  7 active torsions:
REMARK  status: ('A' for Active; 'I' for Inactive)
REMARK    1  A    between atoms: C3_3  and  C4_4 
REMARK    2  A    between atoms: C4_4  and  C5_5 
REMARK    3  A    between atoms: C5_5  and  O1_6 
REMARK    4  A    between atoms: O1_6  and  C6_7 
REMARK    5  A    between atoms: C11_12  and  O2_13 
REMARK    6  A    between atoms: C14_18  and  N2_19 
REMARK    7  A    between atoms: N2_19  and  C15_20 
ROOT
HETATM    1  C1  UNL     1      23.360   4.641  48.575  1.00  0.00     0.012 C 
HETATM    2  C2  UNL     1      24.421   4.752  49.171  1.00  0.00    -0.117 C 
HETATM    3  C3  UNL     1      25.691   4.861  49.892  1.00  0.00     0.095 C 
ENDROOT
BRANCH   3   4
HETATM    4  C4  UNL     1      26.784   4.064  49.254  1.00  0.00     0.039 C 
BRANCH   4   5
HETATM    5  C5  UNL     1      27.811   4.915  48.563  1.00  0.00     0.176 C 
BRANCH   5   6
HETATM    6  O1  UNL     1      27.241   6.192  48.283  1.00  0.00    -0.348 OA
BRANCH   6   7
HETATM    7  C6  UNL     1      27.922   7.329  48.342  1.00  0.00     0.099 A 
HETATM    8  C7  UNL     1      29.288   7.434  48.724  1.00  0.00     0.040 A 
HETATM    9  C8  UNL     1      30.200   8.623  48.844  1.00  0.00     0.109 A 
HETATM   10  C9  UNL     1      29.090   9.826  48.375  1.00  0.00     0.133 A 
HETATM   11  C14 UNL     1      31.657   7.985  49.345  1.00  0.00     0.135 A 
HETATM   12  S1  UNL     1      31.159   9.234  49.048  1.00  0.00    -0.130 SA
HETATM   13  C13 UNL     1      30.741  10.206  48.807  1.00  0.00     0.149 A 
HETATM   14  C10 UNL     1      27.782   9.675  48.014  1.00  0.00     0.051 A 
HETATM   15  N1  UNL     1      30.300  11.154  48.563  1.00  0.00    -0.283 NA
HETATM   16  C11 UNL     1      27.301   8.444  48.025  1.00  0.00     0.100 A 
BRANCH  16  17
HETATM   17  O2  UNL     1      26.039   8.606  47.640  1.00  0.00    -0.353 OA
HETATM   18  C12 UNL     1      25.062   9.501  48.015  1.00  0.00     0.210 C 
ENDBRANCH  16  17
BRANCH  11  19
HETATM   19  N2  UNL     1      31.519   6.596  49.476  1.00  0.00    -0.367 N 
HETATM   20  H13 UNL     1      30.708   6.243  50.024  1.00  0.00     0.161 HD
BRANCH  19  21
HETATM   21  C15 UNL     1      32.481   5.750  48.870  1.00  0.00     0.031 A 
HETATM   22  C16 UNL     1      33.826   6.029  49.022  1.00  0.00     0.032 A 
HETATM   23  C17 UNL     1      34.723   5.160  48.402  1.00  0.00     0.046 A 
HETATM   24  C18 UNL     1      34.327   4.061  47.662  1.00  0.00     0.138 A 
HETATM   25  F1  UNL     1      35.213   3.233  47.070  1.00  0.00    -0.204 F 
HETATM   26  C19 UNL     1      32.988   3.789  47.514  1.00  0.00     0.074 A 
HETATM   27 CL1  UNL     1      32.343   2.445  46.614  1.00  0.00    -0.081 Cl
HETATM   28  C20 UNL     1      32.103   4.652  48.130  1.00  0.00     0.056 A 
ENDBRANCH  19  21
ENDBRANCH  11  19
ENDBRANCH   6   7
ENDBRANCH   5   6
ENDBRANCH   4   5
ENDBRANCH   3   4
TORSDOF 7
ENDMDL
MODEL 9
REMARK VINA RESULT:      -6.6      4.512      7.194
REMARK  7 active torsions:
REMARK  status: ('A' for Active; 'I' for Inactive)
REMARK    1  A    between atoms: C3_3  and  C4_4 
REMARK    2  A    between atoms: C4_4  and  C5_5 
REMARK    3  A    between atoms: C5_5  and  O1_6 
REMARK    4  A    between atoms: O1_6  and  C6_7 
REMARK    5  A    between atoms: C11_12  and  O2_13 
REMARK    6  A    between atoms: C14_18  and  N2_19 
REMARK    7  A    between atoms: N2_19  and  C15_20 
ROOT
HETATM    1  C1  UNL     1      22.791   7.352  50.195  1.00  0.00     0.012 C 
HETATM    2  C2  UNL     1      22.744   6.239  50.698  1.00  0.00    -0.117 C 
HETATM    3  C3  UNL     1      22.685   4.896  51.277  1.00  0.00     0.095 C 
ENDROOT
BRANCH   3   4
HETATM    4  C4  UNL     1      23.855   4.050  50.889  1.00  0.00     0.039 C 
BRANCH   4   5
HETATM    5  C5  UNL     1      23.479   2.633  50.561  1.00  0.00     0.176 C 
BRANCH   5   6
HETATM    6  O1  UNL     1      24.430   1.752  51.155  1.00  0.00    -0.348 OA
BRANCH   6   7
HETATM    7  C6  UNL     1      24.158   0.969  52.190  1.00  0.00     0.099 A 
HETATM    8  C7  UNL     1      22.848   0.646  52.638  1.00  0.00     0.040 A 
HETATM    9  C8  UNL     1      22.366  -0.213  53.775  1.00  0.00     0.109 A 
HETATM   10  C9  UNL     1      23.886  -0.689  54.376  1.00  0.00     0.133 A 
HETATM   11  C14 UNL     1      20.702  -0.126  53.689  1.00  0.00     0.135 A 
HETATM   12  S1  UNL     1      21.635  -0.748  54.491  1.00  0.00    -0.130 SA
HETATM   13  C13 UNL     1      22.391  -1.225  55.106  1.00  0.00     0.149 A 
HETATM   14  C10 UNL     1      25.123  -0.351  53.910  1.00  0.00     0.051 A 
HETATM   15  N1  UNL     1      23.160  -1.684  55.698  1.00  0.00    -0.283 NA
HETATM   16  C11 UNL     1      25.164   0.449  52.859  1.00  0.00     0.100 A 
BRANCH  16  17
HETATM   17  O2  UNL     1      26.467   0.599  52.640  1.00  0.00    -0.353 OA
HETATM   18  C12 UNL     1      27.394   1.489  53.134  1.00  0.00     0.210 C 
ENDBRANCH  16  17
BRANCH  11  19
HETATM   19  N2  UNL     1      20.349   0.698  52.613  1.00  0.00    -0.367 N 
HETATM   20  H13 UNL     1      20.961   1.516  52.411  1.00  0.00     0.161 HD
BRANCH  19  21
HETATM   21  C15 UNL     1      19.187   0.388  51.863  1.00  0.00     0.031 A 
HETATM   22  C16 UNL     1      19.004   0.965  50.620  1.00  0.00     0.032 A 
HETATM   23  C17 UNL     1      17.842   0.620  49.931  1.00  0.00     0.046 A 
HETATM   24  C18 UNL     1      16.893  -0.253  50.432  1.00  0.00     0.138 A 
HETATM   25  F1  UNL     1      15.774  -0.573  49.748  1.00  0.00    -0.204 F 
HETATM   26  C19 UNL     1      17.081  -0.823  51.669  1.00  0.00     0.074 A 
HETATM   27 CL1  UNL     1      15.976  -1.936  52.425  1.00  0.00    -0.081 Cl
HETATM   28  C20 UNL     1      18.233  -0.479  52.348  1.00  0.00     0.056 A 
ENDBRANCH  19  21
ENDBRANCH  11  19
ENDBRANCH   6   7
ENDBRANCH   5   6
ENDBRANCH   4   5
ENDBRANCH   3   4
TORSDOF 7
ENDMDL
