MODEL 1
REMARK VINA RESULT:      -8.5      0.000      0.000
REMARK  6 active torsions:
REMARK  status: ('A' for Active; 'I' for Inactive)
REMARK    1  A    between atoms: C8_10  and  N3_11 
REMARK    2  A    between atoms: N3_11  and  C9_12 
REMARK    3  A    between atoms: C16_21  and  N4_22 
REMARK       I    between atoms: N4_22  and  C17_23 
REMARK    4  A    between atoms: C17_23  and  C18_25 
REMARK    5  A    between atoms: C19_26  and  C20_27 
REMARK    6  A    between atoms: C20_27  and  N5_29 
ROOT
HETATM    1  C1  UNL     1      22.304  -1.318  54.913  1.00  0.00     0.046 C 
HETATM    2  C2  UNL     1      21.517  -0.661  53.810  1.00  0.00    -0.054 A 
HETATM    3  C3  UNL     1      20.224  -0.518  53.601  1.00  0.00     0.037 A 
HETATM    4  C4  UNL     1      20.058   0.214  52.351  1.00  0.00     0.067 A 
HETATM    5  N1  UNL     1      18.871   0.553  51.804  1.00  0.00    -0.259 NA
HETATM    6  C5  UNL     1      18.846   1.237  50.633  1.00  0.00     0.142 A 
HETATM    7  C6  UNL     1      20.066   1.549  50.067  1.00  0.00     0.089 A 
HETATM    8  C7  UNL     1      20.029   2.274  48.827  1.00  0.00     0.103 C 
HETATM    9  N2  UNL     1      19.985   2.855  47.828  1.00  0.00    -0.191 NA
HETATM   10  C8  UNL     1      21.284   1.206  50.620  1.00  0.00     0.066 A 
HETATM   11  C15 UNL     1      21.313   0.509  51.812  1.00  0.00     0.026 A 
HETATM   12  C16 UNL     1      22.357  -0.047  52.735  1.00  0.00     0.152 A 
ENDROOT
BRANCH  10  13
HETATM   13  N3  UNL     1      22.531   1.536  50.020  1.00  0.00    -0.354 N 
HETATM   14  H6  UNL     1      23.061   0.899  49.385  1.00  0.00     0.166 HD
BRANCH  13  15
HETATM   15  C9  UNL     1      23.076   2.819  50.314  1.00  0.00     0.034 A 
HETATM   16  C10 UNL     1      22.418   3.669  51.187  1.00  0.00     0.032 A 
HETATM   17  C11 UNL     1      22.978   4.922  51.454  1.00  0.00     0.046 A 
HETATM   18  C12 UNL     1      24.166   5.314  50.865  1.00  0.00     0.138 A 
HETATM   19  F1  UNL     1      24.701   6.530  51.132  1.00  0.00    -0.204 F 
HETATM   20  C13 UNL     1      24.845   4.472  49.983  1.00  0.00     0.074 A 
HETATM   21 CL1  UNL     1      26.354   4.912  49.205  1.00  0.00    -0.081 Cl
HETATM   22  C14 UNL     1      24.268   3.233  49.733  1.00  0.00     0.056 A 
ENDBRANCH  13  15
ENDBRANCH  10  13
BRANCH  12  23
HETATM   23  N4  UNL     1      23.217   0.958  53.283  1.00  0.00    -0.345 N 
HETATM   24  C17 UNL     1      24.575   1.156  52.859  1.00  0.00     0.241 C 
HETATM   25  O1  UNL     1      24.892   0.337  51.957  1.00  0.00    -0.269 OA
HETATM   26  H11 UNL     1      22.813   1.572  54.032  1.00  0.00     0.163 HD
BRANCH  24  27
HETATM   27  C18 UNL     1      25.438   2.184  53.427  1.00  0.00     0.072 C 
HETATM   28  C19 UNL     1      26.575   1.936  54.051  1.00  0.00     0.013 C 
BRANCH  28  29
HETATM   29  C20 UNL     1      27.124   0.594  54.259  1.00  0.00     0.241 C 
HETATM   30  C21 UNL     1      26.421  -0.142  55.373  1.00  0.00     0.047 C 
BRANCH  29  31
HETATM   31  N5  UNL     1      28.549   0.608  54.534  1.00  0.00     0.087 N 
HETATM   32  C22 UNL     1      29.234  -0.447  53.833  1.00  0.00     0.310 C 
HETATM   33  C23 UNL     1      29.145   1.880  54.207  1.00  0.00     0.310 C 
ENDBRANCH  29  31
ENDBRANCH  28  29
ENDBRANCH  24  27
ENDBRANCH  12  23
TORSDOF 6
ENDMDL
MODEL 2
REMARK VINA RESULT:      -8.2      2.773      6.521
REMARK  6 active torsions:
REMARK  status: ('A' for Active; 'I' for Inactive)
REMARK    1  A    between atoms: C8_10  and  N3_11 
REMARK    2  A    between atoms: N3_11  and  C9_12 
REMARK    3  A    between atoms: C16_21  and  N4_22 
REMARK       I    between atoms: N4_22  and  C17_23 
REMARK    4  A    between atoms: C17_23  and  C18_25 
REMARK    5  A    between atoms: C19_26  and  C20_27 
REMARK    6  A    between atoms: C20_27  and  N5_29 
ROOT
HETATM    1  C1  UNL     1      21.624  -1.342  54.815  1.00  0.00     0.046 C 
HETATM    2  C2  UNL     1      22.715  -0.602  54.087  1.00  0.00    -0.054 A 
HETATM    3  C3  UNL     1      24.016  -0.791  54.001  1.00  0.00     0.037 A 
HETATM    4  C4  UNL     1      24.557   0.256  53.143  1.00  0.00     0.067 A 
HETATM    5  N1  UNL     1      25.861   0.395  52.818  1.00  0.00    -0.259 NA
HETATM    6  C5  UNL     1      26.244   1.412  52.008  1.00  0.00     0.142 A 
HETATM    7  C6  UNL     1      25.249   2.258  51.558  1.00  0.00     0.089 A 
HETATM    8  C7  UNL     1      25.664   3.333  50.700  1.00  0.00     0.103 C 
HETATM    9  N2  UNL     1      26.012   4.196  50.011  1.00  0.00    -0.191 NA
HETATM   10  C8  UNL     1      23.915   2.123  51.885  1.00  0.00     0.066 A 
HETATM   11  C15 UNL     1      23.522   1.088  52.711  1.00  0.00     0.026 A 
HETATM   12  C16 UNL     1      22.241   0.580  53.302  1.00  0.00     0.152 A 
ENDROOT
BRANCH  10  13
HETATM   13  N3  UNL     1      22.905   3.007  51.411  1.00  0.00    -0.354 N 
HETATM   14  H6  UNL     1      22.351   3.644  52.024  1.00  0.00     0.166 HD
BRANCH  13  15
HETATM   15  C9  UNL     1      22.646   3.009  50.010  1.00  0.00     0.034 A 
HETATM   16  C10 UNL     1      22.420   1.816  49.345  1.00  0.00     0.032 A 
HETATM   17  C11 UNL     1      22.168   1.852  47.970  1.00  0.00     0.046 A 
HETATM   18  C12 UNL     1      22.144   3.049  47.278  1.00  0.00     0.138 A 
HETATM   19  F1  UNL     1      21.900   3.072  45.945  1.00  0.00    -0.204 F 
HETATM   20  C13 UNL     1      22.370   4.262  47.931  1.00  0.00     0.074 A 
HETATM   21 CL1  UNL     1      22.353   5.811  47.110  1.00  0.00    -0.081 Cl
HETATM   22  C14 UNL     1      22.617   4.201  49.296  1.00  0.00     0.056 A 
ENDBRANCH  13  15
ENDBRANCH  10  13
BRANCH  12  23
HETATM   23  N4  UNL     1      21.286   0.176  52.315  1.00  0.00    -0.345 N 
HETATM   24  C17 UNL     1      20.123   0.948  51.975  1.00  0.00     0.241 C 
HETATM   25  O1  UNL     1      20.065   2.005  52.655  1.00  0.00    -0.269 OA
HETATM   26  H11 UNL     1      21.464  -0.734  51.825  1.00  0.00     0.163 HD
BRANCH  24  27
HETATM   27  C18 UNL     1      19.160   0.523  50.967  1.00  0.00     0.072 C 
HETATM   28  C19 UNL     1      18.011  -0.069  51.242  1.00  0.00     0.013 C 
BRANCH  28  29
HETATM   29  C20 UNL     1      17.549  -0.380  52.596  1.00  0.00     0.241 C 
HETATM   30  C21 UNL     1      18.132  -1.672  53.114  1.00  0.00     0.047 C 
BRANCH  29  31
HETATM   31  N5  UNL     1      16.102  -0.448  52.692  1.00  0.00     0.087 N 
HETATM   32  C22 UNL     1      15.482   0.755  52.201  1.00  0.00     0.310 C 
HETATM   33  C23 UNL     1      15.572  -1.593  51.995  1.00  0.00     0.310 C 
ENDBRANCH  29  31
ENDBRANCH  28  29
ENDBRANCH  24  27
ENDBRANCH  12  23
TORSDOF 6
ENDMDL
MODEL 3
REMARK VINA RESULT:      -8.2      2.286      6.575
REMARK  6 active torsions:
REMARK  status: ('A' for Active; 'I' for Inactive)
REMARK    1  A    between atoms: C8_10  and  N3_11 
REMARK    2  A    between atoms: N3_11  and  C9_12 
REMARK    3  A    between atoms: C16_21  and  N4_22 
REMARK       I    between atoms: N4_22  and  C17_23 
REMARK    4  A    between atoms: C17_23  and  C18_25 
REMARK    5  A    between atoms: C19_26  and  C20_27 
REMARK    6  A    between atoms: C20_27  and  N5_29 
ROOT
HETATM    1  C1  UNL     1      20.179  -0.220  53.338  1.00  0.00     0.046 C 
HETATM    2  C2  UNL     1      21.682  -0.141  53.293  1.00  0.00    -0.054 A 
HETATM    3  C3  UNL     1      22.624  -1.059  53.357  1.00  0.00     0.037 A 
HETATM    4  C4  UNL     1      23.910  -0.378  53.261  1.00  0.00     0.067 A 
HETATM    5  N1  UNL     1      25.114  -0.989  53.290  1.00  0.00    -0.259 NA
HETATM    6  C5  UNL     1      26.243  -0.244  53.191  1.00  0.00     0.142 A 
HETATM    7  C6  UNL     1      26.081   1.121  53.065  1.00  0.00     0.089 A 
HETATM    8  C7  UNL     1      27.283   1.901  52.962  1.00  0.00     0.103 C 
HETATM    9  N2  UNL     1      28.259   2.517  52.882  1.00  0.00    -0.191 NA
HETATM   10  C8  UNL     1      24.854   1.753  53.036  1.00  0.00     0.066 A 
HETATM   11  C15 UNL     1      23.701   0.998  53.136  1.00  0.00     0.026 A 
HETATM   12  C16 UNL     1      22.223   1.246  53.149  1.00  0.00     0.152 A 
ENDROOT
BRANCH  10  13
HETATM   13  N3  UNL     1      24.708   3.162  52.906  1.00  0.00    -0.354 N 
HETATM   14  H6  UNL     1      24.810   3.836  53.697  1.00  0.00     0.166 HD
BRANCH  13  15
HETATM   15  C9  UNL     1      24.403   3.669  51.610  1.00  0.00     0.034 A 
HETATM   16  C10 UNL     1      24.738   2.938  50.483  1.00  0.00     0.032 A 
HETATM   17  C11 UNL     1      24.426   3.463  49.225  1.00  0.00     0.046 A 
HETATM   18  C12 UNL     1      23.794   4.687  49.098  1.00  0.00     0.138 A 
HETATM   19  F1  UNL     1      23.495   5.186  47.874  1.00  0.00    -0.204 F 
HETATM   20  C13 UNL     1      23.447   5.438  50.222  1.00  0.00     0.074 A 
HETATM   21 CL1  UNL     1      22.646   6.995  50.125  1.00  0.00    -0.081 Cl
HETATM   22  C14 UNL     1      23.768   4.896  51.460  1.00  0.00     0.056 A 
ENDBRANCH  13  15
ENDBRANCH  10  13
BRANCH  12  23
HETATM   23  N4  UNL     1      21.742   1.848  51.942  1.00  0.00    -0.345 N 
HETATM   24  C17 UNL     1      20.802   2.935  51.918  1.00  0.00     0.241 C 
HETATM   25  O1  UNL     1      20.469   3.272  53.084  1.00  0.00    -0.269 OA
HETATM   26  H11 UNL     1      22.109   1.461  51.039  1.00  0.00     0.163 HD
BRANCH  24  27
HETATM   27  C18 UNL     1      20.323   3.537  50.681  1.00  0.00     0.072 C 
HETATM   28  C19 UNL     1      19.137   3.296  50.149  1.00  0.00     0.013 C 
BRANCH  28  29
HETATM   29  C20 UNL     1      18.144   2.390  50.729  1.00  0.00     0.241 C 
HETATM   30  C21 UNL     1      18.123   1.049  50.037  1.00  0.00     0.047 C 
BRANCH  29  31
HETATM   31  N5  UNL     1      16.803   2.945  50.715  1.00  0.00     0.087 N 
HETATM   32  C22 UNL     1      16.676   4.044  51.636  1.00  0.00     0.310 C 
HETATM   33  C23 UNL     1      16.412   3.365  49.392  1.00  0.00     0.310 C 
ENDBRANCH  29  31
ENDBRANCH  28  29
ENDBRANCH  24  27
ENDBRANCH  12  23
TORSDOF 6
ENDMDL
MODEL 4
REMARK VINA RESULT:      -7.8      3.289      6.581
REMARK  6 active torsions:
REMARK  status: ('A' for Active; 'I' for Inactive)
REMARK    1  A    between atoms: C8_10  and  N3_11 
REMARK    2  A    between atoms: N3_11  and  C9_12 
REMARK    3  A    between atoms: C16_21  and  N4_22 
REMARK       I    between atoms: N4_22  and  C17_23 
REMARK    4  A    between atoms: C17_23  and  C18_25 
REMARK    5  A    between atoms: C19_26  and  C20_27 
REMARK    6  A    between atoms: C20_27  and  N5_29 
ROOT
HETATM    1  C1  UNL     1      26.790   3.744  49.635  1.00  0.00     0.046 C 
HETATM    2  C2  UNL     1      26.154   2.771  50.593  1.00  0.00    -0.054 A 
HETATM    3  C3  UNL     1      26.624   1.728  51.247  1.00  0.00     0.037 A 
HETATM    4  C4  UNL     1      25.529   1.171  52.031  1.00  0.00     0.067 A 
HETATM    5  N1  UNL     1      25.624   0.090  52.835  1.00  0.00    -0.259 NA
HETATM    6  C5  UNL     1      24.532  -0.335  53.517  1.00  0.00     0.142 A 
HETATM    7  C6  UNL     1      23.367   0.385  53.338  1.00  0.00     0.089 A 
HETATM    8  C7  UNL     1      22.215  -0.072  54.064  1.00  0.00     0.103 C 
HETATM    9  N2  UNL     1      21.294  -0.453  54.652  1.00  0.00    -0.191 NA
HETATM   10  C8  UNL     1      23.261   1.490  52.517  1.00  0.00     0.066 A 
HETATM   11  C15 UNL     1      24.372   1.926  51.822  1.00  0.00     0.026 A 
HETATM   12  C16 UNL     1      24.705   3.029  50.862  1.00  0.00     0.152 A 
ENDROOT
BRANCH  10  13
HETATM   13  N3  UNL     1      22.051   2.218  52.346  1.00  0.00    -0.354 N 
HETATM   14  H6  UNL     1      21.555   2.718  53.117  1.00  0.00     0.166 HD
BRANCH  13  15
HETATM   15  C9  UNL     1      21.494   2.258  51.036  1.00  0.00     0.034 A 
HETATM   16  C10 UNL     1      21.553   1.139  50.222  1.00  0.00     0.032 A 
HETATM   17  C11 UNL     1      20.998   1.210  48.941  1.00  0.00     0.046 A 
HETATM   18  C12 UNL     1      20.398   2.370  48.485  1.00  0.00     0.138 A 
HETATM   19  F1  UNL     1      19.862   2.428  47.242  1.00  0.00    -0.204 F 
HETATM   20  C13 UNL     1      20.327   3.508  49.290  1.00  0.00     0.074 A 
HETATM   21 CL1  UNL     1      19.581   5.007  48.769  1.00  0.00    -0.081 Cl
HETATM   22  C14 UNL     1      20.886   3.413  50.558  1.00  0.00     0.056 A 
ENDBRANCH  13  15
ENDBRANCH  10  13
BRANCH  12  23
HETATM   23  N4  UNL     1      24.523   4.335  51.420  1.00  0.00    -0.345 N 
HETATM   24  C17 UNL     1      23.916   5.424  50.706  1.00  0.00     0.241 C 
HETATM   25  O1  UNL     1      23.577   5.073  49.546  1.00  0.00    -0.269 OA
HETATM   26  H11 UNL     1      24.857   4.482  52.403  1.00  0.00     0.163 HD
BRANCH  24  27
HETATM   27  C18 UNL     1      23.738   6.748  51.288  1.00  0.00     0.072 C 
HETATM   28  C19 UNL     1      24.342   7.838  50.849  1.00  0.00     0.013 C 
BRANCH  28  29
HETATM   29  C20 UNL     1      25.274   7.865  49.720  1.00  0.00     0.241 C 
HETATM   30  C21 UNL     1      26.610   8.454  50.098  1.00  0.00     0.047 C 
BRANCH  29  31
HETATM   31  N5  UNL     1      24.749   8.591  48.578  1.00  0.00     0.087 N 
HETATM   32  C22 UNL     1      25.552   9.746  48.270  1.00  0.00     0.310 C 
HETATM   33  C23 UNL     1      24.634   7.749  47.414  1.00  0.00     0.310 C 
ENDBRANCH  29  31
ENDBRANCH  28  29
ENDBRANCH  24  27
ENDBRANCH  12  23
TORSDOF 6
ENDMDL
MODEL 5
REMARK VINA RESULT:      -7.4      8.384     11.525
REMARK  6 active torsions:
REMARK  status: ('A' for Active; 'I' for Inactive)
REMARK    1  A    between atoms: C8_10  and  N3_11 
REMARK    2  A    between atoms: N3_11  and  C9_12 
REMARK    3  A    between atoms: C16_21  and  N4_22 
REMARK       I    between atoms: N4_22  and  C17_23 
REMARK    4  A    between atoms: C17_23  and  C18_25 
REMARK    5  A    between atoms: C19_26  and  C20_27 
REMARK    6  A    between atoms: C20_27  and  N5_29 
ROOT
HETATM    1  C1  UNL     1      33.961   9.730  47.118  1.00  0.00     0.046 C 
HETATM    2  C2  UNL     1      32.576  10.318  47.051  1.00  0.00    -0.054 A 
HETATM    3  C3  UNL     1      32.016  11.190  46.239  1.00  0.00     0.037 A 
HETATM    4  C4  UNL     1      30.636  11.372  46.673  1.00  0.00     0.067 A 
HETATM    5  N1  UNL     1      29.741  12.195  46.083  1.00  0.00    -0.259 NA
HETATM    6  C5  UNL     1      28.482  12.278  46.580  1.00  0.00     0.142 A 
HETATM    7  C6  UNL     1      28.193  11.498  47.682  1.00  0.00     0.089 A 
HETATM    8  C7  UNL     1      26.857  11.593  48.201  1.00  0.00     0.103 C 
HETATM    9  N2  UNL     1      25.778  11.682  48.610  1.00  0.00    -0.191 NA
HETATM   10  C8  UNL     1      29.103  10.656  48.290  1.00  0.00     0.066 A 
HETATM   11  C15 UNL     1      30.386  10.568  47.787  1.00  0.00     0.026 A 
HETATM   12  C16 UNL     1      31.644   9.820  48.112  1.00  0.00     0.152 A 
ENDROOT
BRANCH  10  13
HETATM   13  N3  UNL     1      28.785   9.860  49.426  1.00  0.00    -0.354 N 
HETATM   14  H6  UNL     1      29.111  10.068  50.396  1.00  0.00     0.166 HD
BRANCH  13  15
HETATM   15  C9  UNL     1      27.972   8.710  49.210  1.00  0.00     0.034 A 
HETATM   16  C10 UNL     1      28.292   7.813  48.204  1.00  0.00     0.032 A 
HETATM   17  C11 UNL     1      27.474   6.695  48.017  1.00  0.00     0.046 A 
HETATM   18  C12 UNL     1      26.366   6.478  48.815  1.00  0.00     0.138 A 
HETATM   19  F1  UNL     1      25.580   5.390  48.625  1.00  0.00    -0.204 F 
HETATM   20  C13 UNL     1      26.027   7.369  49.834  1.00  0.00     0.074 A 
HETATM   21 CL1  UNL     1      24.635   7.149  50.878  1.00  0.00    -0.081 Cl
HETATM   22  C14 UNL     1      26.854   8.473  50.000  1.00  0.00     0.056 A 
ENDBRANCH  13  15
ENDBRANCH  10  13
BRANCH  12  23
HETATM   23  N4  UNL     1      31.495   8.399  48.020  1.00  0.00    -0.345 N 
HETATM   24  C17 UNL     1      31.782   7.501  49.105  1.00  0.00     0.241 C 
HETATM   25  O1  UNL     1      32.176   8.129  50.121  1.00  0.00    -0.269 OA
HETATM   26  H11 UNL     1      31.155   8.014  47.106  1.00  0.00     0.163 HD
BRANCH  24  27
HETATM   27  C18 UNL     1      31.624   6.056  48.996  1.00  0.00     0.072 C 
HETATM   28  C19 UNL     1      32.429   5.273  48.300  1.00  0.00     0.013 C 
BRANCH  28  29
HETATM   29  C20 UNL     1      33.587   5.748  47.541  1.00  0.00     0.241 C 
HETATM   30  C21 UNL     1      33.374   5.641  46.051  1.00  0.00     0.047 C 
BRANCH  29  31
HETATM   31  N5  UNL     1      34.810   5.050  47.889  1.00  0.00     0.087 N 
HETATM   32  C22 UNL     1      35.320   5.481  49.166  1.00  0.00     0.310 C 
HETATM   33  C23 UNL     1      34.629   3.620  47.891  1.00  0.00     0.310 C 
ENDBRANCH  29  31
ENDBRANCH  28  29
ENDBRANCH  24  27
ENDBRANCH  12  23
TORSDOF 6
ENDMDL
MODEL 6
REMARK VINA RESULT:      -7.4      3.609      6.006
REMARK  6 active torsions:
REMARK  status: ('A' for Active; 'I' for Inactive)
REMARK    1  A    between atoms: C8_10  and  N3_11 
REMARK    2  A    between atoms: N3_11  and  C9_12 
REMARK    3  A    between atoms: C16_21  and  N4_22 
REMARK       I    between atoms: N4_22  and  C17_23 
REMARK    4  A    between atoms: C17_23  and  C18_25 
REMARK    5  A    between atoms: C19_26  and  C20_27 
REMARK    6  A    between atoms: C20_27  and  N5_29 
ROOT
HETATM    1  C1  UNL     1      22.263   1.662  48.200  1.00  0.00     0.046 C 
HETATM    2  C2  UNL     1      22.373   3.136  47.910  1.00  0.00    -0.054 A 
HETATM    3  C3  UNL     1      21.737   3.929  47.072  1.00  0.00     0.037 A 
HETATM    4  C4  UNL     1      22.279   5.272  47.240  1.00  0.00     0.067 A 
HETATM    5  N1  UNL     1      21.876   6.361  46.550  1.00  0.00    -0.259 NA
HETATM    6  C5  UNL     1      22.458   7.561  46.797  1.00  0.00     0.142 A 
HETATM    7  C6  UNL     1      23.447   7.588  47.759  1.00  0.00     0.089 A 
HETATM    8  C7  UNL     1      24.058   8.863  48.013  1.00  0.00     0.103 C 
HETATM    9  N2  UNL     1      24.544   9.896  48.205  1.00  0.00    -0.191 NA
HETATM   10  C8  UNL     1      23.865   6.479  48.468  1.00  0.00     0.066 A 
HETATM   11  C15 UNL     1      23.274   5.255  48.220  1.00  0.00     0.026 A 
HETATM   12  C16 UNL     1      23.404   3.850  48.726  1.00  0.00     0.152 A 
ENDROOT
BRANCH  10  13
HETATM   13  N3  UNL     1      24.888   6.528  49.456  1.00  0.00    -0.354 N 
HETATM   14  H6  UNL     1      24.718   6.744  50.463  1.00  0.00     0.166 HD
BRANCH  13  15
HETATM   15  C9  UNL     1      26.221   6.262  49.029  1.00  0.00     0.034 A 
HETATM   16  C10 UNL     1      26.695   4.961  49.006  1.00  0.00     0.032 A 
HETATM   17  C11 UNL     1      28.008   4.733  48.582  1.00  0.00     0.046 A 
HETATM   18  C12 UNL     1      28.825   5.778  48.191  1.00  0.00     0.138 A 
HETATM   19  F1  UNL     1      30.096   5.546  47.782  1.00  0.00    -0.204 F 
HETATM   20  C13 UNL     1      28.365   7.096  48.207  1.00  0.00     0.074 A 
HETATM   21 CL1  UNL     1      29.352   8.462  47.724  1.00  0.00    -0.081 Cl
HETATM   22  C14 UNL     1      27.058   7.297  48.632  1.00  0.00     0.056 A 
ENDBRANCH  13  15
ENDBRANCH  10  13
BRANCH  12  23
HETATM   23  N4  UNL     1      23.112   3.725  50.123  1.00  0.00    -0.345 N 
HETATM   24  C17 UNL     1      24.015   3.134  51.071  1.00  0.00     0.241 C 
HETATM   25  O1  UNL     1      25.074   2.750  50.511  1.00  0.00    -0.269 OA
HETATM   26  H11 UNL     1      22.185   4.092  50.449  1.00  0.00     0.163 HD
BRANCH  24  27
HETATM   27  C18 UNL     1      23.702   3.015  52.490  1.00  0.00     0.072 C 
HETATM   28  C19 UNL     1      23.273   1.905  53.064  1.00  0.00     0.013 C 
BRANCH  28  29
HETATM   29  C20 UNL     1      23.050   0.644  52.354  1.00  0.00     0.241 C 
HETATM   30  C21 UNL     1      21.603   0.456  51.968  1.00  0.00     0.047 C 
BRANCH  29  31
HETATM   31  N5  UNL     1      23.485  -0.512  53.115  1.00  0.00     0.087 N 
HETATM   32  C22 UNL     1      24.764  -0.286  53.737  1.00  0.00     0.310 C 
HETATM   33  C23 UNL     1      22.515  -0.892  54.112  1.00  0.00     0.310 C 
ENDBRANCH  29  31
ENDBRANCH  28  29
ENDBRANCH  24  27
ENDBRANCH  12  23
TORSDOF 6
ENDMDL
MODEL 7
REMARK VINA RESULT:      -7.3      2.083      2.710
REMARK  6 active torsions:
REMARK  status: ('A' for Active; 'I' for Inactive)
REMARK    1  A    between atoms: C8_10  and  N3_11 
REMARK    2  A    between atoms: N3_11  and  C9_12 
REMARK    3  A    between atoms: C16_21  and  N4_22 
REMARK       I    between atoms: N4_22  and  C17_23 
REMARK    4  A    between atoms: C17_23  and  C18_25 
REMARK    5  A    between atoms: C19_26  and  C20_27 
REMARK    6  A    between atoms: C20_27  and  N5_29 
ROOT
HETATM    1  C1  UNL     1      20.523   0.761  53.499  1.00  0.00     0.046 C 
HETATM    2  C2  UNL     1      20.301   1.836  52.468  1.00  0.00    -0.054 A 
HETATM    3  C3  UNL     1      19.245   2.551  52.139  1.00  0.00     0.037 A 
HETATM    4  C4  UNL     1      19.638   3.444  51.056  1.00  0.00     0.067 A 
HETATM    5  N1  UNL     1      18.821   4.334  50.450  1.00  0.00    -0.259 NA
HETATM    6  C5  UNL     1      19.305   5.113  49.452  1.00  0.00     0.142 A 
HETATM    7  C6  UNL     1      20.632   4.941  49.114  1.00  0.00     0.089 A 
HETATM    8  C7  UNL     1      21.135   5.770  48.055  1.00  0.00     0.103 C 
HETATM    9  N2  UNL     1      21.527   6.444  47.198  1.00  0.00    -0.191 NA
HETATM   10  C8  UNL     1      21.473   4.033  49.727  1.00  0.00     0.066 A 
HETATM   11  C15 UNL     1      20.984   3.238  50.745  1.00  0.00     0.026 A 
HETATM   12  C16 UNL     1      21.511   2.167  51.652  1.00  0.00     0.152 A 
ENDROOT
BRANCH  10  13
HETATM   13  N3  UNL     1      22.839   3.870  49.363  1.00  0.00    -0.354 N 
HETATM   14  H6  UNL     1      23.215   3.036  48.862  1.00  0.00     0.166 HD
BRANCH  13  15
HETATM   15  C9  UNL     1      23.737   4.921  49.711  1.00  0.00     0.034 A 
HETATM   16  C10 UNL     1      23.486   5.707  50.824  1.00  0.00     0.032 A 
HETATM   17  C11 UNL     1      24.385   6.730  51.139  1.00  0.00     0.046 A 
HETATM   18  C12 UNL     1      25.506   6.961  50.363  1.00  0.00     0.138 A 
HETATM   19  F1  UNL     1      26.372   7.955  50.678  1.00  0.00    -0.204 F 
HETATM   20  C13 UNL     1      25.777   6.179  49.239  1.00  0.00     0.074 A 
HETATM   21 CL1  UNL     1      27.180   6.423  48.215  1.00  0.00    -0.081 Cl
HETATM   22  C14 UNL     1      24.868   5.170  48.946  1.00  0.00     0.056 A 
ENDBRANCH  13  15
ENDBRANCH  10  13
BRANCH  12  23
HETATM   23  N4  UNL     1      22.577   2.617  52.496  1.00  0.00    -0.345 N 
HETATM   24  C17 UNL     1      23.962   2.326  52.246  1.00  0.00     0.241 C 
HETATM   25  O1  UNL     1      24.099   1.633  51.205  1.00  0.00    -0.269 OA
HETATM   26  H11 UNL     1      22.311   3.189  53.334  1.00  0.00     0.163 HD
BRANCH  24  27
HETATM   27  C18 UNL     1      25.036   2.792  53.114  1.00  0.00     0.072 C 
HETATM   28  C19 UNL     1      25.880   1.994  53.743  1.00  0.00     0.013 C 
BRANCH  28  29
HETATM   29  C20 UNL     1      25.852   0.533  53.656  1.00  0.00     0.241 C 
HETATM   30  C21 UNL     1      25.961  -0.121  55.011  1.00  0.00     0.047 C 
BRANCH  29  31
HETATM   31  N5  UNL     1      26.894   0.003  52.796  1.00  0.00     0.087 N 
HETATM   32  C22 UNL     1      28.205   0.269  53.328  1.00  0.00     0.310 C 
HETATM   33  C23 UNL     1      26.734  -1.412  52.570  1.00  0.00     0.310 C 
ENDBRANCH  29  31
ENDBRANCH  28  29
ENDBRANCH  24  27
ENDBRANCH  12  23
TORSDOF 6
ENDMDL
MODEL 8
REMARK VINA RESULT:      -7.2      3.428      6.639
REMARK  6 active torsions:
REMARK  status: ('A' for Active; 'I' for Inactive)
REMARK    1  A    between atoms: C8_10  and  N3_11 
REMARK    2  A    between atoms: N3_11  and  C9_12 
REMARK    3  A    between atoms: C16_21  and  N4_22 
REMARK       I    between atoms: N4_22  and  C17_23 
REMARK    4  A    between atoms: C17_23  and  C18_25 
REMARK    5  A    between atoms: C19_26  and  C20_27 
REMARK    6  A    between atoms: C20_27  and  N5_29 
ROOT
HETATM    1  C1  UNL     1      24.512   1.653  52.507  1.00  0.00     0.046 C 
HETATM    2  C2  UNL     1      25.170   2.589  51.528  1.00  0.00    -0.054 A 
HETATM    3  C3  UNL     1      26.288   2.513  50.836  1.00  0.00     0.037 A 
HETATM    4  C4  UNL     1      26.403   3.736  50.050  1.00  0.00     0.067 A 
HETATM    5  N1  UNL     1      27.422   4.025  49.211  1.00  0.00    -0.259 NA
HETATM    6  C5  UNL     1      27.417   5.199  48.533  1.00  0.00     0.142 A 
HETATM    7  C6  UNL     1      26.343   6.039  48.750  1.00  0.00     0.089 A 
HETATM    8  C7  UNL     1      26.347   7.281  48.027  1.00  0.00     0.103 C 
HETATM    9  N2  UNL     1      26.363   8.278  47.440  1.00  0.00    -0.191 NA
HETATM   10  C8  UNL     1      25.299   5.752  49.606  1.00  0.00     0.066 A 
HETATM   11  C15 UNL     1      25.301   4.557  50.299  1.00  0.00     0.026 A 
HETATM   12  C16 UNL     1      24.416   3.859  51.288  1.00  0.00     0.152 A 
ENDROOT
BRANCH  10  13
HETATM   13  N3  UNL     1      24.202   6.633  49.817  1.00  0.00    -0.354 N 
HETATM   14  H6  UNL     1      24.211   7.427  50.495  1.00  0.00     0.166 HD
BRANCH  13  15
HETATM   15  C9  UNL     1      23.025   6.405  49.047  1.00  0.00     0.034 A 
HETATM   16  C10 UNL     1      21.818   6.955  49.446  1.00  0.00     0.032 A 
HETATM   17  C11 UNL     1      20.681   6.713  48.669  1.00  0.00     0.046 A 
HETATM   18  C12 UNL     1      20.749   5.941  47.524  1.00  0.00     0.138 A 
HETATM   19  F1  UNL     1      19.640   5.712  46.778  1.00  0.00    -0.204 F 
HETATM   20  C13 UNL     1      21.955   5.378  47.105  1.00  0.00     0.074 A 
HETATM   21 CL1  UNL     1      22.105   4.390  45.664  1.00  0.00    -0.081 Cl
HETATM   22  C14 UNL     1      23.070   5.633  47.894  1.00  0.00     0.056 A 
ENDBRANCH  13  15
ENDBRANCH  10  13
BRANCH  12  23
HETATM   23  N4  UNL     1      23.110   3.576  50.774  1.00  0.00    -0.345 N 
HETATM   24  C17 UNL     1      21.896   3.974  51.432  1.00  0.00     0.241 C 
HETATM   25  O1  UNL     1      22.141   4.591  52.501  1.00  0.00    -0.269 OA
HETATM   26  H11 UNL     1      23.059   3.051  49.867  1.00  0.00     0.163 HD
BRANCH  24  27
HETATM   27  C18 UNL     1      20.574   3.679  50.895  1.00  0.00     0.072 C 
HETATM   28  C19 UNL     1      19.958   2.518  51.035  1.00  0.00     0.013 C 
BRANCH  28  29
HETATM   29  C20 UNL     1      20.521   1.369  51.748  1.00  0.00     0.241 C 
HETATM   30  C21 UNL     1      21.205   0.400  50.815  1.00  0.00     0.047 C 
BRANCH  29  31
HETATM   31  N5  UNL     1      19.528   0.650  52.524  1.00  0.00     0.087 N 
HETATM   32  C22 UNL     1      18.663  -0.133  51.681  1.00  0.00     0.310 C 
HETATM   33  C23 UNL     1      20.137  -0.195  53.521  1.00  0.00     0.310 C 
ENDBRANCH  29  31
ENDBRANCH  28  29
ENDBRANCH  24  27
ENDBRANCH  12  23
TORSDOF 6
ENDMDL
MODEL 9
REMARK VINA RESULT:      -7.1      4.672      7.215
REMARK  6 active torsions:
REMARK  status: ('A' for Active; 'I' for Inactive)
REMARK    1  A    between atoms: C8_10  and  N3_11 
REMARK    2  A    between atoms: N3_11  and  C9_12 
REMARK    3  A    between atoms: C16_21  and  N4_22 
REMARK       I    between atoms: N4_22  and  C17_23 
REMARK    4  A    between atoms: C17_23  and  C18_25 
REMARK    5  A    between atoms: C19_26  and  C20_27 
REMARK    6  A    between atoms: C20_27  and  N5_29 
ROOT
HETATM    1  C1  UNL     1      27.829   4.763  48.601  1.00  0.00     0.046 C 
HETATM    2  C2  UNL     1      26.686   4.178  49.386  1.00  0.00    -0.054 A 
HETATM    3  C3  UNL     1      26.516   3.015  49.981  1.00  0.00     0.037 A 
HETATM    4  C4  UNL     1      25.189   3.021  50.587  1.00  0.00     0.067 A 
HETATM    5  N1  UNL     1      24.654   1.998  51.287  1.00  0.00    -0.259 NA
HETATM    6  C5  UNL     1      23.407   2.122  51.805  1.00  0.00     0.142 A 
HETATM    7  C6  UNL     1      22.753   3.317  51.575  1.00  0.00     0.089 A 
HETATM    8  C7  UNL     1      21.432   3.439  52.126  1.00  0.00     0.103 C 
HETATM    9  N2  UNL     1      20.369   3.523  52.574  1.00  0.00    -0.191 NA
HETATM   10  C8  UNL     1      23.293   4.367  50.859  1.00  0.00     0.066 A 
HETATM   11  C15 UNL     1      24.563   4.243  50.331  1.00  0.00     0.026 A 
HETATM   12  C16 UNL     1      25.505   5.087  49.524  1.00  0.00     0.152 A 
ENDROOT
BRANCH  10  13
HETATM   13  N3  UNL     1      22.602   5.590  50.633  1.00  0.00    -0.354 N 
HETATM   14  H6  UNL     1      22.435   6.312  51.368  1.00  0.00     0.166 HD
BRANCH  13  15
HETATM   15  C9  UNL     1      22.115   5.829  49.316  1.00  0.00     0.034 A 
HETATM   16  C10 UNL     1      21.598   4.784  48.567  1.00  0.00     0.032 A 
HETATM   17  C11 UNL     1      21.127   5.051  47.278  1.00  0.00     0.046 A 
HETATM   18  C12 UNL     1      21.171   6.329  46.751  1.00  0.00     0.138 A 
HETATM   19  F1  UNL     1      20.712   6.577  45.501  1.00  0.00    -0.204 F 
HETATM   20  C13 UNL     1      21.687   7.395  47.490  1.00  0.00     0.074 A 
HETATM   21 CL1  UNL     1      21.770   9.036  46.877  1.00  0.00    -0.081 Cl
HETATM   22  C14 UNL     1      22.149   7.105  48.767  1.00  0.00     0.056 A 
ENDBRANCH  13  15
ENDBRANCH  10  13
BRANCH  12  23
HETATM   23  N4  UNL     1      25.881   6.300  50.184  1.00  0.00    -0.345 N 
HETATM   24  C17 UNL     1      25.878   7.586  49.542  1.00  0.00     0.241 C 
HETATM   25  O1  UNL     1      25.507   7.492  48.343  1.00  0.00    -0.269 OA
HETATM   26  H11 UNL     1      26.169   6.225  51.190  1.00  0.00     0.163 HD
BRANCH  24  27
HETATM   27  C18 UNL     1      26.263   8.812  50.228  1.00  0.00     0.072 C 
HETATM   28  C19 UNL     1      27.407   9.444  50.031  1.00  0.00     0.013 C 
BRANCH  28  29
HETATM   29  C20 UNL     1      28.444   8.998  49.099  1.00  0.00     0.241 C 
HETATM   30  C21 UNL     1      29.824   9.419  49.539  1.00  0.00     0.047 C 
BRANCH  29  31
HETATM   31  N5  UNL     1      28.220   9.471  47.745  1.00  0.00     0.087 N 
HETATM   32  C22 UNL     1      28.874  10.732  47.509  1.00  0.00     0.310 C 
HETATM   33  C23 UNL     1      28.648   8.505  46.763  1.00  0.00     0.310 C 
ENDBRANCH  29  31
ENDBRANCH  28  29
ENDBRANCH  24  27
ENDBRANCH  12  23
TORSDOF 6
ENDMDL
