MODEL 1
REMARK VINA RESULT:      -7.3      0.000      0.000
REMARK  7 active torsions:
REMARK  status: ('A' for Active; 'I' for Inactive)
REMARK    1  A    between atoms: C2_2  and  C3_3 
REMARK    2  A    between atoms: C3_3  and  C4_4 
REMARK    3  A    between atoms: C4_4  and  C5_5 
REMARK    4  A    between atoms: C5_5  and  C7_7 
REMARK    5  A    between atoms: C7_7  and  C8_8 
REMARK       I    between atoms: C8_8  and  N1_10 
REMARK    6  A    between atoms: N1_10  and  S1_11 
REMARK    7  A    between atoms: S1_11  and  C9_14 
ROOT
HETATM    1  C8  UNL     1      24.991   2.204  52.623  1.00  0.00     0.235 C 
HETATM    2  O1  UNL     1      25.614   2.101  51.513  1.00  0.00    -0.272 OA
HETATM    3  N1  UNL     1      25.893   2.206  53.738  1.00  0.00    -0.250 N 
HETATM    4  H10 UNL     1      25.487   2.286  54.701  1.00  0.00     0.181 HD
ENDROOT
BRANCH   3   5
HETATM    5  S1  UNL     1      27.532   2.064  53.171  1.00  0.00     0.265 S 
HETATM    6  O2  UNL     1      27.642   2.647  51.785  1.00  0.00    -0.200 OA
HETATM    7  O3  UNL     1      28.403   2.813  54.133  1.00  0.00    -0.200 OA
BRANCH   5   8
HETATM    8  C9  UNL     1      27.989   0.377  53.172  1.00  0.00     0.080 A 
HETATM    9  C10 UNL     1      27.025  -0.517  52.783  1.00  0.00     0.028 A 
HETATM   10  C11 UNL     1      27.226  -1.891  52.728  1.00  0.00     0.044 A 
HETATM   11  C12 UNL     1      28.480  -2.353  53.094  1.00  0.00     0.116 A 
HETATM   12  F1  UNL     1      28.701  -3.680  53.051  1.00  0.00    -0.206 F 
HETATM   13  C13 UNL     1      29.476  -1.466  53.494  1.00  0.00     0.044 A 
HETATM   14  C14 UNL     1      29.235  -0.098  53.534  1.00  0.00     0.028 A 
ENDBRANCH   5   8
ENDBRANCH   3   5
BRANCH   1  15
HETATM   15  C7  UNL     1      23.506   2.313  52.768  1.00  0.00     0.137 C 
BRANCH  15  16
HETATM   16  C5  UNL     1      22.955   0.991  52.369  1.00  0.00    -0.074 C 
HETATM   17  C6  UNL     1      21.963   0.981  51.266  1.00  0.00     0.044 C 
BRANCH  16  18
HETATM   18  C4  UNL     1      23.328  -0.131  52.965  1.00  0.00     0.011 C 
BRANCH  18  19
HETATM   19  C3  UNL     1      22.775  -0.515  54.230  1.00  0.00     0.051 C 
BRANCH  19  20
HETATM   20  C2  UNL     1      21.590  -1.105  54.286  1.00  0.00    -0.155 C 
HETATM   21  C1  UNL     1      20.351  -1.542  54.133  1.00  0.00     0.096 C 
ENDBRANCH  19  20
ENDBRANCH  18  19
ENDBRANCH  16  18
ENDBRANCH  15  16
ENDBRANCH   1  15
TORSDOF 7
ENDMDL
MODEL 2
REMARK VINA RESULT:      -7.2      3.696      6.262
REMARK  7 active torsions:
REMARK  status: ('A' for Active; 'I' for Inactive)
REMARK    1  A    between atoms: C2_2  and  C3_3 
REMARK    2  A    between atoms: C3_3  and  C4_4 
REMARK    3  A    between atoms: C4_4  and  C5_5 
REMARK    4  A    between atoms: C5_5  and  C7_7 
REMARK    5  A    between atoms: C7_7  and  C8_8 
REMARK       I    between atoms: C8_8  and  N1_10 
REMARK    6  A    between atoms: N1_10  and  S1_11 
REMARK    7  A    between atoms: S1_11  and  C9_14 
ROOT
HETATM    1  C8  UNL     1      26.550   1.196  52.550  1.00  0.00     0.235 C 
HETATM    2  O1  UNL     1      26.422   0.072  51.959  1.00  0.00    -0.272 OA
HETATM    3  N1  UNL     1      26.095   1.135  53.908  1.00  0.00    -0.250 N 
HETATM    4  H10 UNL     1      26.156   2.005  54.488  1.00  0.00     0.181 HD
ENDROOT
BRANCH   3   5
HETATM    5  S1  UNL     1      25.524  -0.469  54.268  1.00  0.00     0.265 S 
HETATM    6  O2  UNL     1      26.267  -1.473  53.423  1.00  0.00    -0.200 OA
HETATM    7  O3  UNL     1      25.771  -0.714  55.725  1.00  0.00    -0.200 OA
BRANCH   5   8
HETATM    8  C9  UNL     1      23.806  -0.544  53.952  1.00  0.00     0.080 A 
HETATM    9  C10 UNL     1      23.042  -1.196  54.886  1.00  0.00     0.028 A 
HETATM   10  C11 UNL     1      21.665  -1.344  54.784  1.00  0.00     0.044 A 
HETATM   11  C12 UNL     1      21.058  -0.792  53.668  1.00  0.00     0.116 A 
HETATM   12  F1  UNL     1      19.724  -0.921  53.545  1.00  0.00    -0.206 F 
HETATM   13  C13 UNL     1      21.811  -0.126  52.705  1.00  0.00     0.044 A 
HETATM   14  C14 UNL     1      23.189   0.001  52.843  1.00  0.00     0.028 A 
ENDBRANCH   5   8
ENDBRANCH   3   5
BRANCH   1  15
HETATM   15  C7  UNL     1      27.105   2.437  51.924  1.00  0.00     0.137 C 
BRANCH  15  16
HETATM   16  C5  UNL     1      26.134   2.838  50.873  1.00  0.00    -0.074 C 
HETATM   17  C6  UNL     1      24.705   2.908  51.267  1.00  0.00     0.044 C 
BRANCH  16  18
HETATM   18  C4  UNL     1      26.518   3.122  49.638  1.00  0.00     0.011 C 
BRANCH  18  19
HETATM   19  C3  UNL     1      26.607   4.480  49.187  1.00  0.00     0.051 C 
BRANCH  19  20
HETATM   20  C2  UNL     1      27.720   4.920  48.620  1.00  0.00    -0.155 C 
HETATM   21  C1  UNL     1      28.861   5.497  48.278  1.00  0.00     0.096 C 
ENDBRANCH  19  20
ENDBRANCH  18  19
ENDBRANCH  16  18
ENDBRANCH  15  16
ENDBRANCH   1  15
TORSDOF 7
ENDMDL
MODEL 3
REMARK VINA RESULT:      -7.0      0.902      2.585
REMARK  7 active torsions:
REMARK  status: ('A' for Active; 'I' for Inactive)
REMARK    1  A    between atoms: C2_2  and  C3_3 
REMARK    2  A    between atoms: C3_3  and  C4_4 
REMARK    3  A    between atoms: C4_4  and  C5_5 
REMARK    4  A    between atoms: C5_5  and  C7_7 
REMARK    5  A    between atoms: C7_7  and  C8_8 
REMARK       I    between atoms: C8_8  and  N1_10 
REMARK    6  A    between atoms: N1_10  and  S1_11 
REMARK    7  A    between atoms: S1_11  and  C9_14 
ROOT
HETATM    1  C8  UNL     1      24.852   2.089  52.673  1.00  0.00     0.235 C 
HETATM    2  O1  UNL     1      25.428   1.830  51.564  1.00  0.00    -0.272 OA
HETATM    3  N1  UNL     1      25.801   2.265  53.734  1.00  0.00    -0.250 N 
HETATM    4  H10 UNL     1      25.436   2.483  54.692  1.00  0.00     0.181 HD
ENDROOT
BRANCH   3   5
HETATM    5  S1  UNL     1      27.416   2.058  53.120  1.00  0.00     0.265 S 
HETATM    6  O2  UNL     1      27.510   2.638  51.732  1.00  0.00    -0.200 OA
HETATM    7  O3  UNL     1      28.343   2.770  54.057  1.00  0.00    -0.200 OA
BRANCH   5   8
HETATM    8  C9  UNL     1      27.804   0.353  53.108  1.00  0.00     0.080 A 
HETATM    9  C10 UNL     1      29.036   0.004  53.599  1.00  0.00     0.028 A 
HETATM   10  C11 UNL     1      29.497  -1.305  53.659  1.00  0.00     0.044 A 
HETATM   11  C12 UNL     1      28.644  -2.290  53.189  1.00  0.00     0.116 A 
HETATM   12  F1  UNL     1      29.066  -3.566  53.236  1.00  0.00    -0.206 F 
HETATM   13  C13 UNL     1      27.388  -1.962  52.686  1.00  0.00     0.044 A 
HETATM   14  C14 UNL     1      26.963  -0.639  52.643  1.00  0.00     0.028 A 
ENDBRANCH   5   8
ENDBRANCH   3   5
BRANCH   1  15
HETATM   15  C7  UNL     1      23.372   2.203  52.868  1.00  0.00     0.137 C 
BRANCH  15  16
HETATM   16  C5  UNL     1      22.822   0.841  52.647  1.00  0.00    -0.074 C 
HETATM   17  C6  UNL     1      23.191  -0.202  53.635  1.00  0.00     0.044 C 
BRANCH  16  18
HETATM   18  C4  UNL     1      22.036   0.562  51.618  1.00  0.00     0.011 C 
BRANCH  18  19
HETATM   19  C3  UNL     1      21.581   1.595  50.735  1.00  0.00     0.051 C 
BRANCH  19  20
HETATM   20  C2  UNL     1      21.924   1.574  49.456  1.00  0.00    -0.155 C 
HETATM   21  C1  UNL     1      22.029   1.665  48.140  1.00  0.00     0.096 C 
ENDBRANCH  19  20
ENDBRANCH  18  19
ENDBRANCH  16  18
ENDBRANCH  15  16
ENDBRANCH   1  15
TORSDOF 7
ENDMDL
MODEL 4
REMARK VINA RESULT:      -7.0      1.640      2.365
REMARK  7 active torsions:
REMARK  status: ('A' for Active; 'I' for Inactive)
REMARK    1  A    between atoms: C2_2  and  C3_3 
REMARK    2  A    between atoms: C3_3  and  C4_4 
REMARK    3  A    between atoms: C4_4  and  C5_5 
REMARK    4  A    between atoms: C5_5  and  C7_7 
REMARK    5  A    between atoms: C7_7  and  C8_8 
REMARK       I    between atoms: C8_8  and  N1_10 
REMARK    6  A    between atoms: N1_10  and  S1_11 
REMARK    7  A    between atoms: S1_11  and  C9_14 
ROOT
HETATM    1  C8  UNL     1      23.195   1.279  52.027  1.00  0.00     0.235 C 
HETATM    2  O1  UNL     1      23.462   2.522  51.920  1.00  0.00    -0.272 OA
HETATM    3  N1  UNL     1      24.351   0.519  52.405  1.00  0.00    -0.250 N 
HETATM    4  H10 UNL     1      24.245  -0.516  52.522  1.00  0.00     0.181 HD
ENDROOT
BRANCH   3   5
HETATM    5  S1  UNL     1      25.720   1.579  52.583  1.00  0.00     0.265 S 
HETATM    6  O2  UNL     1      25.933   2.350  51.305  1.00  0.00    -0.200 OA
HETATM    7  O3  UNL     1      25.420   2.507  53.720  1.00  0.00    -0.200 OA
BRANCH   5   8
HETATM    8  C9  UNL     1      27.131   0.623  52.973  1.00  0.00     0.080 A 
HETATM    9  C10 UNL     1      28.216   1.308  53.459  1.00  0.00     0.028 A 
HETATM   10  C11 UNL     1      29.412   0.698  53.816  1.00  0.00     0.044 A 
HETATM   11  C12 UNL     1      29.483  -0.677  53.662  1.00  0.00     0.116 A 
HETATM   12  F1  UNL     1      30.631  -1.292  54.001  1.00  0.00    -0.206 F 
HETATM   13  C13 UNL     1      28.396  -1.394  53.171  1.00  0.00     0.044 A 
HETATM   14  C14 UNL     1      27.215  -0.747  52.824  1.00  0.00     0.028 A 
ENDBRANCH   5   8
ENDBRANCH   3   5
BRANCH   1  15
HETATM   15  C7  UNL     1      21.850   0.665  51.795  1.00  0.00     0.137 C 
BRANCH  15  16
HETATM   16  C5  UNL     1      20.972   1.172  52.882  1.00  0.00    -0.074 C 
HETATM   17  C6  UNL     1      20.219   2.422  52.611  1.00  0.00     0.044 C 
BRANCH  16  18
HETATM   18  C4  UNL     1      20.861   0.544  54.042  1.00  0.00     0.011 C 
BRANCH  18  19
HETATM   19  C3  UNL     1      21.177  -0.848  54.161  1.00  0.00     0.051 C 
BRANCH  19  20
HETATM   20  C2  UNL     1      22.220  -1.234  54.880  1.00  0.00    -0.155 C 
HETATM   21  C1  UNL     1      23.369  -1.389  55.520  1.00  0.00     0.096 C 
ENDBRANCH  19  20
ENDBRANCH  18  19
ENDBRANCH  16  18
ENDBRANCH  15  16
ENDBRANCH   1  15
TORSDOF 7
ENDMDL
MODEL 5
REMARK VINA RESULT:      -6.9      2.157      5.294
REMARK  7 active torsions:
REMARK  status: ('A' for Active; 'I' for Inactive)
REMARK    1  A    between atoms: C2_2  and  C3_3 
REMARK    2  A    between atoms: C3_3  and  C4_4 
REMARK    3  A    between atoms: C4_4  and  C5_5 
REMARK    4  A    between atoms: C5_5  and  C7_7 
REMARK    5  A    between atoms: C7_7  and  C8_8 
REMARK       I    between atoms: C8_8  and  N1_10 
REMARK    6  A    between atoms: N1_10  and  S1_11 
REMARK    7  A    between atoms: S1_11  and  C9_14 
ROOT
HETATM    1  C8  UNL     1      27.342   2.016  52.863  1.00  0.00     0.235 C 
HETATM    2  O1  UNL     1      27.020   1.399  51.794  1.00  0.00    -0.272 OA
HETATM    3  N1  UNL     1      26.243   2.771  53.391  1.00  0.00    -0.250 N 
HETATM    4  H10 UNL     1      26.397   3.318  54.271  1.00  0.00     0.181 HD
ENDROOT
BRANCH   3   5
HETATM    5  S1  UNL     1      24.848   2.573  52.370  1.00  0.00     0.265 S 
HETATM    6  O2  UNL     1      23.961   3.787  52.482  1.00  0.00    -0.200 OA
HETATM    7  O3  UNL     1      25.344   2.404  50.966  1.00  0.00    -0.200 OA
BRANCH   5   8
HETATM    8  C9  UNL     1      23.989   1.130  52.856  1.00  0.00     0.080 A 
HETATM    9  C10 UNL     1      22.766   0.921  52.270  1.00  0.00     0.028 A 
HETATM   10  C11 UNL     1      21.958  -0.175  52.547  1.00  0.00     0.044 A 
HETATM   11  C12 UNL     1      22.440  -1.089  53.469  1.00  0.00     0.116 A 
HETATM   12  F1  UNL     1      21.677  -2.159  53.755  1.00  0.00    -0.206 F 
HETATM   13  C13 UNL     1      23.678  -0.900  54.078  1.00  0.00     0.044 A 
HETATM   14  C14 UNL     1      24.457   0.211  53.774  1.00  0.00     0.028 A 
ENDBRANCH   5   8
ENDBRANCH   3   5
BRANCH   1  15
HETATM   15  C7  UNL     1      28.692   1.972  53.508  1.00  0.00     0.137 C 
BRANCH  15  16
HETATM   16  C5  UNL     1      28.832   0.607  54.079  1.00  0.00    -0.074 C 
HETATM   17  C6  UNL     1      27.964   0.269  55.234  1.00  0.00     0.044 C 
BRANCH  16  18
HETATM   18  C4  UNL     1      29.687  -0.274  53.585  1.00  0.00     0.011 C 
BRANCH  18  19
HETATM   19  C3  UNL     1      29.272  -1.610  53.272  1.00  0.00     0.051 C 
BRANCH  19  20
HETATM   20  C2  UNL     1      28.030  -1.845  52.875  1.00  0.00    -0.155 C 
HETATM   21  C1  UNL     1      26.905  -2.236  52.299  1.00  0.00     0.096 C 
ENDBRANCH  19  20
ENDBRANCH  18  19
ENDBRANCH  16  18
ENDBRANCH  15  16
ENDBRANCH   1  15
TORSDOF 7
ENDMDL
MODEL 6
REMARK VINA RESULT:      -6.9      3.624      5.637
REMARK  7 active torsions:
REMARK  status: ('A' for Active; 'I' for Inactive)
REMARK    1  A    between atoms: C2_2  and  C3_3 
REMARK    2  A    between atoms: C3_3  and  C4_4 
REMARK    3  A    between atoms: C4_4  and  C5_5 
REMARK    4  A    between atoms: C5_5  and  C7_7 
REMARK    5  A    between atoms: C7_7  and  C8_8 
REMARK       I    between atoms: C8_8  and  N1_10 
REMARK    6  A    between atoms: N1_10  and  S1_11 
REMARK    7  A    between atoms: S1_11  and  C9_14 
ROOT
HETATM    1  C8  UNL     1      25.024   2.944  50.690  1.00  0.00     0.235 C 
HETATM    2  O1  UNL     1      24.160   2.958  51.630  1.00  0.00    -0.272 OA
HETATM    3  N1  UNL     1      26.161   2.139  51.029  1.00  0.00    -0.250 N 
HETATM    4  H10 UNL     1      26.934   2.056  50.327  1.00  0.00     0.181 HD
ENDROOT
BRANCH   3   5
HETATM    5  S1  UNL     1      25.952   1.463  52.619  1.00  0.00     0.265 S 
HETATM    6  O2  UNL     1      25.594   2.558  53.593  1.00  0.00    -0.200 OA
HETATM    7  O3  UNL     1      24.853   0.449  52.532  1.00  0.00    -0.200 OA
BRANCH   5   8
HETATM    8  C9  UNL     1      27.434   0.669  53.098  1.00  0.00     0.080 A 
HETATM    9  C10 UNL     1      27.477  -0.693  52.935  1.00  0.00     0.028 A 
HETATM   10  C11 UNL     1      28.578  -1.472  53.265  1.00  0.00     0.044 A 
HETATM   11  C12 UNL     1      29.678  -0.811  53.786  1.00  0.00     0.116 A 
HETATM   12  F1  UNL     1      30.758  -1.543  54.115  1.00  0.00    -0.206 F 
HETATM   13  C13 UNL     1      29.660   0.570  53.961  1.00  0.00     0.044 A 
HETATM   14  C14 UNL     1      28.538   1.316  53.618  1.00  0.00     0.028 A 
ENDBRANCH   5   8
ENDBRANCH   3   5
BRANCH   1  15
HETATM   15  C7  UNL     1      24.890   3.668  49.387  1.00  0.00     0.137 C 
BRANCH  15  16
HETATM   16  C5  UNL     1      25.874   4.780  49.430  1.00  0.00    -0.074 C 
HETATM   17  C6  UNL     1      25.441   6.037  50.090  1.00  0.00     0.044 C 
BRANCH  16  18
HETATM   18  C4  UNL     1      27.085   4.663  48.908  1.00  0.00     0.011 C 
BRANCH  18  19
HETATM   19  C3  UNL     1      27.782   5.807  48.397  1.00  0.00     0.051 C 
BRANCH  19  20
HETATM   20  C2  UNL     1      29.081   5.737  48.147  1.00  0.00    -0.155 C 
HETATM   21  C1  UNL     1      30.344   5.406  47.934  1.00  0.00     0.096 C 
ENDBRANCH  19  20
ENDBRANCH  18  19
ENDBRANCH  16  18
ENDBRANCH  15  16
ENDBRANCH   1  15
TORSDOF 7
ENDMDL
MODEL 7
REMARK VINA RESULT:      -6.9      3.068      5.127
REMARK  7 active torsions:
REMARK  status: ('A' for Active; 'I' for Inactive)
REMARK    1  A    between atoms: C2_2  and  C3_3 
REMARK    2  A    between atoms: C3_3  and  C4_4 
REMARK    3  A    between atoms: C4_4  and  C5_5 
REMARK    4  A    between atoms: C5_5  and  C7_7 
REMARK    5  A    between atoms: C7_7  and  C8_8 
REMARK       I    between atoms: C8_8  and  N1_10 
REMARK    6  A    between atoms: N1_10  and  S1_11 
REMARK    7  A    between atoms: S1_11  and  C9_14 
ROOT
HETATM    1  C8  UNL     1      25.616   2.670  51.435  1.00  0.00     0.235 C 
HETATM    2  O1  UNL     1      24.987   2.164  52.423  1.00  0.00    -0.272 OA
HETATM    3  N1  UNL     1      27.024   2.756  51.690  1.00  0.00    -0.250 N 
HETATM    4  H10 UNL     1      27.638   3.158  50.942  1.00  0.00     0.181 HD
ENDROOT
BRANCH   3   5
HETATM    5  S1  UNL     1      27.375   2.133  53.277  1.00  0.00     0.265 S 
HETATM    6  O2  UNL     1      28.572   2.849  53.850  1.00  0.00    -0.200 OA
HETATM    7  O3  UNL     1      26.161   2.365  54.125  1.00  0.00    -0.200 OA
BRANCH   5   8
HETATM    8  C9  UNL     1      27.677   0.416  53.158  1.00  0.00     0.080 A 
HETATM    9  C10 UNL     1      28.917  -0.014  53.557  1.00  0.00     0.028 A 
HETATM   10  C11 UNL     1      29.316  -1.345  53.525  1.00  0.00     0.044 A 
HETATM   11  C12 UNL     1      28.390  -2.264  53.061  1.00  0.00     0.116 A 
HETATM   12  F1  UNL     1      28.751  -3.560  53.021  1.00  0.00    -0.206 F 
HETATM   13  C13 UNL     1      27.124  -1.853  52.651  1.00  0.00     0.044 A 
HETATM   14  C14 UNL     1      26.763  -0.511  52.698  1.00  0.00     0.028 A 
ENDBRANCH   5   8
ENDBRANCH   3   5
BRANCH   1  15
HETATM   15  C7  UNL     1      24.984   3.123  50.156  1.00  0.00     0.137 C 
BRANCH  15  16
HETATM   16  C5  UNL     1      25.252   4.581  50.058  1.00  0.00    -0.074 C 
HETATM   17  C6  UNL     1      24.642   5.448  51.097  1.00  0.00     0.044 C 
BRANCH  16  18
HETATM   18  C4  UNL     1      26.000   5.093  49.093  1.00  0.00     0.011 C 
BRANCH  18  19
HETATM   19  C3  UNL     1      27.311   4.579  48.824  1.00  0.00     0.051 C 
BRANCH  19  20
HETATM   20  C2  UNL     1      28.292   5.403  48.487  1.00  0.00    -0.155 C 
HETATM   21  C1  UNL     1      29.158   6.221  47.910  1.00  0.00     0.096 C 
ENDBRANCH  19  20
ENDBRANCH  18  19
ENDBRANCH  16  18
ENDBRANCH  15  16
ENDBRANCH   1  15
TORSDOF 7
ENDMDL
MODEL 8
REMARK VINA RESULT:      -6.7      3.271      5.655
REMARK  7 active torsions:
REMARK  status: ('A' for Active; 'I' for Inactive)
REMARK    1  A    between atoms: C2_2  and  C3_3 
REMARK    2  A    between atoms: C3_3  and  C4_4 
REMARK    3  A    between atoms: C4_4  and  C5_5 
REMARK    4  A    between atoms: C5_5  and  C7_7 
REMARK    5  A    between atoms: C7_7  and  C8_8 
REMARK       I    between atoms: C8_8  and  N1_10 
REMARK    6  A    between atoms: N1_10  and  S1_11 
REMARK    7  A    between atoms: S1_11  and  C9_14 
ROOT
HETATM    1  C8  UNL     1      25.246   2.421  52.768  1.00  0.00     0.235 C 
HETATM    2  O1  UNL     1      24.319   2.951  53.467  1.00  0.00    -0.272 OA
HETATM    3  N1  UNL     1      25.049   2.652  51.366  1.00  0.00    -0.250 N 
HETATM    4  H10 UNL     1      25.754   2.260  50.697  1.00  0.00     0.181 HD
ENDROOT
BRANCH   3   5
HETATM    5  S1  UNL     1      23.598   3.581  51.120  1.00  0.00     0.265 S 
HETATM    6  O2  UNL     1      23.573   4.745  52.077  1.00  0.00    -0.200 OA
HETATM    7  O3  UNL     1      23.613   4.061  49.700  1.00  0.00    -0.200 OA
BRANCH   5   8
HETATM    8  C9  UNL     1      22.212   2.546  51.366  1.00  0.00     0.080 A 
HETATM    9  C10 UNL     1      22.231   1.336  50.718  1.00  0.00     0.028 A 
HETATM   10  C11 UNL     1      21.209   0.400  50.809  1.00  0.00     0.044 A 
HETATM   11  C12 UNL     1      20.124   0.734  51.602  1.00  0.00     0.116 A 
HETATM   12  F1  UNL     1      19.120  -0.156  51.707  1.00  0.00    -0.206 F 
HETATM   13  C13 UNL     1      20.081   1.955  52.270  1.00  0.00     0.044 A 
HETATM   14  C14 UNL     1      21.124   2.866  52.154  1.00  0.00     0.028 A 
ENDBRANCH   5   8
ENDBRANCH   3   5
BRANCH   1  15
HETATM   15  C7  UNL     1      26.406   1.652  53.318  1.00  0.00     0.137 C 
BRANCH  15  16
HETATM   16  C5  UNL     1      26.046   0.216  53.190  1.00  0.00    -0.074 C 
HETATM   17  C6  UNL     1      26.778  -0.573  52.169  1.00  0.00     0.044 C 
BRANCH  16  18
HETATM   18  C4  UNL     1      25.116  -0.343  53.949  1.00  0.00     0.011 C 
BRANCH  18  19
HETATM   19  C3  UNL     1      23.828  -0.675  53.415  1.00  0.00     0.051 C 
BRANCH  19  20
HETATM   20  C2  UNL     1      22.740  -0.504  54.150  1.00  0.00    -0.155 C 
HETATM   21  C1  UNL     1      21.550  -0.524  54.730  1.00  0.00     0.096 C 
ENDBRANCH  19  20
ENDBRANCH  18  19
ENDBRANCH  16  18
ENDBRANCH  15  16
ENDBRANCH   1  15
TORSDOF 7
ENDMDL
MODEL 9
REMARK VINA RESULT:      -6.6      2.893      5.940
REMARK  7 active torsions:
REMARK  status: ('A' for Active; 'I' for Inactive)
REMARK    1  A    between atoms: C2_2  and  C3_3 
REMARK    2  A    between atoms: C3_3  and  C4_4 
REMARK    3  A    between atoms: C4_4  and  C5_5 
REMARK    4  A    between atoms: C5_5  and  C7_7 
REMARK    5  A    between atoms: C7_7  and  C8_8 
REMARK       I    between atoms: C8_8  and  N1_10 
REMARK    6  A    between atoms: N1_10  and  S1_11 
REMARK    7  A    between atoms: S1_11  and  C9_14 
ROOT
HETATM    1  C8  UNL     1      24.910   2.785  51.573  1.00  0.00     0.235 C 
HETATM    2  O1  UNL     1      24.479   3.266  52.674  1.00  0.00    -0.272 OA
HETATM    3  N1  UNL     1      23.835   2.346  50.731  1.00  0.00    -0.250 N 
HETATM    4  H10 UNL     1      24.076   1.932  49.799  1.00  0.00     0.181 HD
ENDROOT
BRANCH   3   5
HETATM    5  S1  UNL     1      22.312   2.629  51.523  1.00  0.00     0.265 S 
HETATM    6  O2  UNL     1      22.381   3.912  52.312  1.00  0.00    -0.200 OA
HETATM    7  O3  UNL     1      21.264   2.718  50.455  1.00  0.00    -0.200 OA
BRANCH   5   8
HETATM    8  C9  UNL     1      21.956   1.275  52.570  1.00  0.00     0.080 A 
HETATM    9  C10 UNL     1      22.878   0.260  52.590  1.00  0.00     0.028 A 
HETATM   10  C11 UNL     1      22.745  -0.884  53.367  1.00  0.00     0.044 A 
HETATM   11  C12 UNL     1      21.608  -0.976  54.153  1.00  0.00     0.116 A 
HETATM   12  F1  UNL     1      21.456  -2.075  54.916  1.00  0.00    -0.206 F 
HETATM   13  C13 UNL     1      20.658   0.040  54.151  1.00  0.00     0.044 A 
HETATM   14  C14 UNL     1      20.827   1.171  53.360  1.00  0.00     0.028 A 
ENDBRANCH   5   8
ENDBRANCH   3   5
BRANCH   1  15
HETATM   15  C7  UNL     1      26.351   2.682  51.185  1.00  0.00     0.137 C 
BRANCH  15  16
HETATM   16  C5  UNL     1      26.955   1.683  52.105  1.00  0.00    -0.074 C 
HETATM   17  C6  UNL     1      27.869   2.201  53.154  1.00  0.00     0.044 C 
BRANCH  16  18
HETATM   18  C4  UNL     1      26.696   0.390  52.002  1.00  0.00     0.011 C 
BRANCH  18  19
HETATM   19  C3  UNL     1      26.936  -0.502  53.098  1.00  0.00     0.051 C 
BRANCH  19  20
HETATM   20  C2  UNL     1      28.107  -1.109  53.217  1.00  0.00    -0.155 C 
HETATM   21  C1  UNL     1      29.375  -1.469  53.344  1.00  0.00     0.096 C 
ENDBRANCH  19  20
ENDBRANCH  18  19
ENDBRANCH  16  18
ENDBRANCH  15  16
ENDBRANCH   1  15
TORSDOF 7
ENDMDL
