MODEL 1
REMARK VINA RESULT:      -6.6      0.000      0.000
REMARK  7 active torsions:
REMARK  status: ('A' for Active; 'I' for Inactive)
REMARK    1  A    between atoms: C2_2  and  C5_5 
REMARK    2  A    between atoms: C7_8  and  C8_9 
REMARK    3  A    between atoms: C8_9  and  S1_10 
REMARK    4  A    between atoms: S1_10  and  C9_11 
REMARK    5  A    between atoms: C11_14  and  N3_15 
REMARK    6  A    between atoms: N3_15  and  C12_16 
REMARK    7  A    between atoms: C12_16  and  S2_17 
ROOT
HETATM    1  C9  UNL     1      21.768   1.564  49.625  1.00  0.00     0.064 A 
HETATM    2  C10 UNL     1      21.828   1.482  48.292  1.00  0.00     0.141 A 
HETATM    3  N2  UNL     1      22.828   2.488  48.209  1.00  0.00    -0.241 NA
HETATM    4  C11 UNL     1      22.809   2.606  49.494  1.00  0.00     0.143 A 
ENDROOT
BRANCH   4   5
HETATM    5  N3  UNL     1      23.531   3.435  50.402  1.00  0.00    -0.348 N 
HETATM    6  H14 UNL     1      24.236   2.945  51.025  1.00  0.00     0.163 HD
BRANCH   5   7
HETATM    7  C12 UNL     1      23.298   4.868  50.452  1.00  0.00     0.160 C 
HETATM    8  C13 UNL     1      24.096   5.608  49.422  1.00  0.00     0.054 C 
HETATM    9  C14 UNL     1      23.837   7.077  49.515  1.00  0.00     0.023 C 
HETATM   10  C15 UNL     1      23.723   7.611  50.902  1.00  0.00     0.123 C 
HETATM   11  N4  UNL     1      24.288   6.711  51.909  1.00  0.00    -0.358 N 
HETATM   12  C16 UNL     1      23.762   5.395  51.785  1.00  0.00     0.256 C 
HETATM   13  H22 UNL     1      24.983   6.807  52.695  1.00  0.00     0.162 HD
HETATM   14  O1  UNL     1      23.638   4.567  52.754  1.00  0.00    -0.270 OA
BRANCH   7  15
HETATM   15  S2  UNL     1      21.549   5.162  50.172  1.00  0.00    -0.141 SA
HETATM   16  H15 UNL     1      20.866   5.570  51.332  1.00  0.00     0.104 HD
ENDBRANCH   7  15
ENDBRANCH   5   7
ENDBRANCH   4   5
BRANCH   1  17
HETATM   17  S1  UNL     1      20.895   0.826  51.023  1.00  0.00    -0.117 SA
BRANCH  17  18
HETATM   18  C8  UNL     1      21.496   1.604  52.555  1.00  0.00     0.166 C 
BRANCH  18  19
HETATM   19  C7  UNL     1      22.710   0.856  52.978  1.00  0.00     0.154 A 
HETATM   20  N1  UNL     1      22.909  -0.206  53.779  1.00  0.00    -0.237 NA
HETATM   21  C6  UNL     1      24.226  -0.502  53.837  1.00  0.00     0.152 A 
HETATM   22  C5  UNL     1      24.835   0.421  53.038  1.00  0.00     0.080 A 
HETATM   23  O2  UNL     1      23.912   1.212  52.542  1.00  0.00    -0.297 OA
BRANCH  22  24
HETATM   24  C2  UNL     1      26.285   0.589  52.716  1.00  0.00    -0.000 C 
HETATM   25  C1  UNL     1      26.793  -0.787  52.339  1.00  0.00     0.021 C 
HETATM   26  C3  UNL     1      26.438   1.536  51.559  1.00  0.00     0.021 C 
HETATM   27  C4  UNL     1      27.036   1.068  53.937  1.00  0.00     0.021 C 
ENDBRANCH  22  24
ENDBRANCH  18  19
ENDBRANCH  17  18
ENDBRANCH   1  17
TORSDOF 7
ENDMDL
MODEL 2
REMARK VINA RESULT:      -6.6      2.755      4.251
REMARK  7 active torsions:
REMARK  status: ('A' for Active; 'I' for Inactive)
REMARK    1  A    between atoms: C2_2  and  C5_5 
REMARK    2  A    between atoms: C7_8  and  C8_9 
REMARK    3  A    between atoms: C8_9  and  S1_10 
REMARK    4  A    between atoms: S1_10  and  C9_11 
REMARK    5  A    between atoms: C11_14  and  N3_15 
REMARK    6  A    between atoms: N3_15  and  C12_16 
REMARK    7  A    between atoms: C12_16  and  S2_17 
ROOT
HETATM    1  C9  UNL     1      22.746   6.378  51.156  1.00  0.00     0.064 A 
HETATM    2  C10 UNL     1      21.609   6.912  50.699  1.00  0.00     0.141 A 
HETATM    3  N2  UNL     1      22.263   8.093  50.256  1.00  0.00    -0.241 NA
HETATM    4  C11 UNL     1      23.388   7.623  50.680  1.00  0.00     0.143 A 
ENDROOT
BRANCH   4   5
HETATM    5  N3  UNL     1      24.717   8.138  50.674  1.00  0.00    -0.348 N 
HETATM    6  H14 UNL     1      24.976   8.776  51.482  1.00  0.00     0.163 HD
BRANCH   5   7
HETATM    7  C12 UNL     1      25.648   7.795  49.614  1.00  0.00     0.160 C 
HETATM    8  C13 UNL     1      26.004   6.340  49.620  1.00  0.00     0.054 C 
HETATM    9  C14 UNL     1      26.970   6.031  48.523  1.00  0.00     0.023 C 
HETATM   10  C15 UNL     1      28.025   7.060  48.305  1.00  0.00     0.123 C 
HETATM   11  N4  UNL     1      28.186   7.965  49.444  1.00  0.00    -0.358 N 
HETATM   12  C16 UNL     1      26.942   8.533  49.837  1.00  0.00     0.256 C 
HETATM   13  H22 UNL     1      28.995   8.292  50.034  1.00  0.00     0.162 HD
HETATM   14  O1  UNL     1      26.809   9.678  50.395  1.00  0.00    -0.270 OA
BRANCH   7  15
HETATM   15  S2  UNL     1      24.886   8.213  48.042  1.00  0.00    -0.141 SA
HETATM   16  H15 UNL     1      25.139   7.264  47.036  1.00  0.00     0.104 HD
ENDBRANCH   7  15
ENDBRANCH   5   7
ENDBRANCH   4   5
BRANCH   1  17
HETATM   17  S1  UNL     1      23.350   4.885  51.971  1.00  0.00    -0.117 SA
BRANCH  17  18
HETATM   18  C8  UNL     1      23.702   3.633  50.697  1.00  0.00     0.166 C 
BRANCH  18  19
HETATM   19  C7  UNL     1      24.844   2.818  51.190  1.00  0.00     0.154 A 
HETATM   20  N1  UNL     1      26.174   2.877  50.997  1.00  0.00    -0.237 NA
HETATM   21  C6  UNL     1      26.786   1.885  51.682  1.00  0.00     0.152 A 
HETATM   22  C5  UNL     1      25.779   1.210  52.307  1.00  0.00     0.080 A 
HETATM   23  O2  UNL     1      24.640   1.784  51.998  1.00  0.00    -0.297 OA
BRANCH  22  24
HETATM   24  C2  UNL     1      25.851   0.016  53.205  1.00  0.00    -0.000 C 
HETATM   25  C1  UNL     1      26.708  -1.001  52.480  1.00  0.00     0.021 C 
HETATM   26  C3  UNL     1      26.491   0.404  54.508  1.00  0.00     0.021 C 
HETATM   27  C4  UNL     1      24.471  -0.565  53.408  1.00  0.00     0.021 C 
ENDBRANCH  22  24
ENDBRANCH  18  19
ENDBRANCH  17  18
ENDBRANCH   1  17
TORSDOF 7
ENDMDL
MODEL 3
REMARK VINA RESULT:      -6.6      3.106      6.773
REMARK  7 active torsions:
REMARK  status: ('A' for Active; 'I' for Inactive)
REMARK    1  A    between atoms: C2_2  and  C5_5 
REMARK    2  A    between atoms: C7_8  and  C8_9 
REMARK    3  A    between atoms: C8_9  and  S1_10 
REMARK    4  A    between atoms: S1_10  and  C9_11 
REMARK    5  A    between atoms: C11_14  and  N3_15 
REMARK    6  A    between atoms: N3_15  and  C12_16 
REMARK    7  A    between atoms: C12_16  and  S2_17 
ROOT
HETATM    1  C9  UNL     1      23.718   1.264  53.016  1.00  0.00     0.064 A 
HETATM    2  C10 UNL     1      22.679   0.551  53.461  1.00  0.00     0.141 A 
HETATM    3  N2  UNL     1      23.397  -0.672  53.379  1.00  0.00    -0.241 NA
HETATM    4  C11 UNL     1      24.430  -0.030  52.945  1.00  0.00     0.143 A 
ENDROOT
BRANCH   4   5
HETATM    5  N3  UNL     1      25.737  -0.447  52.557  1.00  0.00    -0.348 N 
HETATM    6  H14 UNL     1      25.796  -1.056  51.690  1.00  0.00     0.163 HD
BRANCH   5   7
HETATM    7  C12 UNL     1      26.907  -0.047  53.319  1.00  0.00     0.160 C 
HETATM    8  C13 UNL     1      27.516   1.219  52.799  1.00  0.00     0.054 C 
HETATM    9  C14 UNL     1      28.721   1.589  53.602  1.00  0.00     0.023 C 
HETATM   10  C15 UNL     1      29.591   0.445  53.997  1.00  0.00     0.123 C 
HETATM   11  N4  UNL     1      29.352  -0.758  53.196  1.00  0.00    -0.358 N 
HETATM   12  C16 UNL     1      27.972  -1.103  53.174  1.00  0.00     0.256 C 
HETATM   13  H22 UNL     1      29.953  -1.421  52.640  1.00  0.00     0.162 HD
HETATM   14  O1  UNL     1      27.521  -2.294  53.035  1.00  0.00    -0.270 OA
BRANCH   7  15
HETATM   15  S2  UNL     1      26.408   0.191  55.028  1.00  0.00    -0.141 SA
HETATM   16  H15 UNL     1      27.159  -0.579  55.933  1.00  0.00     0.104 HD
ENDBRANCH   7  15
ENDBRANCH   5   7
ENDBRANCH   4   5
BRANCH   1  17
HETATM   17  S1  UNL     1      24.172   2.970  52.639  1.00  0.00    -0.117 SA
BRANCH  17  18
HETATM   18  C8  UNL     1      23.671   3.337  50.928  1.00  0.00     0.166 C 
BRANCH  18  19
HETATM   19  C7  UNL     1      24.864   3.887  50.231  1.00  0.00     0.154 A 
HETATM   20  N1  UNL     1      26.032   3.350  49.832  1.00  0.00    -0.237 NA
HETATM   21  C6  UNL     1      26.794   4.291  49.233  1.00  0.00     0.152 A 
HETATM   22  C5  UNL     1      26.050   5.434  49.278  1.00  0.00     0.080 A 
HETATM   23  O2  UNL     1      24.913   5.164  49.874  1.00  0.00    -0.297 OA
BRANCH  22  24
HETATM   24  C2  UNL     1      26.378   6.801  48.768  1.00  0.00    -0.000 C 
HETATM   25  C1  UNL     1      27.758   6.697  48.151  1.00  0.00     0.021 C 
HETATM   26  C3  UNL     1      25.372   7.206  47.729  1.00  0.00     0.021 C 
HETATM   27  C4  UNL     1      26.429   7.784  49.915  1.00  0.00     0.021 C 
ENDBRANCH  22  24
ENDBRANCH  18  19
ENDBRANCH  17  18
ENDBRANCH   1  17
TORSDOF 7
ENDMDL
MODEL 4
REMARK VINA RESULT:      -6.6      2.823      5.531
REMARK  7 active torsions:
REMARK  status: ('A' for Active; 'I' for Inactive)
REMARK    1  A    between atoms: C2_2  and  C5_5 
REMARK    2  A    between atoms: C7_8  and  C8_9 
REMARK    3  A    between atoms: C8_9  and  S1_10 
REMARK    4  A    between atoms: S1_10  and  C9_11 
REMARK    5  A    between atoms: C11_14  and  N3_15 
REMARK    6  A    between atoms: N3_15  and  C12_16 
REMARK    7  A    between atoms: C12_16  and  S2_17 
ROOT
HETATM    1  C9  UNL     1      24.985   3.574  50.880  1.00  0.00     0.064 A 
HETATM    2  C10 UNL     1      25.198   3.544  49.560  1.00  0.00     0.141 A 
HETATM    3  N2  UNL     1      26.519   3.048  49.717  1.00  0.00    -0.241 NA
HETATM    4  C11 UNL     1      26.365   3.057  50.999  1.00  0.00     0.143 A 
ENDROOT
BRANCH   4   5
HETATM    5  N3  UNL     1      27.222   2.700  52.081  1.00  0.00    -0.348 N 
HETATM    6  H14 UNL     1      27.915   3.441  52.394  1.00  0.00     0.163 HD
BRANCH   5   7
HETATM    7  C12 UNL     1      27.133   1.392  52.706  1.00  0.00     0.160 C 
HETATM    8  C13 UNL     1      26.723   0.327  51.736  1.00  0.00     0.054 C 
HETATM    9  C14 UNL     1      26.633  -0.999  52.419  1.00  0.00     0.023 C 
HETATM   10  C15 UNL     1      26.042  -0.963  53.787  1.00  0.00     0.123 C 
HETATM   11  N4  UNL     1      25.286   0.262  54.052  1.00  0.00    -0.358 N 
HETATM   12  C16 UNL     1      26.055   1.423  53.758  1.00  0.00     0.256 C 
HETATM   13  H22 UNL     1      24.319   0.486  54.405  1.00  0.00     0.162 HD
HETATM   14  O1  UNL     1      25.912   2.557  54.336  1.00  0.00    -0.270 OA
BRANCH   7  15
HETATM   15  S2  UNL     1      28.743   0.986  53.389  1.00  0.00    -0.141 SA
HETATM   16  H15 UNL     1      29.374   2.081  54.005  1.00  0.00     0.104 HD
ENDBRANCH   7  15
ENDBRANCH   5   7
ENDBRANCH   4   5
BRANCH   1  17
HETATM   17  S1  UNL     1      23.697   4.007  52.068  1.00  0.00    -0.117 SA
BRANCH  17  18
HETATM   18  C8  UNL     1      22.077   3.810  51.262  1.00  0.00     0.166 C 
BRANCH  18  19
HETATM   19  C7  UNL     1      21.717   2.370  51.349  1.00  0.00     0.154 A 
HETATM   20  N1  UNL     1      21.562   1.398  50.431  1.00  0.00    -0.237 NA
HETATM   21  C6  UNL     1      21.224   0.238  51.037  1.00  0.00     0.152 A 
HETATM   22  C5  UNL     1      21.177   0.531  52.369  1.00  0.00     0.080 A 
HETATM   23  O2  UNL     1      21.473   1.801  52.523  1.00  0.00    -0.297 OA
BRANCH  22  24
HETATM   24  C2  UNL     1      20.856  -0.359  53.526  1.00  0.00    -0.000 C 
HETATM   25  C1  UNL     1      20.880   0.528  54.754  1.00  0.00     0.021 C 
HETATM   26  C3  UNL     1      19.488  -0.953  53.340  1.00  0.00     0.021 C 
HETATM   27  C4  UNL     1      21.917  -1.424  53.673  1.00  0.00     0.021 C 
ENDBRANCH  22  24
ENDBRANCH  18  19
ENDBRANCH  17  18
ENDBRANCH   1  17
TORSDOF 7
ENDMDL
MODEL 5
REMARK VINA RESULT:      -6.5      2.050      2.618
REMARK  7 active torsions:
REMARK  status: ('A' for Active; 'I' for Inactive)
REMARK    1  A    between atoms: C2_2  and  C5_5 
REMARK    2  A    between atoms: C7_8  and  C8_9 
REMARK    3  A    between atoms: C8_9  and  S1_10 
REMARK    4  A    between atoms: S1_10  and  C9_11 
REMARK    5  A    between atoms: C11_14  and  N3_15 
REMARK    6  A    between atoms: N3_15  and  C12_16 
REMARK    7  A    between atoms: C12_16  and  S2_17 
ROOT
HETATM    1  C9  UNL     1      21.699   2.471  51.880  1.00  0.00     0.064 A 
HETATM    2  C10 UNL     1      20.684   3.328  52.032  1.00  0.00     0.141 A 
HETATM    3  N2  UNL     1      21.555   4.446  52.132  1.00  0.00    -0.241 NA
HETATM    4  C11 UNL     1      22.570   3.661  51.989  1.00  0.00     0.143 A 
ENDROOT
BRANCH   4   5
HETATM    5  N3  UNL     1      23.976   3.892  51.956  1.00  0.00    -0.348 N 
HETATM    6  H14 UNL     1      24.490   3.790  52.880  1.00  0.00     0.163 HD
BRANCH   5   7
HETATM    7  C12 UNL     1      24.648   4.245  50.718  1.00  0.00     0.160 C 
HETATM    8  C13 UNL     1      25.955   3.531  50.558  1.00  0.00     0.054 C 
HETATM    9  C14 UNL     1      26.617   3.929  49.279  1.00  0.00     0.023 C 
HETATM   10  C15 UNL     1      26.505   5.375  48.935  1.00  0.00     0.123 C 
HETATM   11  N4  UNL     1      26.143   6.210  50.083  1.00  0.00    -0.358 N 
HETATM   12  C16 UNL     1      24.985   5.714  50.742  1.00  0.00     0.256 C 
HETATM   13  H22 UNL     1      26.533   7.080  50.530  1.00  0.00     0.162 HD
HETATM   14  O1  UNL     1      24.151   6.437  51.392  1.00  0.00    -0.270 OA
BRANCH   7  15
HETATM   15  S2  UNL     1      23.565   3.815  49.351  1.00  0.00    -0.141 SA
HETATM   16  H15 UNL     1      23.094   2.492  49.415  1.00  0.00     0.104 HD
ENDBRANCH   7  15
ENDBRANCH   5   7
ENDBRANCH   4   5
BRANCH   1  17
HETATM   17  S1  UNL     1      22.003   0.707  51.647  1.00  0.00    -0.117 SA
BRANCH  17  18
HETATM   18  C8  UNL     1      21.758  -0.138  53.241  1.00  0.00     0.166 C 
BRANCH  18  19
HETATM   19  C7  UNL     1      23.107  -0.466  53.773  1.00  0.00     0.154 A 
HETATM   20  N1  UNL     1      23.547  -0.921  54.961  1.00  0.00    -0.237 NA
HETATM   21  C6  UNL     1      24.891  -1.057  54.936  1.00  0.00     0.152 A 
HETATM   22  C5  UNL     1      25.266  -0.668  53.683  1.00  0.00     0.080 A 
HETATM   23  O2  UNL     1      24.189  -0.324  53.017  1.00  0.00    -0.297 OA
BRANCH  22  24
HETATM   24  C2  UNL     1      26.631  -0.607  53.077  1.00  0.00    -0.000 C 
HETATM   25  C1  UNL     1      27.548  -0.080  54.162  1.00  0.00     0.021 C 
HETATM   26  C3  UNL     1      27.058  -1.985  52.658  1.00  0.00     0.021 C 
HETATM   27  C4  UNL     1      26.641   0.362  51.917  1.00  0.00     0.021 C 
ENDBRANCH  22  24
ENDBRANCH  18  19
ENDBRANCH  17  18
ENDBRANCH   1  17
TORSDOF 7
ENDMDL
MODEL 6
REMARK VINA RESULT:      -6.5      1.912      2.630
REMARK  7 active torsions:
REMARK  status: ('A' for Active; 'I' for Inactive)
REMARK    1  A    between atoms: C2_2  and  C5_5 
REMARK    2  A    between atoms: C7_8  and  C8_9 
REMARK    3  A    between atoms: C8_9  and  S1_10 
REMARK    4  A    between atoms: S1_10  and  C9_11 
REMARK    5  A    between atoms: C11_14  and  N3_15 
REMARK    6  A    between atoms: N3_15  and  C12_16 
REMARK    7  A    between atoms: C12_16  and  S2_17 
ROOT
HETATM    1  C9  UNL     1      19.898   1.701  51.992  1.00  0.00     0.064 A 
HETATM    2  C10 UNL     1      18.673   2.206  51.815  1.00  0.00     0.141 A 
HETATM    3  N2  UNL     1      19.138   3.545  51.910  1.00  0.00    -0.241 NA
HETATM    4  C11 UNL     1      20.341   3.109  52.085  1.00  0.00     0.143 A 
ENDROOT
BRANCH   4   5
HETATM    5  N3  UNL     1      21.589   3.766  52.289  1.00  0.00    -0.348 N 
HETATM    6  H14 UNL     1      21.822   4.031  53.290  1.00  0.00     0.163 HD
BRANCH   5   7
HETATM    7  C12 UNL     1      22.479   4.044  51.175  1.00  0.00     0.160 C 
HETATM    8  C13 UNL     1      22.814   2.810  50.395  1.00  0.00     0.054 C 
HETATM    9  C14 UNL     1      23.738   3.138  49.267  1.00  0.00     0.023 C 
HETATM   10  C15 UNL     1      24.800   4.133  49.590  1.00  0.00     0.123 C 
HETATM   11  N4  UNL     1      25.012   4.295  51.030  1.00  0.00    -0.358 N 
HETATM   12  C16 UNL     1      23.790   4.559  51.710  1.00  0.00     0.256 C 
HETATM   13  H22 UNL     1      25.845   4.263  51.674  1.00  0.00     0.162 HD
HETATM   14  O1  UNL     1      23.692   5.232  52.795  1.00  0.00    -0.270 OA
BRANCH   7  15
HETATM   15  S2  UNL     1      21.669   5.229  50.094  1.00  0.00    -0.141 SA
HETATM   16  H15 UNL     1      22.546   6.206  49.592  1.00  0.00     0.104 HD
ENDBRANCH   7  15
ENDBRANCH   5   7
ENDBRANCH   4   5
BRANCH   1  17
HETATM   17  S1  UNL     1      20.742   0.108  52.091  1.00  0.00    -0.117 SA
BRANCH  17  18
HETATM   18  C8  UNL     1      20.640  -0.495  53.805  1.00  0.00     0.166 C 
BRANCH  18  19
HETATM   19  C7  UNL     1      22.033  -0.722  54.272  1.00  0.00     0.154 A 
HETATM   20  N1  UNL     1      22.563  -1.406  55.302  1.00  0.00    -0.237 NA
HETATM   21  C6  UNL     1      23.910  -1.298  55.286  1.00  0.00     0.152 A 
HETATM   22  C5  UNL     1      24.193  -0.518  54.203  1.00  0.00     0.080 A 
HETATM   23  O2  UNL     1      23.062  -0.192  53.622  1.00  0.00    -0.297 OA
BRANCH  22  24
HETATM   24  C2  UNL     1      25.517  -0.057  53.684  1.00  0.00    -0.000 C 
HETATM   25  C1  UNL     1      26.099  -1.232  52.924  1.00  0.00     0.021 C 
HETATM   26  C3  UNL     1      25.318   1.113  52.762  1.00  0.00     0.021 C 
HETATM   27  C4  UNL     1      26.436   0.284  54.834  1.00  0.00     0.021 C 
ENDBRANCH  22  24
ENDBRANCH  18  19
ENDBRANCH  17  18
ENDBRANCH   1  17
TORSDOF 7
ENDMDL
MODEL 7
REMARK VINA RESULT:      -6.4      3.315      4.604
REMARK  7 active torsions:
REMARK  status: ('A' for Active; 'I' for Inactive)
REMARK    1  A    between atoms: C2_2  and  C5_5 
REMARK    2  A    between atoms: C7_8  and  C8_9 
REMARK    3  A    between atoms: C8_9  and  S1_10 
REMARK    4  A    between atoms: S1_10  and  C9_11 
REMARK    5  A    between atoms: C11_14  and  N3_15 
REMARK    6  A    between atoms: N3_15  and  C12_16 
REMARK    7  A    between atoms: C12_16  and  S2_17 
ROOT
HETATM    1  C9  UNL     1      24.322   5.600  50.176  1.00  0.00     0.064 A 
HETATM    2  C10 UNL     1      23.191   6.072  50.710  1.00  0.00     0.141 A 
HETATM    3  N2  UNL     1      23.819   7.270  51.147  1.00  0.00    -0.241 NA
HETATM    4  C11 UNL     1      24.936   6.860  50.648  1.00  0.00     0.143 A 
ENDROOT
BRANCH   4   5
HETATM    5  N3  UNL     1      26.241   7.431  50.594  1.00  0.00    -0.348 N 
HETATM    6  H14 UNL     1      26.780   7.455  51.508  1.00  0.00     0.163 HD
BRANCH   5   7
HETATM    7  C12 UNL     1      26.783   7.943  49.348  1.00  0.00     0.160 C 
HETATM    8  C13 UNL     1      27.536   6.897  48.584  1.00  0.00     0.054 C 
HETATM    9  C14 UNL     1      28.085   7.467  47.316  1.00  0.00     0.023 C 
HETATM   10  C15 UNL     1      28.629   8.850  47.431  1.00  0.00     0.123 C 
HETATM   11  N4  UNL     1      28.911   9.241  48.813  1.00  0.00    -0.358 N 
HETATM   12  C16 UNL     1      27.785   9.026  49.655  1.00  0.00     0.256 C 
HETATM   13  H22 UNL     1      29.740   9.640  49.326  1.00  0.00     0.162 HD
HETATM   14  O1  UNL     1      27.525   9.703  50.711  1.00  0.00    -0.270 OA
BRANCH   7  15
HETATM   15  S2  UNL     1      25.417   8.541  48.347  1.00  0.00    -0.141 SA
HETATM   16  H15 UNL     1      25.710   9.739  47.672  1.00  0.00     0.104 HD
ENDBRANCH   7  15
ENDBRANCH   5   7
ENDBRANCH   4   5
BRANCH   1  17
HETATM   17  S1  UNL     1      24.939   4.155  49.288  1.00  0.00    -0.117 SA
BRANCH  17  18
HETATM   18  C8  UNL     1      26.413   3.529  50.154  1.00  0.00     0.166 C 
BRANCH  18  19
HETATM   19  C7  UNL     1      25.957   2.446  51.065  1.00  0.00     0.154 A 
HETATM   20  N1  UNL     1      24.744   2.009  51.448  1.00  0.00    -0.237 NA
HETATM   21  C6  UNL     1      24.874   0.975  52.308  1.00  0.00     0.152 A 
HETATM   22  C5  UNL     1      26.219   0.789  52.442  1.00  0.00     0.080 A 
HETATM   23  O2  UNL     1      26.835   1.675  51.694  1.00  0.00    -0.297 OA
BRANCH  22  24
HETATM   24  C2  UNL     1      26.962  -0.212  53.266  1.00  0.00    -0.000 C 
HETATM   25  C1  UNL     1      26.340  -0.162  54.646  1.00  0.00     0.021 C 
HETATM   26  C3  UNL     1      26.795  -1.581  52.668  1.00  0.00     0.021 C 
HETATM   27  C4  UNL     1      28.418   0.180  53.373  1.00  0.00     0.021 C 
ENDBRANCH  22  24
ENDBRANCH  18  19
ENDBRANCH  17  18
ENDBRANCH   1  17
TORSDOF 7
ENDMDL
MODEL 8
REMARK VINA RESULT:      -6.4      3.394      6.466
REMARK  7 active torsions:
REMARK  status: ('A' for Active; 'I' for Inactive)
REMARK    1  A    between atoms: C2_2  and  C5_5 
REMARK    2  A    between atoms: C7_8  and  C8_9 
REMARK    3  A    between atoms: C8_9  and  S1_10 
REMARK    4  A    between atoms: S1_10  and  C9_11 
REMARK    5  A    between atoms: C11_14  and  N3_15 
REMARK    6  A    between atoms: N3_15  and  C12_16 
REMARK    7  A    between atoms: C12_16  and  S2_17 
ROOT
HETATM    1  C9  UNL     1      23.334   1.603  52.982  1.00  0.00     0.064 A 
HETATM    2  C10 UNL     1      22.901   2.705  52.361  1.00  0.00     0.141 A 
HETATM    3  N2  UNL     1      24.105   3.410  52.630  1.00  0.00    -0.241 NA
HETATM    4  C11 UNL     1      24.570   2.372  53.241  1.00  0.00     0.143 A 
ENDROOT
BRANCH   4   5
HETATM    5  N3  UNL     1      25.807   2.109  53.900  1.00  0.00    -0.348 N 
HETATM    6  H14 UNL     1      25.974   2.633  54.809  1.00  0.00     0.163 HD
BRANCH   5   7
HETATM    7  C12 UNL     1      26.767   1.173  53.344  1.00  0.00     0.160 C 
HETATM    8  C13 UNL     1      26.447  -0.247  53.700  1.00  0.00     0.054 C 
HETATM    9  C14 UNL     1      27.463  -1.175  53.118  1.00  0.00     0.023 C 
HETATM   10  C15 UNL     1      28.870  -0.686  53.177  1.00  0.00     0.123 C 
HETATM   11  N4  UNL     1      29.059   0.396  54.145  1.00  0.00    -0.358 N 
HETATM   12  C16 UNL     1      28.124   1.448  53.940  1.00  0.00     0.256 C 
HETATM   13  H22 UNL     1      29.717   0.578  54.948  1.00  0.00     0.162 HD
HETATM   14  O1  UNL     1      28.335   2.677  54.230  1.00  0.00    -0.270 OA
BRANCH   7  15
HETATM   15  S2  UNL     1      26.757   1.354  51.557  1.00  0.00    -0.141 SA
HETATM   16  H15 UNL     1      25.462   1.472  51.022  1.00  0.00     0.104 HD
ENDBRANCH   7  15
ENDBRANCH   5   7
ENDBRANCH   4   5
BRANCH   1  17
HETATM   17  S1  UNL     1      22.787  -0.071  53.382  1.00  0.00    -0.117 SA
BRANCH  17  18
HETATM   18  C8  UNL     1      21.321   0.042  54.455  1.00  0.00     0.166 C 
BRANCH  18  19
HETATM   19  C7  UNL     1      20.130  -0.177  53.591  1.00  0.00     0.154 A 
HETATM   20  N1  UNL     1      19.125  -1.072  53.611  1.00  0.00    -0.237 NA
HETATM   21  C6  UNL     1      18.277  -0.838  52.585  1.00  0.00     0.152 A 
HETATM   22  C5  UNL     1      18.798   0.239  51.930  1.00  0.00     0.080 A 
HETATM   23  O2  UNL     1      19.895   0.609  52.548  1.00  0.00    -0.297 OA
BRANCH  22  24
HETATM   24  C2  UNL     1      18.290   0.948  50.715  1.00  0.00    -0.000 C 
HETATM   25  C1  UNL     1      19.503   1.206  49.844  1.00  0.00     0.021 C 
HETATM   26  C3  UNL     1      17.308   0.070  49.993  1.00  0.00     0.021 C 
HETATM   27  C4  UNL     1      17.678   2.273  51.105  1.00  0.00     0.021 C 
ENDBRANCH  22  24
ENDBRANCH  18  19
ENDBRANCH  17  18
ENDBRANCH   1  17
TORSDOF 7
ENDMDL
MODEL 9
REMARK VINA RESULT:      -6.2      1.873      2.194
REMARK  7 active torsions:
REMARK  status: ('A' for Active; 'I' for Inactive)
REMARK    1  A    between atoms: C2_2  and  C5_5 
REMARK    2  A    between atoms: C7_8  and  C8_9 
REMARK    3  A    between atoms: C8_9  and  S1_10 
REMARK    4  A    between atoms: S1_10  and  C9_11 
REMARK    5  A    between atoms: C11_14  and  N3_15 
REMARK    6  A    between atoms: N3_15  and  C12_16 
REMARK    7  A    between atoms: C12_16  and  S2_17 
ROOT
HETATM    1  C9  UNL     1      20.172   3.662  50.514  1.00  0.00     0.064 A 
HETATM    2  C10 UNL     1      19.248   4.120  49.662  1.00  0.00     0.141 A 
HETATM    3  N2  UNL     1      19.721   5.456  49.764  1.00  0.00    -0.241 NA
HETATM    4  C11 UNL     1      20.632   5.066  50.590  1.00  0.00     0.143 A 
ENDROOT
BRANCH   4   5
HETATM    5  N3  UNL     1      21.666   5.755  51.289  1.00  0.00    -0.348 N 
HETATM    6  H14 UNL     1      21.376   6.261  52.176  1.00  0.00     0.163 HD
BRANCH   5   7
HETATM    7  C12 UNL     1      23.033   5.750  50.798  1.00  0.00     0.160 C 
HETATM    8  C13 UNL     1      23.136   5.185  49.414  1.00  0.00     0.054 C 
HETATM    9  C14 UNL     1      24.557   5.187  48.952  1.00  0.00     0.023 C 
HETATM   10  C15 UNL     1      25.559   4.815  49.991  1.00  0.00     0.123 C 
HETATM   11  N4  UNL     1      24.965   4.121  51.135  1.00  0.00    -0.358 N 
HETATM   12  C16 UNL     1      23.865   4.847  51.671  1.00  0.00     0.256 C 
HETATM   13  H22 UNL     1      25.157   3.222  51.649  1.00  0.00     0.162 HD
HETATM   14  O1  UNL     1      23.494   4.806  52.896  1.00  0.00    -0.270 OA
BRANCH   7  15
HETATM   15  S2  UNL     1      23.634   7.442  50.795  1.00  0.00    -0.141 SA
HETATM   16  H15 UNL     1      25.029   7.532  50.645  1.00  0.00     0.104 HD
ENDBRANCH   7  15
ENDBRANCH   5   7
ENDBRANCH   4   5
BRANCH   1  17
HETATM   17  S1  UNL     1      20.710   2.119  51.280  1.00  0.00    -0.117 SA
BRANCH  17  18
HETATM   18  C8  UNL     1      22.346   1.682  50.613  1.00  0.00     0.166 C 
BRANCH  18  19
HETATM   19  C7  UNL     1      23.114   1.050  51.718  1.00  0.00     0.154 A 
HETATM   20  N1  UNL     1      22.755   0.396  52.838  1.00  0.00    -0.237 NA
HETATM   21  C6  UNL     1      23.855   0.012  53.523  1.00  0.00     0.152 A 
HETATM   22  C5  UNL     1      24.910   0.454  52.781  1.00  0.00     0.080 A 
HETATM   23  O2  UNL     1      24.441   1.065  51.718  1.00  0.00    -0.297 OA
BRANCH  22  24
HETATM   24  C2  UNL     1      26.376   0.321  53.041  1.00  0.00    -0.000 C 
HETATM   25  C1  UNL     1      26.773  -1.040  52.509  1.00  0.00     0.021 C 
HETATM   26  C3  UNL     1      27.118   1.404  52.309  1.00  0.00     0.021 C 
HETATM   27  C4  UNL     1      26.646   0.362  54.528  1.00  0.00     0.021 C 
ENDBRANCH  22  24
ENDBRANCH  18  19
ENDBRANCH  17  18
ENDBRANCH   1  17
TORSDOF 7
ENDMDL
