MODEL 1
REMARK VINA RESULT:      -8.1      0.000      0.000
REMARK  4 active torsions:
REMARK  status: ('A' for Active; 'I' for Inactive)
REMARK    1  A    between atoms: C2_2  and  C3_3 
REMARK       I    between atoms: C3_3  and  N1_5 
REMARK    2  A    between atoms: N1_5  and  C4_6 
REMARK    3  A    between atoms: C14_18  and  C15_19 
REMARK    4  A    between atoms: C16_20  and  O4_21 
REMARK       I    between atoms: N3_27  and  C21_28 
ROOT
HETATM    1  C4  UNL     1      26.040   3.765  50.002  1.00  0.00     0.037 A 
HETATM    2  C5  UNL     1      25.102   4.761  50.164  1.00  0.00     0.032 A 
HETATM    3  C6  UNL     1      25.310   5.989  49.562  1.00  0.00     0.034 A 
HETATM    4  C7  UNL     1      26.442   6.274  48.788  1.00  0.00     0.063 A 
HETATM    5  C8  UNL     1      27.346   5.225  48.665  1.00  0.00     0.097 A 
HETATM    6  C9  UNL     1      27.163   4.001  49.249  1.00  0.00     0.068 A 
HETATM    7  O2  UNL     1      28.338   5.814  47.853  1.00  0.00    -0.342 OA
HETATM    8  C10 UNL     1      29.148   6.803  48.501  1.00  0.00     0.254 C 
HETATM    9  C11 UNL     1      30.066   7.380  47.508  1.00  0.00     0.154 C 
HETATM   10  O3  UNL     1      30.280   6.990  46.372  1.00  0.00    -0.295 OA
HETATM   11  C12 UNL     1      30.668   8.558  48.209  1.00  0.00     0.110 C 
HETATM   12  C13 UNL     1      29.688   9.664  48.292  1.00  0.00     0.010 C 
HETATM   13  C14 UNL     1      28.469   9.871  47.830  1.00  0.00     0.030 C 
HETATM   14  N2  UNL     1      27.564   9.135  47.020  1.00  0.00    -0.358 N 
HETATM   15  C18 UNL     1      27.666   9.867  45.746  1.00  0.00     0.127 C 
HETATM   16  C19 UNL     1      27.810   8.938  44.586  1.00  0.00     0.040 C 
HETATM   17  C20 UNL     1      26.442   8.823  43.955  1.00  0.00     0.127 C 
HETATM   18  N3  UNL     1      25.397   8.450  44.861  1.00  0.00    -0.349 N 
HETATM   19  C21 UNL     1      24.167   8.169  44.199  1.00  0.00     0.215 C 
HETATM   20  C22 UNL     1      23.991   8.253  42.737  1.00  0.00     0.117 C 
HETATM   21  O5  UNL     1      23.141   7.824  44.852  1.00  0.00    -0.274 OA
HETATM   22  C23 UNL     1      25.359   8.306  46.299  1.00  0.00     0.172 C 
HETATM   23  C24 UNL     1      26.643   8.037  46.957  1.00  0.00     0.202 C 
HETATM   24  N4  UNL     1      26.373   7.608  48.311  1.00  0.00    -0.365 N 
HETATM   25  H30 UNL     1      26.109   8.371  48.969  1.00  0.00     0.162 HD
ENDROOT
BRANCH   1  26
HETATM   26  N1  UNL     1      25.980   2.457  50.552  1.00  0.00    -0.324 N 
HETATM   27  C3  UNL     1      26.756   1.868  51.579  1.00  0.00     0.244 C 
HETATM   28  O1  UNL     1      27.670   2.488  52.180  1.00  0.00    -0.268 OA
HETATM   29  H4  UNL     1      25.214   1.910  50.061  1.00  0.00     0.169 HD
BRANCH  27  30
HETATM   30  C2  UNL     1      26.494   0.491  51.962  1.00  0.00     0.064 C 
HETATM   31  C1  UNL     1      27.295  -0.147  52.792  1.00  0.00     0.017 C 
ENDBRANCH  27  30
ENDBRANCH   1  26
BRANCH  13  32
HETATM   32  C15 UNL     1      27.909  11.141  48.191  1.00  0.00     0.053 C 
HETATM   33  C16 UNL     1      28.432  12.138  48.836  1.00  0.00     0.136 C 
BRANCH  33  34
HETATM   34  O4  UNL     1      27.946  13.381  49.211  1.00  0.00    -0.368 OA
HETATM   35  C17 UNL     1      27.160  14.095  48.277  1.00  0.00     0.208 C 
ENDBRANCH  33  34
ENDBRANCH  13  32
TORSDOF 4
ENDMDL
MODEL 2
REMARK VINA RESULT:      -7.9      3.555      7.002
REMARK  4 active torsions:
REMARK  status: ('A' for Active; 'I' for Inactive)
REMARK    1  A    between atoms: C2_2  and  C3_3 
REMARK       I    between atoms: C3_3  and  N1_5 
REMARK    2  A    between atoms: N1_5  and  C4_6 
REMARK    3  A    between atoms: C14_18  and  C15_19 
REMARK    4  A    between atoms: C16_20  and  O4_21 
REMARK       I    between atoms: N3_27  and  C21_28 
ROOT
HETATM    1  C4  UNL     1      26.274   2.135  51.812  1.00  0.00     0.037 A 
HETATM    2  C5  UNL     1      26.709   2.284  50.513  1.00  0.00     0.032 A 
HETATM    3  C6  UNL     1      25.955   3.037  49.630  1.00  0.00     0.034 A 
HETATM    4  C7  UNL     1      24.756   3.661  49.996  1.00  0.00     0.063 A 
HETATM    5  C8  UNL     1      24.377   3.470  51.319  1.00  0.00     0.097 A 
HETATM    6  C9  UNL     1      25.105   2.731  52.212  1.00  0.00     0.068 A 
HETATM    7  O2  UNL     1      23.171   4.201  51.366  1.00  0.00    -0.342 OA
HETATM    8  C10 UNL     1      22.069   3.604  50.673  1.00  0.00     0.254 C 
HETATM    9  C11 UNL     1      20.921   4.521  50.739  1.00  0.00     0.154 C 
HETATM   10  O3  UNL     1      20.810   5.531  51.413  1.00  0.00    -0.295 OA
HETATM   11  C12 UNL     1      19.930   3.934  49.782  1.00  0.00     0.110 C 
HETATM   12  C13 UNL     1      20.351   4.186  48.386  1.00  0.00     0.010 C 
HETATM   13  C14 UNL     1      21.328   4.859  47.810  1.00  0.00     0.030 C 
HETATM   14  N2  UNL     1      22.397   5.670  48.274  1.00  0.00    -0.358 N 
HETATM   15  C18 UNL     1      21.900   7.014  47.933  1.00  0.00     0.127 C 
HETATM   16  C19 UNL     1      22.079   7.973  49.064  1.00  0.00     0.040 C 
HETATM   17  C20 UNL     1      23.316   8.782  48.751  1.00  0.00     0.127 C 
HETATM   18  N3  UNL     1      24.484   8.002  48.471  1.00  0.00    -0.349 N 
HETATM   19  C21 UNL     1      25.664   8.793  48.368  1.00  0.00     0.215 C 
HETATM   20  C22 UNL     1      25.680  10.259  48.533  1.00  0.00     0.117 C 
HETATM   21  O5  UNL     1      26.785   8.262  48.124  1.00  0.00    -0.274 OA
HETATM   22  C23 UNL     1      24.686   6.584  48.279  1.00  0.00     0.172 C 
HETATM   23  C24 UNL     1      23.690   5.698  48.895  1.00  0.00     0.202 C 
HETATM   24  N4  UNL     1      24.216   4.352  48.881  1.00  0.00    -0.365 N 
HETATM   25  H30 UNL     1      24.179   3.875  47.956  1.00  0.00     0.162 HD
ENDROOT
BRANCH   1  26
HETATM   26  N1  UNL     1      26.925   1.396  52.835  1.00  0.00    -0.324 N 
HETATM   27  C3  UNL     1      28.137   1.664  53.516  1.00  0.00     0.244 C 
HETATM   28  O1  UNL     1      28.843   2.677  53.275  1.00  0.00    -0.268 OA
HETATM   29  H4  UNL     1      26.349   0.534  53.060  1.00  0.00     0.169 HD
BRANCH  27  30
HETATM   30  C2  UNL     1      28.595   0.737  54.537  1.00  0.00     0.064 C 
HETATM   31  C1  UNL     1      29.273  -0.346  54.215  1.00  0.00     0.017 C 
ENDBRANCH  27  30
ENDBRANCH   1  26
BRANCH  13  32
HETATM   32  C15 UNL     1      21.321   4.801  46.377  1.00  0.00     0.053 C 
HETATM   33  C16 UNL     1      21.523   3.800  45.575  1.00  0.00     0.136 C 
BRANCH  33  34
HETATM   34  O4  UNL     1      21.529   3.681  44.194  1.00  0.00    -0.368 OA
HETATM   35  C17 UNL     1      20.356   4.044  43.492  1.00  0.00     0.208 C 
ENDBRANCH  33  34
ENDBRANCH  13  32
TORSDOF 4
ENDMDL
MODEL 3
REMARK VINA RESULT:      -7.6      4.599      7.669
REMARK  4 active torsions:
REMARK  status: ('A' for Active; 'I' for Inactive)
REMARK    1  A    between atoms: C2_2  and  C3_3 
REMARK       I    between atoms: C3_3  and  N1_5 
REMARK    2  A    between atoms: N1_5  and  C4_6 
REMARK    3  A    between atoms: C14_18  and  C15_19 
REMARK    4  A    between atoms: C16_20  and  O4_21 
REMARK       I    between atoms: N3_27  and  C21_28 
ROOT
HETATM    1  C4  UNL     1      26.178   2.846  51.409  1.00  0.00     0.037 A 
HETATM    2  C5  UNL     1      26.456   3.170  50.098  1.00  0.00     0.032 A 
HETATM    3  C6  UNL     1      25.431   3.607  49.279  1.00  0.00     0.034 A 
HETATM    4  C7  UNL     1      24.109   3.738  49.720  1.00  0.00     0.063 A 
HETATM    5  C8  UNL     1      23.899   3.395  51.050  1.00  0.00     0.097 A 
HETATM    6  C9  UNL     1      24.895   2.961  51.882  1.00  0.00     0.068 A 
HETATM    7  O2  UNL     1      22.513   3.629  51.177  1.00  0.00    -0.342 OA
HETATM    8  C10 UNL     1      21.672   2.680  50.511  1.00  0.00     0.254 C 
HETATM    9  C11 UNL     1      20.273   3.108  50.662  1.00  0.00     0.154 C 
HETATM   10  O3  UNL     1      19.835   3.993  51.377  1.00  0.00    -0.295 OA
HETATM   11  C12 UNL     1      19.516   2.215  49.728  1.00  0.00     0.110 C 
HETATM   12  C13 UNL     1      19.738   2.630  48.325  1.00  0.00     0.010 C 
HETATM   13  C14 UNL     1      20.366   3.627  47.732  1.00  0.00     0.030 C 
HETATM   14  N2  UNL     1      21.086   4.767  48.179  1.00  0.00    -0.358 N 
HETATM   15  C18 UNL     1      20.112   5.839  47.912  1.00  0.00     0.127 C 
HETATM   16  C19 UNL     1      19.987   6.774  49.069  1.00  0.00     0.040 C 
HETATM   17  C20 UNL     1      20.820   7.988  48.733  1.00  0.00     0.127 C 
HETATM   18  N3  UNL     1      22.176   7.700  48.373  1.00  0.00    -0.349 N 
HETATM   19  C21 UNL     1      22.976   8.873  48.248  1.00  0.00     0.215 C 
HETATM   20  C22 UNL     1      22.460  10.238  48.467  1.00  0.00     0.117 C 
HETATM   21  O5  UNL     1      24.198   8.797  47.935  1.00  0.00    -0.274 OA
HETATM   22  C23 UNL     1      22.875   6.460  48.119  1.00  0.00     0.172 C 
HETATM   23  C24 UNL     1      22.310   5.259  48.744  1.00  0.00     0.202 C 
HETATM   24  N4  UNL     1      23.292   4.202  48.657  1.00  0.00    -0.365 N 
HETATM   25  H30 UNL     1      23.383   3.762  47.716  1.00  0.00     0.162 HD
ENDROOT
BRANCH   1  26
HETATM   26  N1  UNL     1      27.109   2.381  52.374  1.00  0.00    -0.324 N 
HETATM   27  C3  UNL     1      27.480   1.057  52.713  1.00  0.00     0.244 C 
HETATM   28  O1  UNL     1      26.988   0.047  52.148  1.00  0.00    -0.268 OA
HETATM   29  H4  UNL     1      27.542   3.215  52.868  1.00  0.00     0.169 HD
BRANCH  27  30
HETATM   30  C2  UNL     1      28.471   0.845  53.755  1.00  0.00     0.064 C 
HETATM   31  C1  UNL     1      29.395  -0.086  53.633  1.00  0.00     0.017 C 
ENDBRANCH  27  30
ENDBRANCH   1  26
BRANCH  13  32
HETATM   32  C15 UNL     1      20.303   3.598  46.300  1.00  0.00     0.053 C 
HETATM   33  C16 UNL     1      21.252   3.655  45.415  1.00  0.00     0.136 C 
BRANCH  33  34
HETATM   34  O4  UNL     1      21.255   3.631  44.030  1.00  0.00    -0.368 OA
HETATM   35  C17 UNL     1      20.009   3.687  43.362  1.00  0.00     0.208 C 
ENDBRANCH  33  34
ENDBRANCH  13  32
TORSDOF 4
ENDMDL
MODEL 4
REMARK VINA RESULT:      -7.6      2.309      5.401
REMARK  4 active torsions:
REMARK  status: ('A' for Active; 'I' for Inactive)
REMARK    1  A    between atoms: C2_2  and  C3_3 
REMARK       I    between atoms: C3_3  and  N1_5 
REMARK    2  A    between atoms: N1_5  and  C4_6 
REMARK    3  A    between atoms: C14_18  and  C15_19 
REMARK    4  A    between atoms: C16_20  and  O4_21 
REMARK       I    between atoms: N3_27  and  C21_28 
ROOT
HETATM    1  C4  UNL     1      25.592   2.952  51.133  1.00  0.00     0.037 A 
HETATM    2  C5  UNL     1      26.468   2.877  50.071  1.00  0.00     0.032 A 
HETATM    3  C6  UNL     1      26.558   3.942  49.193  1.00  0.00     0.034 A 
HETATM    4  C7  UNL     1      25.793   5.107  49.331  1.00  0.00     0.063 A 
HETATM    5  C8  UNL     1      24.932   5.116  50.422  1.00  0.00     0.097 A 
HETATM    6  C9  UNL     1      24.825   4.076  51.305  1.00  0.00     0.068 A 
HETATM    7  O2  UNL     1      24.328   6.383  50.283  1.00  0.00    -0.342 OA
HETATM    8  C10 UNL     1      23.400   6.500  49.197  1.00  0.00     0.254 C 
HETATM    9  C11 UNL     1      22.929   7.891  49.131  1.00  0.00     0.154 C 
HETATM   10  O3  UNL     1      23.109   8.780  49.946  1.00  0.00    -0.295 OA
HETATM   11  C12 UNL     1      22.187   7.963  47.833  1.00  0.00     0.110 C 
HETATM   12  C13 UNL     1      23.136   7.985  46.698  1.00  0.00     0.010 C 
HETATM   13  C14 UNL     1      24.449   8.035  46.577  1.00  0.00     0.030 C 
HETATM   14  N2  UNL     1      25.538   8.122  47.484  1.00  0.00    -0.358 N 
HETATM   15  C18 UNL     1      25.937   9.529  47.312  1.00  0.00     0.127 C 
HETATM   16  C19 UNL     1      26.161  10.205  48.624  1.00  0.00     0.040 C 
HETATM   17  C20 UNL     1      27.654  10.221  48.851  1.00  0.00     0.127 C 
HETATM   18  N3  UNL     1      28.286   8.940  48.752  1.00  0.00    -0.349 N 
HETATM   19  C21 UNL     1      29.653   8.966  49.155  1.00  0.00     0.215 C 
HETATM   20  C22 UNL     1      30.340  10.184  49.626  1.00  0.00     0.117 C 
HETATM   21  O5  UNL     1      30.359   7.918  49.129  1.00  0.00    -0.274 OA
HETATM   22  C23 UNL     1      27.804   7.646  48.327  1.00  0.00     0.172 C 
HETATM   23  C24 UNL     1      26.356   7.426  48.435  1.00  0.00     0.202 C 
HETATM   24  N4  UNL     1      26.104   6.011  48.284  1.00  0.00    -0.365 N 
HETATM   25  H30 UNL     1      26.161   5.657  47.305  1.00  0.00     0.162 HD
ENDROOT
BRANCH   1  26
HETATM   26  N1  UNL     1      25.378   1.950  52.116  1.00  0.00    -0.324 N 
HETATM   27  C3  UNL     1      24.273   1.086  52.305  1.00  0.00     0.244 C 
HETATM   28  O1  UNL     1      23.261   1.102  51.557  1.00  0.00    -0.268 OA
HETATM   29  H4  UNL     1      26.219   1.915  52.763  1.00  0.00     0.169 HD
BRANCH  27  30
HETATM   30  C2  UNL     1      24.297   0.137  53.405  1.00  0.00     0.064 C 
HETATM   31  C1  UNL     1      25.402  -0.509  53.720  1.00  0.00     0.017 C 
ENDBRANCH  27  30
ENDBRANCH   1  26
BRANCH  13  32
HETATM   32  C15 UNL     1      24.918   8.029  45.222  1.00  0.00     0.053 C 
HETATM   33  C16 UNL     1      24.264   8.133  44.105  1.00  0.00     0.136 C 
BRANCH  33  34
HETATM   34  O4  UNL     1      24.657   8.135  42.776  1.00  0.00    -0.368 OA
HETATM   35  C17 UNL     1      23.666   8.361  41.792  1.00  0.00     0.208 C 
ENDBRANCH  33  34
ENDBRANCH  13  32
TORSDOF 4
ENDMDL
MODEL 5
REMARK VINA RESULT:      -7.6      6.401      8.524
REMARK  4 active torsions:
REMARK  status: ('A' for Active; 'I' for Inactive)
REMARK    1  A    between atoms: C2_2  and  C3_3 
REMARK       I    between atoms: C3_3  and  N1_5 
REMARK    2  A    between atoms: N1_5  and  C4_6 
REMARK    3  A    between atoms: C14_18  and  C15_19 
REMARK    4  A    between atoms: C16_20  and  O4_21 
REMARK       I    between atoms: N3_27  and  C21_28 
ROOT
HETATM    1  C4  UNL     1      26.304   1.860  52.901  1.00  0.00     0.037 A 
HETATM    2  C5  UNL     1      25.435   2.482  53.771  1.00  0.00     0.032 A 
HETATM    3  C6  UNL     1      24.206   2.914  53.306  1.00  0.00     0.034 A 
HETATM    4  C7  UNL     1      23.796   2.748  51.978  1.00  0.00     0.063 A 
HETATM    5  C8  UNL     1      24.718   2.113  51.155  1.00  0.00     0.097 A 
HETATM    6  C9  UNL     1      25.940   1.676  51.590  1.00  0.00     0.068 A 
HETATM    7  O2  UNL     1      24.026   2.101  49.926  1.00  0.00    -0.342 OA
HETATM    8  C10 UNL     1      23.909   3.374  49.280  1.00  0.00     0.254 C 
HETATM    9  C11 UNL     1      23.092   3.211  48.068  1.00  0.00     0.154 C 
HETATM   10  O3  UNL     1      22.720   2.171  47.552  1.00  0.00    -0.295 OA
HETATM   11  C12 UNL     1      22.818   4.614  47.622  1.00  0.00     0.110 C 
HETATM   12  C13 UNL     1      21.808   5.245  48.501  1.00  0.00     0.010 C 
HETATM   13  C14 UNL     1      21.059   4.839  49.507  1.00  0.00     0.030 C 
HETATM   14  N2  UNL     1      20.864   3.603  50.178  1.00  0.00    -0.358 N 
HETATM   15  C18 UNL     1      19.550   3.198  49.648  1.00  0.00     0.127 C 
HETATM   16  C19 UNL     1      19.541   1.765  49.230  1.00  0.00     0.040 C 
HETATM   17  C20 UNL     1      18.884   0.994  50.350  1.00  0.00     0.127 C 
HETATM   18  N3  UNL     1      19.464   1.210  51.642  1.00  0.00    -0.349 N 
HETATM   19  C21 UNL     1      18.945   0.329  52.634  1.00  0.00     0.215 C 
HETATM   20  C22 UNL     1      17.920  -0.696  52.359  1.00  0.00     0.117 C 
HETATM   21  O5  UNL     1      19.349   0.385  53.831  1.00  0.00    -0.274 OA
HETATM   22  C23 UNL     1      20.463   2.139  52.119  1.00  0.00     0.172 C 
HETATM   23  C24 UNL     1      21.399   2.656  51.113  1.00  0.00     0.202 C 
HETATM   24  N4  UNL     1      22.497   3.291  51.806  1.00  0.00    -0.365 N 
HETATM   25  H30 UNL     1      22.283   4.232  52.200  1.00  0.00     0.162 HD
ENDROOT
BRANCH   1  26
HETATM   26  N1  UNL     1      27.596   1.364  53.216  1.00  0.00    -0.324 N 
HETATM   27  C3  UNL     1      27.973   0.250  54.004  1.00  0.00     0.244 C 
HETATM   28  O1  UNL     1      27.135  -0.500  54.567  1.00  0.00    -0.268 OA
HETATM   29  H4  UNL     1      28.326   1.979  52.752  1.00  0.00     0.169 HD
BRANCH  27  30
HETATM   30  C2  UNL     1      29.385  -0.050  54.177  1.00  0.00     0.064 C 
HETATM   31  C1  UNL     1      29.974  -0.983  53.458  1.00  0.00     0.017 C 
ENDBRANCH  27  30
ENDBRANCH   1  26
BRANCH  13  32
HETATM   32  C15 UNL     1      20.209   5.854  50.059  1.00  0.00     0.053 C 
HETATM   33  C16 UNL     1      20.042   7.093  49.707  1.00  0.00     0.136 C 
BRANCH  33  34
HETATM   34  O4  UNL     1      19.242   8.114  50.196  1.00  0.00    -0.368 OA
HETATM   35  C17 UNL     1      19.617   9.447  49.904  1.00  0.00     0.208 C 
ENDBRANCH  33  34
ENDBRANCH  13  32
TORSDOF 4
ENDMDL
MODEL 6
REMARK VINA RESULT:      -7.3      3.766      7.950
REMARK  4 active torsions:
REMARK  status: ('A' for Active; 'I' for Inactive)
REMARK    1  A    between atoms: C2_2  and  C3_3 
REMARK       I    between atoms: C3_3  and  N1_5 
REMARK    2  A    between atoms: N1_5  and  C4_6 
REMARK    3  A    between atoms: C14_18  and  C15_19 
REMARK    4  A    between atoms: C16_20  and  O4_21 
REMARK       I    between atoms: N3_27  and  C21_28 
ROOT
HETATM    1  C4  UNL     1      27.574   8.668  48.107  1.00  0.00     0.037 A 
HETATM    2  C5  UNL     1      26.850   8.766  46.939  1.00  0.00     0.032 A 
HETATM    3  C6  UNL     1      25.642   8.099  46.836  1.00  0.00     0.034 A 
HETATM    4  C7  UNL     1      25.114   7.318  47.871  1.00  0.00     0.063 A 
HETATM    5  C8  UNL     1      25.895   7.263  49.020  1.00  0.00     0.097 A 
HETATM    6  C9  UNL     1      27.092   7.914  49.148  1.00  0.00     0.068 A 
HETATM    7  O2  UNL     1      25.112   6.428  49.843  1.00  0.00    -0.342 OA
HETATM    8  C10 UNL     1      25.084   5.048  49.461  1.00  0.00     0.254 C 
HETATM    9  C11 UNL     1      24.163   4.332  50.356  1.00  0.00     0.154 C 
HETATM   10  O3  UNL     1      23.640   4.746  51.377  1.00  0.00    -0.295 OA
HETATM   11  C12 UNL     1      24.009   2.986  49.719  1.00  0.00     0.110 C 
HETATM   12  C13 UNL     1      23.145   3.078  48.521  1.00  0.00     0.010 C 
HETATM   13  C14 UNL     1      22.437   4.033  47.950  1.00  0.00     0.030 C 
HETATM   14  N2  UNL     1      22.161   5.394  48.249  1.00  0.00    -0.358 N 
HETATM   15  C18 UNL     1      20.774   5.300  48.736  1.00  0.00     0.127 C 
HETATM   16  C19 UNL     1      20.576   6.081  49.993  1.00  0.00     0.040 C 
HETATM   17  C20 UNL     1      19.929   7.385  49.591  1.00  0.00     0.127 C 
HETATM   18  N3  UNL     1      20.628   8.109  48.572  1.00  0.00    -0.349 N 
HETATM   19  C21 UNL     1      20.094   9.413  48.356  1.00  0.00     0.215 C 
HETATM   20  C22 UNL     1      18.945   9.958  49.104  1.00  0.00     0.117 C 
HETATM   21  O5  UNL     1      20.595  10.185  47.489  1.00  0.00    -0.274 OA
HETATM   22  C23 UNL     1      21.756   7.769  47.735  1.00  0.00     0.172 C 
HETATM   23  C24 UNL     1      22.662   6.738  48.257  1.00  0.00     0.202 C 
HETATM   24  N4  UNL     1      23.873   6.763  47.468  1.00  0.00    -0.365 N 
HETATM   25  H30 UNL     1      23.793   6.324  46.526  1.00  0.00     0.162 HD
ENDROOT
BRANCH   1  26
HETATM   26  N1  UNL     1      28.826   9.284  48.373  1.00  0.00    -0.324 N 
HETATM   27  C3  UNL     1      29.112  10.547  48.944  1.00  0.00     0.244 C 
HETATM   28  O1  UNL     1      28.214  11.344  49.319  1.00  0.00    -0.268 OA
HETATM   29  H4  UNL     1      29.605   8.632  48.066  1.00  0.00     0.169 HD
BRANCH  27  30
HETATM   30  C2  UNL     1      30.498  10.951  49.109  1.00  0.00     0.064 C 
HETATM   31  C1  UNL     1      30.857  12.213  48.985  1.00  0.00     0.017 C 
ENDBRANCH  27  30
ENDBRANCH   1  26
BRANCH  13  32
HETATM   32  C15 UNL     1      21.748   3.627  46.759  1.00  0.00     0.053 C 
HETATM   33  C16 UNL     1      21.969   3.927  45.516  1.00  0.00     0.136 C 
BRANCH  33  34
HETATM   34  O4  UNL     1      21.346   3.569  44.331  1.00  0.00    -0.368 OA
HETATM   35  C17 UNL     1      19.951   3.782  44.225  1.00  0.00     0.208 C 
ENDBRANCH  33  34
ENDBRANCH  13  32
TORSDOF 4
ENDMDL
MODEL 7
REMARK VINA RESULT:      -7.2      4.568      9.674
REMARK  4 active torsions:
REMARK  status: ('A' for Active; 'I' for Inactive)
REMARK    1  A    between atoms: C2_2  and  C3_3 
REMARK       I    between atoms: C3_3  and  N1_5 
REMARK    2  A    between atoms: N1_5  and  C4_6 
REMARK    3  A    between atoms: C14_18  and  C15_19 
REMARK    4  A    between atoms: C16_20  and  O4_21 
REMARK       I    between atoms: N3_27  and  C21_28 
ROOT
HETATM    1  C4  UNL     1      25.168   8.106  48.970  1.00  0.00     0.037 A 
HETATM    2  C5  UNL     1      24.736   8.198  50.276  1.00  0.00     0.032 A 
HETATM    3  C6  UNL     1      23.850   7.254  50.763  1.00  0.00     0.034 A 
HETATM    4  C7  UNL     1      23.363   6.196  49.985  1.00  0.00     0.063 A 
HETATM    5  C8  UNL     1      23.839   6.163  48.679  1.00  0.00     0.097 A 
HETATM    6  C9  UNL     1      24.716   7.084  48.174  1.00  0.00     0.068 A 
HETATM    7  O2  UNL     1      23.182   5.019  48.179  1.00  0.00    -0.342 OA
HETATM    8  C10 UNL     1      21.775   5.173  47.957  1.00  0.00     0.254 C 
HETATM    9  C11 UNL     1      21.225   3.879  47.524  1.00  0.00     0.154 C 
HETATM   10  O3  UNL     1      21.839   2.875  47.206  1.00  0.00    -0.295 OA
HETATM   11  C12 UNL     1      19.742   4.079  47.574  1.00  0.00     0.110 C 
HETATM   12  C13 UNL     1      19.269   4.076  48.976  1.00  0.00     0.010 C 
HETATM   13  C14 UNL     1      19.828   3.864  50.152  1.00  0.00     0.030 C 
HETATM   14  N2  UNL     1      21.131   3.511  50.595  1.00  0.00    -0.358 N 
HETATM   15  C18 UNL     1      20.933   2.097  50.956  1.00  0.00     0.127 C 
HETATM   16  C19 UNL     1      22.026   1.232  50.423  1.00  0.00     0.040 C 
HETATM   17  C20 UNL     1      22.976   0.982  51.570  1.00  0.00     0.127 C 
HETATM   18  N3  UNL     1      23.449   2.167  52.222  1.00  0.00    -0.349 N 
HETATM   19  C21 UNL     1      24.481   1.903  53.168  1.00  0.00     0.215 C 
HETATM   20  C22 UNL     1      25.005   0.552  53.446  1.00  0.00     0.117 C 
HETATM   21  O5  UNL     1      25.011   2.839  53.833  1.00  0.00    -0.274 OA
HETATM   22  C23 UNL     1      23.082   3.560  52.098  1.00  0.00     0.172 C 
HETATM   23  C24 UNL     1      22.474   3.959  50.823  1.00  0.00     0.202 C 
HETATM   24  N4  UNL     1      22.476   5.402  50.756  1.00  0.00    -0.365 N 
HETATM   25  H30 UNL     1      21.748   5.870  51.336  1.00  0.00     0.162 HD
ENDROOT
BRANCH   1  26
HETATM   26  N1  UNL     1      26.068   8.990  48.319  1.00  0.00    -0.324 N 
HETATM   27  C3  UNL     1      27.484   9.008  48.323  1.00  0.00     0.244 C 
HETATM   28  O1  UNL     1      28.173   8.169  48.957  1.00  0.00    -0.268 OA
HETATM   29  H4  UNL     1      25.512   9.711  47.774  1.00  0.00     0.169 HD
BRANCH  27  30
HETATM   30  C2  UNL     1      28.180  10.035  47.566  1.00  0.00     0.064 C 
HETATM   31  C1  UNL     1      28.348  11.245  48.059  1.00  0.00     0.017 C 
ENDBRANCH  27  30
ENDBRANCH   1  26
BRANCH  13  32
HETATM   32  C15 UNL     1      18.930   3.982  51.263  1.00  0.00     0.053 C 
HETATM   33  C16 UNL     1      17.632   3.983  51.299  1.00  0.00     0.136 C 
BRANCH  33  34
HETATM   34  O4  UNL     1      16.715   4.091  52.332  1.00  0.00    -0.368 OA
HETATM   35  C17 UNL     1      15.410   3.589  52.117  1.00  0.00     0.208 C 
ENDBRANCH  33  34
ENDBRANCH  13  32
TORSDOF 4
ENDMDL
MODEL 8
REMARK VINA RESULT:      -7.1      3.808      7.042
REMARK  4 active torsions:
REMARK  status: ('A' for Active; 'I' for Inactive)
REMARK    1  A    between atoms: C2_2  and  C3_3 
REMARK       I    between atoms: C3_3  and  N1_5 
REMARK    2  A    between atoms: N1_5  and  C4_6 
REMARK    3  A    between atoms: C14_18  and  C15_19 
REMARK    4  A    between atoms: C16_20  and  O4_21 
REMARK       I    between atoms: N3_27  and  C21_28 
ROOT
HETATM    1  C4  UNL     1      27.191   7.593  49.057  1.00  0.00     0.037 A 
HETATM    2  C5  UNL     1      27.604   6.624  48.168  1.00  0.00     0.032 A 
HETATM    3  C6  UNL     1      28.757   6.831  47.432  1.00  0.00     0.034 A 
HETATM    4  C7  UNL     1      29.534   7.990  47.546  1.00  0.00     0.063 A 
HETATM    5  C8  UNL     1      29.060   8.924  48.460  1.00  0.00     0.097 A 
HETATM    6  C9  UNL     1      27.924   8.744  49.201  1.00  0.00     0.068 A 
HETATM    7  O2  UNL     1      30.033   9.939  48.342  1.00  0.00    -0.342 OA
HETATM    8  C10 UNL     1      29.982  10.693  47.125  1.00  0.00     0.254 C 
HETATM    9  C11 UNL     1      31.105  11.643  47.115  1.00  0.00     0.154 C 
HETATM   10  O3  UNL     1      31.858  11.920  48.034  1.00  0.00    -0.295 OA
HETATM   11  C12 UNL     1      31.114  12.182  45.718  1.00  0.00     0.110 C 
HETATM   12  C13 UNL     1      31.654  11.173  44.780  1.00  0.00     0.010 C 
HETATM   13  C14 UNL     1      32.188   9.973  44.903  1.00  0.00     0.030 C 
HETATM   14  N2  UNL     1      32.513   9.126  45.995  1.00  0.00    -0.358 N 
HETATM   15  C18 UNL     1      33.978   9.270  46.039  1.00  0.00     0.127 C 
HETATM   16  C19 UNL     1      34.470   9.491  47.432  1.00  0.00     0.040 C 
HETATM   17  C20 UNL     1      34.982   8.157  47.923  1.00  0.00     0.127 C 
HETATM   18  N3  UNL     1      34.044   7.080  47.811  1.00  0.00    -0.349 N 
HETATM   19  C21 UNL     1      34.492   5.890  48.454  1.00  0.00     0.215 C 
HETATM   20  C22 UNL     1      35.783   5.781  49.160  1.00  0.00     0.117 C 
HETATM   21  O5  UNL     1      33.784   4.842  48.450  1.00  0.00    -0.274 OA
HETATM   22  C23 UNL     1      32.749   6.978  47.179  1.00  0.00     0.172 C 
HETATM   23  C24 UNL     1      32.013   8.235  47.003  1.00  0.00     0.202 C 
HETATM   24  N4  UNL     1      30.644   7.912  46.667  1.00  0.00    -0.365 N 
HETATM   25  H30 UNL     1      30.495   7.599  45.685  1.00  0.00     0.162 HD
ENDROOT
BRANCH   1  26
HETATM   26  N1  UNL     1      26.036   7.538  49.881  1.00  0.00    -0.324 N 
HETATM   27  C3  UNL     1      25.297   6.418  50.333  1.00  0.00     0.244 C 
HETATM   28  O1  UNL     1      25.602   5.235  50.034  1.00  0.00    -0.268 OA
HETATM   29  H4  UNL     1      25.754   8.525  50.149  1.00  0.00     0.169 HD
BRANCH  27  30
HETATM   30  C2  UNL     1      24.134   6.633  51.178  1.00  0.00     0.064 C 
HETATM   31  C1  UNL     1      23.189   7.482  50.829  1.00  0.00     0.017 C 
ENDBRANCH  27  30
ENDBRANCH   1  26
BRANCH  13  32
HETATM   32  C15 UNL     1      32.568   9.366  43.660  1.00  0.00     0.053 C 
HETATM   33  C16 UNL     1      32.161   8.266  43.104  1.00  0.00     0.136 C 
BRANCH  33  34
HETATM   34  O4  UNL     1      32.486   7.631  41.915  1.00  0.00    -0.368 OA
HETATM   35  C17 UNL     1      32.684   6.231  41.943  1.00  0.00     0.208 C 
ENDBRANCH  33  34
ENDBRANCH  13  32
TORSDOF 4
ENDMDL
MODEL 9
REMARK VINA RESULT:      -7.0      4.109      7.157
REMARK  4 active torsions:
REMARK  status: ('A' for Active; 'I' for Inactive)
REMARK    1  A    between atoms: C2_2  and  C3_3 
REMARK       I    between atoms: C3_3  and  N1_5 
REMARK    2  A    between atoms: N1_5  and  C4_6 
REMARK    3  A    between atoms: C14_18  and  C15_19 
REMARK    4  A    between atoms: C16_20  and  O4_21 
REMARK       I    between atoms: N3_27  and  C21_28 
ROOT
HETATM    1  C4  UNL     1      22.689   2.080  52.081  1.00  0.00     0.037 A 
HETATM    2  C5  UNL     1      23.402   1.762  50.946  1.00  0.00     0.032 A 
HETATM    3  C6  UNL     1      23.481   2.683  49.917  1.00  0.00     0.034 A 
HETATM    4  C7  UNL     1      22.862   3.939  49.973  1.00  0.00     0.063 A 
HETATM    5  C8  UNL     1      22.160   4.194  51.145  1.00  0.00     0.097 A 
HETATM    6  C9  UNL     1      22.068   3.300  52.177  1.00  0.00     0.068 A 
HETATM    7  O2  UNL     1      21.673   5.494  50.894  1.00  0.00    -0.342 OA
HETATM    8  C10 UNL     1      20.625   5.575  49.921  1.00  0.00     0.254 C 
HETATM    9  C11 UNL     1      20.291   6.991  49.709  1.00  0.00     0.154 C 
HETATM   10  O3  UNL     1      20.668   7.953  50.357  1.00  0.00    -0.295 OA
HETATM   11  C12 UNL     1      19.393   6.978  48.511  1.00  0.00     0.110 C 
HETATM   12  C13 UNL     1      20.180   6.736  47.280  1.00  0.00     0.010 C 
HETATM   13  C14 UNL     1      21.462   6.614  46.999  1.00  0.00     0.030 C 
HETATM   14  N2  UNL     1      22.666   6.691  47.748  1.00  0.00    -0.358 N 
HETATM   15  C18 UNL     1      23.178   8.006  47.326  1.00  0.00     0.127 C 
HETATM   16  C19 UNL     1      23.642   8.819  48.489  1.00  0.00     0.040 C 
HETATM   17  C20 UNL     1      25.146   8.688  48.533  1.00  0.00     0.127 C 
HETATM   18  N3  UNL     1      25.628   7.339  48.548  1.00  0.00    -0.349 N 
HETATM   19  C21 UNL     1      27.031   7.257  48.778  1.00  0.00     0.215 C 
HETATM   20  C22 UNL     1      27.895   8.436  48.981  1.00  0.00     0.117 C 
HETATM   21  O5  UNL     1      27.619   6.138  48.822  1.00  0.00    -0.274 OA
HETATM   22  C23 UNL     1      24.965   6.066  48.377  1.00  0.00     0.172 C 
HETATM   23  C24 UNL     1      23.531   6.036  48.687  1.00  0.00     0.202 C 
HETATM   24  N4  UNL     1      23.119   4.653  48.775  1.00  0.00    -0.365 N 
HETATM   25  H30 UNL     1      23.008   4.168  47.859  1.00  0.00     0.162 HD
ENDROOT
BRANCH   1  26
HETATM   26  N1  UNL     1      22.508   1.250  53.219  1.00  0.00    -0.324 N 
HETATM   27  C3  UNL     1      21.542   0.245  53.465  1.00  0.00     0.244 C 
HETATM   28  O1  UNL     1      20.651  -0.060  52.632  1.00  0.00    -0.268 OA
HETATM   29  H4  UNL     1      23.249   1.486  53.941  1.00  0.00     0.169 HD
BRANCH  27  30
HETATM   30  C2  UNL     1      21.571  -0.470  54.731  1.00  0.00     0.064 C 
HETATM   31  C1  UNL     1      22.605  -1.214  55.066  1.00  0.00     0.017 C 
ENDBRANCH  27  30
ENDBRANCH   1  26
BRANCH  13  32
HETATM   32  C15 UNL     1      21.743   6.374  45.613  1.00  0.00     0.053 C 
HETATM   33  C16 UNL     1      20.984   6.499  44.567  1.00  0.00     0.136 C 
BRANCH  33  34
HETATM   34  O4  UNL     1      21.195   6.285  43.215  1.00  0.00    -0.368 OA
HETATM   35  C17 UNL     1      20.477   5.240  42.588  1.00  0.00     0.208 C 
ENDBRANCH  33  34
ENDBRANCH  13  32
TORSDOF 4
ENDMDL
