MODEL 1
REMARK VINA RESULT:      -8.0      0.000      0.000
REMARK  5 active torsions:
REMARK  status: ('A' for Active; 'I' for Inactive)
REMARK    1  A    between atoms: C5_5  and  C6_6 
REMARK    2  A    between atoms: C6_6  and  N1_7 
REMARK    3  A    between atoms: C6_6  and  C7_8 
REMARK    4  A    between atoms: C15_16  and  O1_17 
REMARK    5  A    between atoms: C16_18  and  N2_19 
ROOT
HETATM    1  C1  UNL     1      27.584   4.357  48.931  1.00  0.00     0.011 C 
HETATM    2  C2  UNL     1      26.149   4.047  49.333  1.00  0.00    -0.039 C 
HETATM    3  C3  UNL     1      26.374   3.045  50.281  1.00  0.00     0.054 C 
HETATM    4  C4  UNL     1      25.887   2.081  51.227  1.00  0.00    -0.011 C 
HETATM    5  C5  UNL     1      24.929   1.485  51.825  1.00  0.00    -0.019 C 
HETATM    6  C11 UNL     1      23.707   0.960  52.360  1.00  0.00    -0.004 C 
HETATM    7  C12 UNL     1      23.517  -0.297  52.681  1.00  0.00     0.011 C 
HETATM    8  C13 UNL     1      22.328  -0.862  53.266  1.00  0.00    -0.001 C 
HETATM    9  C14 UNL     1      21.339  -0.042  53.551  1.00  0.00     0.008 C 
HETATM   10  C15 UNL     1      21.425   1.450  53.305  1.00  0.00     0.189 C 
HETATM   11  C16 UNL     1      22.401   1.720  52.237  1.00  0.00     0.240 C 
HETATM   12  C17 UNL     1      22.637   3.106  51.931  1.00  0.00     0.013 A 
HETATM   13  C18 UNL     1      22.646   4.227  52.707  1.00  0.00     0.129 A 
HETATM   14  N3  UNL     1      23.240   5.094  51.853  1.00  0.00    -0.241 N 
HETATM   15  N4  UNL     1      23.494   6.341  52.300  1.00  0.00    -0.161 NA
HETATM   16  C19 UNL     1      24.167   7.160  51.478  1.00  0.00     0.255 A 
HETATM   17  N5  UNL     1      24.523   6.642  50.300  1.00  0.00    -0.242 NA
HETATM   18  C20 UNL     1      24.233   5.386  49.924  1.00  0.00     0.065 A 
HETATM   19  C21 UNL     1      23.531   4.495  50.705  1.00  0.00     0.089 A 
HETATM   20  C22 UNL     1      23.150   3.182  50.661  1.00  0.00    -0.020 A 
HETATM   21  C23 UNL     1      23.157   2.262  49.495  1.00  0.00     0.051 C 
HETATM   22  C24 UNL     1      25.058   5.007  48.726  1.00  0.00     0.067 C 
ENDROOT
BRANCH   5  23
HETATM   23  C6  UNL     1      25.997   0.687  52.595  1.00  0.00     0.255 C 
BRANCH  23  24
HETATM   24  N1  UNL     1      26.780   0.011  51.583  1.00  0.00     0.087 N 
HETATM   25  H7  UNL     1      26.960  -0.983  51.792  1.00  0.00     0.313 HD
HETATM   26  H8  UNL     1      27.703   0.462  51.418  1.00  0.00     0.313 HD
ENDBRANCH  23  24
BRANCH  23  27
HETATM   27  C7  UNL     1      26.803   1.535  53.544  1.00  0.00     0.027 A 
HETATM   28  C8  UNL     1      28.025   1.085  54.207  1.00  0.00     0.012 A 
HETATM   29  C9  UNL     1      26.792   0.983  54.989  1.00  0.00    -0.012 A 
HETATM   30  C10 UNL     1      26.093  -0.306  55.269  1.00  0.00     0.010 C 
ENDBRANCH  23  27
ENDBRANCH   5  23
BRANCH  11  31
HETATM   31  N2  UNL     1      21.715   1.122  51.029  1.00  0.00     0.100 N 
HETATM   32  H21 UNL     1      22.494   0.771  50.400  1.00  0.00     0.314 HD
HETATM   33  H22 UNL     1      21.201   1.876  50.517  1.00  0.00     0.314 HD
ENDBRANCH  11  31
BRANCH  10  34
HETATM   34  O1  UNL     1      20.142   1.839  52.873  1.00  0.00    -0.388 OA
HETATM   35  H20 UNL     1      19.551   2.099  53.639  1.00  0.00     0.210 HD
ENDBRANCH  10  34
TORSDOF 5
ENDMDL
MODEL 2
REMARK VINA RESULT:      -7.5      3.176      6.019
REMARK  5 active torsions:
REMARK  status: ('A' for Active; 'I' for Inactive)
REMARK    1  A    between atoms: C5_5  and  C6_6 
REMARK    2  A    between atoms: C6_6  and  N1_7 
REMARK    3  A    between atoms: C6_6  and  C7_8 
REMARK    4  A    between atoms: C15_16  and  O1_17 
REMARK    5  A    between atoms: C16_18  and  N2_19 
ROOT
HETATM    1  C1  UNL     1      25.315   8.907  46.051  1.00  0.00     0.011 C 
HETATM    2  C2  UNL     1      25.345   8.233  47.415  1.00  0.00    -0.039 C 
HETATM    3  C3  UNL     1      24.206   7.428  47.313  1.00  0.00     0.054 C 
HETATM    4  C4  UNL     1      23.293   6.470  47.870  1.00  0.00    -0.011 C 
HETATM    5  C5  UNL     1      22.900   5.726  48.830  1.00  0.00    -0.019 C 
HETATM    6  C11 UNL     1      22.651   4.982  50.030  1.00  0.00    -0.004 C 
HETATM    7  C12 UNL     1      21.458   4.718  50.506  1.00  0.00     0.011 C 
HETATM    8  C13 UNL     1      21.156   3.935  51.678  1.00  0.00    -0.001 C 
HETATM    9  C14 UNL     1      22.165   3.390  52.323  1.00  0.00     0.008 C 
HETATM   10  C15 UNL     1      23.600   3.542  51.864  1.00  0.00     0.189 C 
HETATM   11  C16 UNL     1      23.737   4.771  51.067  1.00  0.00     0.240 C 
HETATM   12  C17 UNL     1      25.040   5.021  50.507  1.00  0.00     0.013 A 
HETATM   13  C18 UNL     1      26.011   4.187  50.038  1.00  0.00     0.129 A 
HETATM   14  N3  UNL     1      26.792   5.084  49.391  1.00  0.00    -0.241 N 
HETATM   15  N4  UNL     1      27.860   4.614  48.717  1.00  0.00    -0.161 NA
HETATM   16  C19 UNL     1      28.571   5.500  48.003  1.00  0.00     0.255 A 
HETATM   17  N5  UNL     1      28.131   6.760  48.032  1.00  0.00    -0.242 NA
HETATM   18  C20 UNL     1      27.055   7.155  48.730  1.00  0.00     0.065 A 
HETATM   19  C21 UNL     1      26.288   6.307  49.499  1.00  0.00     0.089 A 
HETATM   20  C22 UNL     1      25.138   6.363  50.238  1.00  0.00    -0.020 A 
HETATM   21  C23 UNL     1      24.405   7.565  50.707  1.00  0.00     0.051 C 
HETATM   22  C24 UNL     1      26.627   8.524  48.282  1.00  0.00     0.067 C 
ENDROOT
BRANCH   5  23
HETATM   23  C6  UNL     1      21.757   5.259  47.909  1.00  0.00     0.255 C 
BRANCH  23  24
HETATM   24  N1  UNL     1      20.982   6.447  47.621  1.00  0.00     0.087 N 
HETATM   25  H7  UNL     1      21.555   7.258  47.341  1.00  0.00     0.313 HD
HETATM   26  H8  UNL     1      20.392   6.749  48.423  1.00  0.00     0.313 HD
ENDBRANCH  23  24
BRANCH  23  27
HETATM   27  C7  UNL     1      22.242   4.519  46.690  1.00  0.00     0.027 A 
HETATM   28  C8  UNL     1      21.360   3.936  45.682  1.00  0.00     0.012 A 
HETATM   29  C9  UNL     1      21.854   3.022  46.711  1.00  0.00    -0.012 A 
HETATM   30  C10 UNL     1      21.016   2.505  47.833  1.00  0.00     0.010 C 
ENDBRANCH  23  27
ENDBRANCH   5  23
BRANCH  11  31
HETATM   31  N2  UNL     1      23.499   5.845  52.105  1.00  0.00     0.100 N 
HETATM   32  H21 UNL     1      24.159   6.637  51.857  1.00  0.00     0.314 HD
HETATM   33  H22 UNL     1      23.773   5.479  53.046  1.00  0.00     0.314 HD
ENDBRANCH  11  31
BRANCH  10  34
HETATM   34  O1  UNL     1      24.365   3.663  53.041  1.00  0.00    -0.388 OA
HETATM   35  H20 UNL     1      23.815   3.502  53.863  1.00  0.00     0.210 HD
ENDBRANCH  10  34
TORSDOF 5
ENDMDL
MODEL 3
REMARK VINA RESULT:      -7.4      6.867     10.708
REMARK  5 active torsions:
REMARK  status: ('A' for Active; 'I' for Inactive)
REMARK    1  A    between atoms: C5_5  and  C6_6 
REMARK    2  A    between atoms: C6_6  and  N1_7 
REMARK    3  A    between atoms: C6_6  and  C7_8 
REMARK    4  A    between atoms: C15_16  and  O1_17 
REMARK    5  A    between atoms: C16_18  and  N2_19 
ROOT
HETATM    1  C1  UNL     1      26.983   5.152  48.737  1.00  0.00     0.011 C 
HETATM    2  C2  UNL     1      27.761   6.430  48.455  1.00  0.00    -0.039 C 
HETATM    3  C3  UNL     1      29.037   5.897  48.248  1.00  0.00     0.054 C 
HETATM    4  C4  UNL     1      30.434   6.063  47.961  1.00  0.00    -0.011 C 
HETATM    5  C5  UNL     1      31.446   6.801  47.715  1.00  0.00    -0.019 C 
HETATM    6  C11 UNL     1      32.424   7.817  47.460  1.00  0.00    -0.004 C 
HETATM    7  C12 UNL     1      33.666   7.774  47.878  1.00  0.00     0.011 C 
HETATM    8  C13 UNL     1      34.697   8.744  47.606  1.00  0.00    -0.001 C 
HETATM    9  C14 UNL     1      34.388   9.761  46.830  1.00  0.00     0.008 C 
HETATM   10  C15 UNL     1      33.016   9.922  46.210  1.00  0.00     0.189 C 
HETATM   11  C16 UNL     1      32.018   9.213  47.027  1.00  0.00     0.240 C 
HETATM   12  C17 UNL     1      30.667   9.225  46.528  1.00  0.00     0.013 A 
HETATM   13  C18 UNL     1      30.157   9.217  45.264  1.00  0.00     0.129 A 
HETATM   14  N3  UNL     1      28.865   8.918  45.538  1.00  0.00    -0.241 N 
HETATM   15  N4  UNL     1      28.025   8.752  44.497  1.00  0.00    -0.161 NA
HETATM   16  C19 UNL     1      26.773   8.362  44.779  1.00  0.00     0.255 A 
HETATM   17  N5  UNL     1      26.497   8.172  46.071  1.00  0.00    -0.242 NA
HETATM   18  C20 UNL     1      27.389   8.359  47.056  1.00  0.00     0.065 A 
HETATM   19  C21 UNL     1      28.686   8.775  46.845  1.00  0.00     0.089 A 
HETATM   20  C22 UNL     1      29.822   8.979  47.580  1.00  0.00    -0.020 A 
HETATM   21  C23 UNL     1      29.957   9.073  49.056  1.00  0.00     0.051 C 
HETATM   22  C24 UNL     1      26.888   7.735  48.328  1.00  0.00     0.067 C 
ENDROOT
BRANCH   5  23
HETATM   23  C6  UNL     1      32.278   5.509  47.615  1.00  0.00     0.255 C 
BRANCH  23  24
HETATM   24  N1  UNL     1      32.283   4.947  48.949  1.00  0.00     0.087 N 
HETATM   25  H7  UNL     1      32.974   4.193  49.078  1.00  0.00     0.313 HD
HETATM   26  H8  UNL     1      31.357   4.568  49.231  1.00  0.00     0.313 HD
ENDBRANCH  23  24
BRANCH  23  27
HETATM   27  C7  UNL     1      31.789   4.570  46.544  1.00  0.00     0.027 A 
HETATM   28  C8  UNL     1      32.243   3.189  46.397  1.00  0.00     0.012 A 
HETATM   29  C9  UNL     1      32.902   4.178  45.545  1.00  0.00    -0.012 A 
HETATM   30  C10 UNL     1      34.291   4.676  45.772  1.00  0.00     0.010 C 
ENDBRANCH  23  27
ENDBRANCH   5  23
BRANCH  11  31
HETATM   31  N2  UNL     1      32.017  10.031  48.299  1.00  0.00     0.100 N 
HETATM   32  H21 UNL     1      31.705  11.005  48.014  1.00  0.00     0.314 HD
HETATM   33  H22 UNL     1      32.995  10.099  48.663  1.00  0.00     0.314 HD
ENDBRANCH  11  31
BRANCH  10  34
HETATM   34  O1  UNL     1      32.745  11.304  46.241  1.00  0.00    -0.388 OA
HETATM   35  H20 UNL     1      32.020  11.529  46.895  1.00  0.00     0.210 HD
ENDBRANCH  10  34
TORSDOF 5
ENDMDL
MODEL 4
REMARK VINA RESULT:      -7.3      5.493      9.340
REMARK  5 active torsions:
REMARK  status: ('A' for Active; 'I' for Inactive)
REMARK    1  A    between atoms: C5_5  and  C6_6 
REMARK    2  A    between atoms: C6_6  and  N1_7 
REMARK    3  A    between atoms: C6_6  and  C7_8 
REMARK    4  A    between atoms: C15_16  and  O1_17 
REMARK    5  A    between atoms: C16_18  and  N2_19 
ROOT
HETATM    1  C1  UNL     1      30.130  12.271  46.708  1.00  0.00     0.011 C 
HETATM    2  C2  UNL     1      29.714  11.076  47.554  1.00  0.00    -0.039 C 
HETATM    3  C3  UNL     1      28.536  10.711  46.896  1.00  0.00     0.054 C 
HETATM    4  C4  UNL     1      27.383   9.865  46.764  1.00  0.00    -0.011 C 
HETATM    5  C5  UNL     1      26.656   8.895  47.163  1.00  0.00    -0.019 C 
HETATM    6  C11 UNL     1      26.005   7.782  47.790  1.00  0.00    -0.004 C 
HETATM    7  C12 UNL     1      24.706   7.638  47.885  1.00  0.00     0.011 C 
HETATM    8  C13 UNL     1      24.006   6.517  48.461  1.00  0.00    -0.001 C 
HETATM    9  C14 UNL     1      24.728   5.511  48.904  1.00  0.00     0.008 C 
HETATM   10  C15 UNL     1      26.239   5.490  48.807  1.00  0.00     0.189 C 
HETATM   11  C16 UNL     1      26.750   6.869  48.745  1.00  0.00     0.240 C 
HETATM   12  C17 UNL     1      28.174   7.010  48.589  1.00  0.00     0.013 A 
HETATM   13  C18 UNL     1      29.102   6.261  47.928  1.00  0.00     0.129 A 
HETATM   14  N3  UNL     1      30.143   7.128  47.933  1.00  0.00    -0.241 N 
HETATM   15  N4  UNL     1      31.269   6.759  47.290  1.00  0.00    -0.161 NA
HETATM   16  C19 UNL     1      32.257   7.664  47.220  1.00  0.00     0.255 A 
HETATM   17  N5  UNL     1      32.011   8.844  47.794  1.00  0.00    -0.242 NA
HETATM   18  C20 UNL     1      30.860   9.139  48.419  1.00  0.00     0.065 A 
HETATM   19  C21 UNL     1      29.809   8.256  48.546  1.00  0.00     0.089 A 
HETATM   20  C22 UNL     1      28.529   8.260  49.029  1.00  0.00    -0.020 A 
HETATM   21  C23 UNL     1      27.881   9.267  49.907  1.00  0.00     0.051 C 
HETATM   22  C24 UNL     1      30.762  10.623  48.639  1.00  0.00     0.067 C 
ENDROOT
BRANCH   5  23
HETATM   23  C6  UNL     1      25.730   9.187  45.967  1.00  0.00     0.255 C 
BRANCH  23  24
HETATM   24  N1  UNL     1      25.310  10.563  46.129  1.00  0.00     0.087 N 
HETATM   25  H7  UNL     1      25.097  11.038  45.240  1.00  0.00     0.313 HD
HETATM   26  H8  UNL     1      26.013  11.143  46.628  1.00  0.00     0.313 HD
ENDBRANCH  23  24
BRANCH  23  27
HETATM   27  C7  UNL     1      26.366   8.881  44.636  1.00  0.00     0.027 A 
HETATM   28  C8  UNL     1      25.881   9.401  43.359  1.00  0.00     0.012 A 
HETATM   29  C9  UNL     1      25.443   8.051  43.714  1.00  0.00    -0.012 A 
HETATM   30  C10 UNL     1      24.062   7.721  44.175  1.00  0.00     0.010 C 
ENDBRANCH  23  27
ENDBRANCH   5  23
BRANCH  11  31
HETATM   31  N2  UNL     1      26.412   7.389  50.124  1.00  0.00     0.100 N 
HETATM   32  H21 UNL     1      27.109   6.934  50.782  1.00  0.00     0.314 HD
HETATM   33  H22 UNL     1      25.455   7.059  50.390  1.00  0.00     0.314 HD
ENDBRANCH  11  31
BRANCH  10  34
HETATM   34  O1  UNL     1      26.688   4.880  49.995  1.00  0.00    -0.388 OA
HETATM   35  H20 UNL     1      26.180   5.202  50.796  1.00  0.00     0.210 HD
ENDBRANCH  10  34
TORSDOF 5
ENDMDL
MODEL 5
REMARK VINA RESULT:      -7.3      7.545     10.684
REMARK  5 active torsions:
REMARK  status: ('A' for Active; 'I' for Inactive)
REMARK    1  A    between atoms: C5_5  and  C6_6 
REMARK    2  A    between atoms: C6_6  and  N1_7 
REMARK    3  A    between atoms: C6_6  and  C7_8 
REMARK    4  A    between atoms: C15_16  and  O1_17 
REMARK    5  A    between atoms: C16_18  and  N2_19 
ROOT
HETATM    1  C1  UNL     1      34.368   8.879  46.246  1.00  0.00     0.011 C 
HETATM    2  C2  UNL     1      33.243   8.652  47.246  1.00  0.00    -0.039 C 
HETATM    3  C3  UNL     1      32.193   9.289  46.578  1.00  0.00     0.054 C 
HETATM    4  C4  UNL     1      30.821   9.708  46.508  1.00  0.00    -0.011 C 
HETATM    5  C5  UNL     1      29.650   9.793  47.009  1.00  0.00    -0.019 C 
HETATM    6  C11 UNL     1      28.432   9.769  47.764  1.00  0.00    -0.004 C 
HETATM    7  C12 UNL     1      27.557  10.745  47.793  1.00  0.00     0.011 C 
HETATM    8  C13 UNL     1      26.298  10.748  48.495  1.00  0.00    -0.001 C 
HETATM    9  C14 UNL     1      25.959   9.655  49.145  1.00  0.00     0.008 C 
HETATM   10  C15 UNL     1      26.828   8.414  49.155  1.00  0.00     0.189 C 
HETATM   11  C16 UNL     1      28.229   8.789  48.904  1.00  0.00     0.240 C 
HETATM   12  C17 UNL     1      29.170   7.703  48.824  1.00  0.00     0.013 A 
HETATM   13  C18 UNL     1      29.059   6.426  48.359  1.00  0.00     0.129 A 
HETATM   14  N3  UNL     1      30.370   6.090  48.293  1.00  0.00    -0.241 N 
HETATM   15  N4  UNL     1      30.681   4.876  47.796  1.00  0.00    -0.161 NA
HETATM   16  C19 UNL     1      31.984   4.593  47.647  1.00  0.00     0.255 A 
HETATM   17  N5  UNL     1      32.836   5.558  48.002  1.00  0.00    -0.242 NA
HETATM   18  C20 UNL     1      32.449   6.746  48.492  1.00  0.00     0.065 A 
HETATM   19  C21 UNL     1      31.132   7.101  48.689  1.00  0.00     0.089 A 
HETATM   20  C22 UNL     1      30.422   8.204  49.077  1.00  0.00    -0.020 A 
HETATM   21  C23 UNL     1      30.926   9.437  49.733  1.00  0.00     0.051 C 
HETATM   22  C24 UNL     1      33.599   7.713  48.459  1.00  0.00     0.067 C 
ENDROOT
BRANCH   5  23
HETATM   23  C6  UNL     1      29.226  10.525  45.722  1.00  0.00     0.255 C 
BRANCH  23  24
HETATM   24  N1  UNL     1      30.092  11.681  45.630  1.00  0.00     0.087 N 
HETATM   25  H7  UNL     1      30.717  11.796  46.442  1.00  0.00     0.313 HD
HETATM   26  H8  UNL     1      29.566  12.571  45.519  1.00  0.00     0.313 HD
ENDBRANCH  23  24
BRANCH  23  27
HETATM   27  C7  UNL     1      29.238   9.637  44.504  1.00  0.00     0.027 A 
HETATM   28  C8  UNL     1      29.092  10.126  43.135  1.00  0.00     0.012 A 
HETATM   29  C9  UNL     1      27.877   9.618  43.771  1.00  0.00    -0.012 A 
HETATM   30  C10 UNL     1      26.772  10.492  44.266  1.00  0.00     0.010 C 
ENDBRANCH  23  27
ENDBRANCH   5  23
BRANCH  11  31
HETATM   31  N2  UNL     1      28.572   9.568  50.154  1.00  0.00     0.100 N 
HETATM   32  H21 UNL     1      28.365  10.584  49.926  1.00  0.00     0.314 HD
HETATM   33  H22 UNL     1      29.599   9.483  50.340  1.00  0.00     0.314 HD
ENDBRANCH  11  31
BRANCH  10  34
HETATM   34  O1  UNL     1      26.715   7.882  50.454  1.00  0.00    -0.388 OA
HETATM   35  H20 UNL     1      27.239   8.412  51.123  1.00  0.00     0.210 HD
ENDBRANCH  10  34
TORSDOF 5
ENDMDL
MODEL 6
REMARK VINA RESULT:      -7.1      7.882     11.619
REMARK  5 active torsions:
REMARK  status: ('A' for Active; 'I' for Inactive)
REMARK    1  A    between atoms: C5_5  and  C6_6 
REMARK    2  A    between atoms: C6_6  and  N1_7 
REMARK    3  A    between atoms: C6_6  and  C7_8 
REMARK    4  A    between atoms: C15_16  and  O1_17 
REMARK    5  A    between atoms: C16_18  and  N2_19 
ROOT
HETATM    1  C1  UNL     1      31.689  12.068  47.055  1.00  0.00     0.011 C 
HETATM    2  C2  UNL     1      32.409  10.828  46.546  1.00  0.00    -0.039 C 
HETATM    3  C3  UNL     1      31.672   9.834  47.197  1.00  0.00     0.054 C 
HETATM    4  C4  UNL     1      31.418   8.453  47.495  1.00  0.00    -0.011 C 
HETATM    5  C5  UNL     1      31.699   7.213  47.379  1.00  0.00    -0.019 C 
HETATM    6  C11 UNL     1      32.199   5.898  47.104  1.00  0.00    -0.004 C 
HETATM    7  C12 UNL     1      32.225   4.917  47.973  1.00  0.00     0.011 C 
HETATM    8  C13 UNL     1      32.671   3.568  47.732  1.00  0.00    -0.001 C 
HETATM    9  C14 UNL     1      33.057   3.262  46.512  1.00  0.00     0.008 C 
HETATM   10  C15 UNL     1      33.023   4.263  45.375  1.00  0.00     0.189 C 
HETATM   11  C16 UNL     1      33.103   5.629  45.916  1.00  0.00     0.240 C 
HETATM   12  C17 UNL     1      33.021   6.697  44.954  1.00  0.00     0.013 A 
HETATM   13  C18 UNL     1      32.339   6.823  43.780  1.00  0.00     0.129 A 
HETATM   14  N3  UNL     1      32.464   8.157  43.583  1.00  0.00    -0.241 N 
HETATM   15  N4  UNL     1      31.840   8.694  42.516  1.00  0.00    -0.161 NA
HETATM   16  C19 UNL     1      31.891  10.028  42.385  1.00  0.00     0.255 A 
HETATM   17  N5  UNL     1      32.554  10.684  43.341  1.00  0.00    -0.242 NA
HETATM   18  C20 UNL     1      33.152  10.077  44.378  1.00  0.00     0.065 A 
HETATM   19  C21 UNL     1      33.157   8.712  44.569  1.00  0.00     0.089 A 
HETATM   20  C22 UNL     1      33.583   7.818  45.512  1.00  0.00    -0.020 A 
HETATM   21  C23 UNL     1      34.516   8.049  46.643  1.00  0.00     0.051 C 
HETATM   22  C24 UNL     1      33.495  11.089  45.436  1.00  0.00     0.067 C 
ENDROOT
BRANCH   5  23
HETATM   23  C6  UNL     1      30.494   6.924  48.294  1.00  0.00     0.255 C 
BRANCH  23  24
HETATM   24  N1  UNL     1      30.859   7.449  49.592  1.00  0.00     0.087 N 
HETATM   25  H7  UNL     1      31.472   6.822  50.135  1.00  0.00     0.313 HD
HETATM   26  H8  UNL     1      30.034   7.664  50.187  1.00  0.00     0.313 HD
ENDBRANCH  23  24
BRANCH  23  27
HETATM   27  C7  UNL     1      29.195   7.455  47.748  1.00  0.00     0.027 A 
HETATM   28  C8  UNL     1      28.005   7.699  48.561  1.00  0.00     0.012 A 
HETATM   29  C9  UNL     1      28.046   6.425  47.844  1.00  0.00    -0.012 A 
HETATM   30  C10 UNL     1      28.302   5.110  48.503  1.00  0.00     0.010 C 
ENDBRANCH  23  27
ENDBRANCH   5  23
BRANCH  11  31
HETATM   31  N2  UNL     1      34.506   5.660  46.479  1.00  0.00     0.100 N 
HETATM   32  H21 UNL     1      35.125   5.230  45.732  1.00  0.00     0.314 HD
HETATM   33  H22 UNL     1      34.550   5.048  47.326  1.00  0.00     0.314 HD
ENDBRANCH  11  31
BRANCH  10  34
HETATM   34  O1  UNL     1      34.172   4.000  44.603  1.00  0.00    -0.388 OA
HETATM   35  H20 UNL     1      34.295   3.020  44.437  1.00  0.00     0.210 HD
ENDBRANCH  10  34
TORSDOF 5
ENDMDL
MODEL 7
REMARK VINA RESULT:      -6.9      2.777      5.195
REMARK  5 active torsions:
REMARK  status: ('A' for Active; 'I' for Inactive)
REMARK    1  A    between atoms: C5_5  and  C6_6 
REMARK    2  A    between atoms: C6_6  and  N1_7 
REMARK    3  A    between atoms: C6_6  and  C7_8 
REMARK    4  A    between atoms: C15_16  and  O1_17 
REMARK    5  A    between atoms: C16_18  and  N2_19 
ROOT
HETATM    1  C1  UNL     1      17.633   3.690  51.314  1.00  0.00     0.011 C 
HETATM    2  C2  UNL     1      19.089   4.034  51.032  1.00  0.00    -0.039 C 
HETATM    3  C3  UNL     1      19.723   3.048  51.795  1.00  0.00     0.054 C 
HETATM    4  C4  UNL     1      20.915   2.418  52.289  1.00  0.00    -0.011 C 
HETATM    5  C5  UNL     1      22.186   2.341  52.377  1.00  0.00    -0.019 C 
HETATM    6  C11 UNL     1      23.614   2.453  52.330  1.00  0.00    -0.004 C 
HETATM    7  C12 UNL     1      24.412   2.204  53.339  1.00  0.00     0.011 C 
HETATM    8  C13 UNL     1      25.853   2.255  53.327  1.00  0.00    -0.001 C 
HETATM    9  C14 UNL     1      26.443   2.539  52.187  1.00  0.00     0.008 C 
HETATM   10  C15 UNL     1      25.667   2.786  50.910  1.00  0.00     0.189 C 
HETATM   11  C16 UNL     1      24.308   3.245  51.238  1.00  0.00     0.240 C 
HETATM   12  C17 UNL     1      23.427   3.465  50.121  1.00  0.00     0.013 A 
HETATM   13  C18 UNL     1      23.306   2.844  48.913  1.00  0.00     0.129 A 
HETATM   14  N3  UNL     1      22.108   3.337  48.519  1.00  0.00    -0.241 N 
HETATM   15  N4  UNL     1      21.597   2.888  47.356  1.00  0.00    -0.161 NA
HETATM   16  C19 UNL     1      20.368   3.311  47.024  1.00  0.00     0.255 A 
HETATM   17  N5  UNL     1      19.777   4.131  47.897  1.00  0.00    -0.242 NA
HETATM   18  C20 UNL     1      20.351   4.536  49.040  1.00  0.00     0.065 A 
HETATM   19  C21 UNL     1      21.616   4.159  49.438  1.00  0.00     0.089 A 
HETATM   20  C22 UNL     1      22.431   4.318  50.525  1.00  0.00    -0.020 A 
HETATM   21  C23 UNL     1      22.289   5.279  51.647  1.00  0.00     0.051 C 
HETATM   22  C24 UNL     1      19.319   5.149  49.944  1.00  0.00     0.067 C 
ENDROOT
BRANCH   5  23
HETATM   23  C6  UNL     1      21.981   1.104  53.271  1.00  0.00     0.255 C 
BRANCH  23  24
HETATM   24  N1  UNL     1      20.723   1.323  53.953  1.00  0.00     0.087 N 
HETATM   25  H7  UNL     1      20.598   0.736  54.791  1.00  0.00     0.313 HD
HETATM   26  H8  UNL     1      19.898   1.164  53.340  1.00  0.00     0.313 HD
ENDBRANCH  23  24
BRANCH  23  27
HETATM   27  C7  UNL     1      22.063  -0.195  52.514  1.00  0.00     0.027 A 
HETATM   28  C8  UNL     1      21.493  -1.455  52.987  1.00  0.00     0.012 A 
HETATM   29  C9  UNL     1      22.918  -1.256  53.245  1.00  0.00    -0.012 A 
HETATM   30  C10 UNL     1      23.481  -0.934  54.590  1.00  0.00     0.010 C 
ENDBRANCH  23  27
ENDBRANCH   5  23
BRANCH  11  31
HETATM   31  N2  UNL     1      24.576   4.601  51.851  1.00  0.00     0.100 N 
HETATM   32  H21 UNL     1      23.623   5.018  52.056  1.00  0.00     0.314 HD
HETATM   33  H22 UNL     1      25.049   5.210  51.143  1.00  0.00     0.314 HD
ENDBRANCH  11  31
BRANCH  10  34
HETATM   34  O1  UNL     1      26.357   3.815  50.239  1.00  0.00    -0.388 OA
HETATM   35  H20 UNL     1      27.320   3.859  50.510  1.00  0.00     0.210 HD
ENDBRANCH  10  34
TORSDOF 5
ENDMDL
MODEL 8
REMARK VINA RESULT:      -6.7      3.626      7.854
REMARK  5 active torsions:
REMARK  status: ('A' for Active; 'I' for Inactive)
REMARK    1  A    between atoms: C5_5  and  C6_6 
REMARK    2  A    between atoms: C6_6  and  N1_7 
REMARK    3  A    between atoms: C6_6  and  C7_8 
REMARK    4  A    between atoms: C15_16  and  O1_17 
REMARK    5  A    between atoms: C16_18  and  N2_19 
ROOT
HETATM    1  C1  UNL     1      21.952   2.336  47.987  1.00  0.00     0.011 C 
HETATM    2  C2  UNL     1      23.045   3.176  48.634  1.00  0.00    -0.039 C 
HETATM    3  C3  UNL     1      22.879   4.373  47.931  1.00  0.00     0.054 C 
HETATM    4  C4  UNL     1      23.262   5.729  47.655  1.00  0.00    -0.011 C 
HETATM    5  C5  UNL     1      24.012   6.742  47.855  1.00  0.00    -0.019 C 
HETATM    6  C11 UNL     1      24.969   7.737  48.243  1.00  0.00    -0.004 C 
HETATM    7  C12 UNL     1      25.515   8.601  47.423  1.00  0.00     0.011 C 
HETATM    8  C13 UNL     1      26.441   9.649  47.772  1.00  0.00    -0.001 C 
HETATM    9  C14 UNL     1      26.750   9.791  49.044  1.00  0.00     0.008 C 
HETATM   10  C15 UNL     1      26.153   8.917  50.127  1.00  0.00     0.189 C 
HETATM   11  C16 UNL     1      25.733   7.630  49.549  1.00  0.00     0.240 C 
HETATM   12  C17 UNL     1      25.088   6.711  50.450  1.00  0.00     0.013 A 
HETATM   13  C18 UNL     1      24.263   6.903  51.518  1.00  0.00     0.129 A 
HETATM   14  N3  UNL     1      23.797   5.641  51.679  1.00  0.00    -0.241 N 
HETATM   15  N4  UNL     1      22.869   5.432  52.634  1.00  0.00    -0.161 NA
HETATM   16  C19 UNL     1      22.347   4.199  52.719  1.00  0.00     0.255 A 
HETATM   17  N5  UNL     1      22.801   3.310  51.833  1.00  0.00    -0.242 NA
HETATM   18  C20 UNL     1      23.731   3.593  50.908  1.00  0.00     0.065 A 
HETATM   19  C21 UNL     1      24.325   4.829  50.772  1.00  0.00     0.089 A 
HETATM   20  C22 UNL     1      25.206   5.448  49.928  1.00  0.00    -0.020 A 
HETATM   21  C23 UNL     1      26.103   4.828  48.920  1.00  0.00     0.051 C 
HETATM   22  C24 UNL     1      23.764   2.510  49.866  1.00  0.00     0.067 C 
ENDROOT
BRANCH   5  23
HETATM   23  C6  UNL     1      23.170   7.487  46.802  1.00  0.00     0.255 C 
BRANCH  23  24
HETATM   24  N1  UNL     1      23.168   6.633  45.633  1.00  0.00     0.087 N 
HETATM   25  H7  UNL     1      22.233   6.280  45.380  1.00  0.00     0.313 HD
HETATM   26  H8  UNL     1      23.791   5.807  45.736  1.00  0.00     0.313 HD
ENDBRANCH  23  24
BRANCH  23  27
HETATM   27  C7  UNL     1      21.800   7.869  47.300  1.00  0.00     0.027 A 
HETATM   28  C8  UNL     1      20.708   8.306  46.433  1.00  0.00     0.012 A 
HETATM   29  C9  UNL     1      21.483   9.366  47.076  1.00  0.00    -0.012 A 
HETATM   30  C10 UNL     1      22.476  10.219  46.358  1.00  0.00     0.010 C 
ENDBRANCH  23  27
ENDBRANCH   5  23
BRANCH  11  31
HETATM   31  N2  UNL     1      27.060   7.009  49.174  1.00  0.00     0.100 N 
HETATM   32  H21 UNL     1      27.729   7.264  49.957  1.00  0.00     0.314 HD
HETATM   33  H22 UNL     1      27.410   7.453  48.293  1.00  0.00     0.314 HD
ENDBRANCH  11  31
BRANCH  10  34
HETATM   34  O1  UNL     1      27.191   8.694  51.052  1.00  0.00    -0.388 OA
HETATM   35  H20 UNL     1      26.872   8.766  51.998  1.00  0.00     0.210 HD
ENDBRANCH  10  34
TORSDOF 5
ENDMDL
MODEL 9
REMARK VINA RESULT:      -6.6      6.231      9.172
REMARK  5 active torsions:
REMARK  status: ('A' for Active; 'I' for Inactive)
REMARK    1  A    between atoms: C5_5  and  C6_6 
REMARK    2  A    between atoms: C6_6  and  N1_7 
REMARK    3  A    between atoms: C6_6  and  C7_8 
REMARK    4  A    between atoms: C15_16  and  O1_17 
REMARK    5  A    between atoms: C16_18  and  N2_19 
ROOT
HETATM    1  C1  UNL     1      31.111  11.944  44.384  1.00  0.00     0.011 C 
HETATM    2  C2  UNL     1      29.853  11.374  45.023  1.00  0.00    -0.039 C 
HETATM    3  C3  UNL     1      30.392  10.251  45.659  1.00  0.00     0.054 C 
HETATM    4  C4  UNL     1      30.240   9.070  46.462  1.00  0.00    -0.011 C 
HETATM    5  C5  UNL     1      29.515   8.250  47.120  1.00  0.00    -0.019 C 
HETATM    6  C11 UNL     1      28.515   7.474  47.792  1.00  0.00    -0.004 C 
HETATM    7  C12 UNL     1      28.519   6.166  47.870  1.00  0.00     0.011 C 
HETATM    8  C13 UNL     1      27.565   5.346  48.575  1.00  0.00    -0.001 C 
HETATM    9  C14 UNL     1      26.611   5.957  49.243  1.00  0.00     0.008 C 
HETATM   10  C15 UNL     1      26.505   7.467  49.310  1.00  0.00     0.189 C 
HETATM   11  C16 UNL     1      27.158   8.061  48.132  1.00  0.00     0.240 C 
HETATM   12  C17 UNL     1      27.191   9.499  48.085  1.00  0.00     0.013 A 
HETATM   13  C18 UNL     1      27.297  10.446  49.060  1.00  0.00     0.129 A 
HETATM   14  N3  UNL     1      27.583  11.529  48.300  1.00  0.00    -0.241 N 
HETATM   15  N4  UNL     1      27.832  12.693  48.934  1.00  0.00    -0.161 NA
HETATM   16  C19 UNL     1      28.207  13.734  48.176  1.00  0.00     0.255 A 
HETATM   17  N5  UNL     1      28.302  13.498  46.865  1.00  0.00    -0.242 NA
HETATM   18  C20 UNL     1      28.037  12.308  46.304  1.00  0.00     0.065 A 
HETATM   19  C21 UNL     1      27.630  11.200  47.015  1.00  0.00     0.089 A 
HETATM   20  C22 UNL     1      27.364   9.879  46.778  1.00  0.00    -0.020 A 
HETATM   21  C23 UNL     1      27.160   9.203  45.472  1.00  0.00     0.051 C 
HETATM   22  C24 UNL     1      28.567  12.274  44.898  1.00  0.00     0.067 C 
ENDROOT
BRANCH   5  23
HETATM   23  C6  UNL     1      30.806   7.473  47.439  1.00  0.00     0.255 C 
BRANCH  23  24
HETATM   24  N1  UNL     1      31.397   7.160  46.156  1.00  0.00     0.087 N 
HETATM   25  H7  UNL     1      30.714   7.113  45.385  1.00  0.00     0.313 HD
HETATM   26  H8  UNL     1      31.918   6.259  46.160  1.00  0.00     0.313 HD
ENDBRANCH  23  24
BRANCH  23  27
HETATM   27  C7  UNL     1      31.720   8.205  48.387  1.00  0.00     0.027 A 
HETATM   28  C8  UNL     1      33.121   7.852  48.608  1.00  0.00     0.012 A 
HETATM   29  C9  UNL     1      32.163   7.328  49.581  1.00  0.00    -0.012 A 
HETATM   30  C10 UNL     1      31.731   5.900  49.633  1.00  0.00     0.010 C 
ENDBRANCH  23  27
ENDBRANCH   5  23
BRANCH  11  31
HETATM   31  N2  UNL     1      26.247   7.612  47.011  1.00  0.00     0.100 N 
HETATM   32  H21 UNL     1      26.338   8.350  46.254  1.00  0.00     0.314 HD
HETATM   33  H22 UNL     1      25.257   7.618  47.350  1.00  0.00     0.314 HD
ENDBRANCH  11  31
BRANCH  10  34
HETATM   34  O1  UNL     1      25.127   7.753  49.272  1.00  0.00    -0.388 OA
HETATM   35  H20 UNL     1      24.827   8.028  48.356  1.00  0.00     0.210 HD
ENDBRANCH  10  34
TORSDOF 5
ENDMDL
