MODEL 1
REMARK VINA RESULT:      -8.7      0.000      0.000
REMARK  4 active torsions:
REMARK  status: ('A' for Active; 'I' for Inactive)
REMARK    1  A    between atoms: O1_1  and  C1_2 
REMARK    2  A    between atoms: C3_5  and  N1_6 
REMARK    3  A    between atoms: C4_8  and  C5_9 
REMARK    4  A    between atoms: C12_16  and  C13_17 
ROOT
HETATM    1  N1  UNL     1      23.428   1.352  52.548  1.00  0.00    -0.236 N 
HETATM    2  N2  UNL     1      22.761   1.680  51.362  1.00  0.00    -0.173 NA
HETATM    3  C4  UNL     1      23.446   2.507  50.662  1.00  0.00     0.067 C 
HETATM    4  C11 UNL     1      24.700   2.828  51.344  1.00  0.00     0.094 C 
HETATM    5  C12 UNL     1      24.598   2.163  52.680  1.00  0.00     0.151 C 
ENDROOT
BRANCH   1   6
HETATM    6  C3  UNL     1      22.824   0.310  53.353  1.00  0.00     0.192 A 
HETATM    7  S1  UNL     1      21.020  -0.125  52.949  1.00  0.00    -0.058 SA
HETATM    8  C2  UNL     1      20.938  -1.359  54.206  1.00  0.00     0.111 A 
HETATM    9  C1  UNL     1      22.326  -1.302  54.809  1.00  0.00     0.171 A 
HETATM   10  N3  UNL     1      23.104  -0.392  54.225  1.00  0.00    -0.198 NA
BRANCH   9  11
HETATM   11  O1  UNL     1      22.933  -2.025  55.858  1.00  0.00    -0.344 OA
HETATM   12  H1  UNL     1      23.850  -2.443  55.770  1.00  0.00     0.219 HD
ENDBRANCH   9  11
ENDBRANCH   1   6
BRANCH   5  13
HETATM   13  C13 UNL     1      25.842   1.380  52.934  1.00  0.00    -0.033 A 
HETATM   14  C14 UNL     1      26.068   0.233  52.180  1.00  0.00     0.011 A 
HETATM   15  C15 UNL     1      27.209  -0.522  52.382  1.00  0.00     0.019 A 
HETATM   16  C16 UNL     1      28.134  -0.129  53.351  1.00  0.00     0.011 A 
HETATM   17 BR1  UNL     1      29.680  -1.197  53.589  1.00  0.00    -0.051 Br
HETATM   18  C17 UNL     1      27.866   1.024  54.080  1.00  0.00     0.019 A 
HETATM   19  C18 UNL     1      26.735   1.797  53.899  1.00  0.00     0.011 A 
ENDBRANCH   5  13
BRANCH   3  20
HETATM   20  C5  UNL     1      23.000   3.036  49.358  1.00  0.00    -0.010 A 
HETATM   21  C6  UNL     1      22.395   2.152  48.483  1.00  0.00     0.013 A 
HETATM   22  C7  UNL     1      21.975   2.644  47.259  1.00  0.00     0.001 A 
HETATM   23  C8  UNL     1      22.158   3.977  46.934  1.00  0.00     0.000 A 
HETATM   24  C9  UNL     1      22.759   4.838  47.813  1.00  0.00     0.001 A 
HETATM   25  C10 UNL     1      23.194   4.373  49.057  1.00  0.00     0.013 A 
ENDBRANCH   3  20
TORSDOF 4
ENDMDL
MODEL 2
REMARK VINA RESULT:      -8.5      3.463      6.991
REMARK  4 active torsions:
REMARK  status: ('A' for Active; 'I' for Inactive)
REMARK    1  A    between atoms: O1_1  and  C1_2 
REMARK    2  A    between atoms: C3_5  and  N1_6 
REMARK    3  A    between atoms: C4_8  and  C5_9 
REMARK    4  A    between atoms: C12_16  and  C13_17 
ROOT
HETATM    1  N1  UNL     1      24.195   1.274  52.016  1.00  0.00    -0.236 N 
HETATM    2  N2  UNL     1      25.481   0.738  51.885  1.00  0.00    -0.173 NA
HETATM    3  C4  UNL     1      25.811   0.072  52.930  1.00  0.00     0.067 C 
HETATM    4  C11 UNL     1      24.724   0.098  53.909  1.00  0.00     0.094 C 
HETATM    5  C12 UNL     1      23.710   1.039  53.340  1.00  0.00     0.151 C 
ENDROOT
BRANCH   1   6
HETATM    6  C3  UNL     1      23.651   1.921  50.839  1.00  0.00     0.192 A 
HETATM    7  S1  UNL     1      24.423   3.589  50.364  1.00  0.00    -0.058 SA
HETATM    8  C2  UNL     1      23.369   3.784  48.963  1.00  0.00     0.111 A 
HETATM    9  C1  UNL     1      22.525   2.527  49.013  1.00  0.00     0.171 A 
HETATM   10  N3  UNL     1      22.839   1.737  50.038  1.00  0.00    -0.198 NA
BRANCH   9  11
HETATM   11  O1  UNL     1      21.486   2.051  48.186  1.00  0.00    -0.344 OA
HETATM   12  H1  UNL     1      21.644   1.378  47.448  1.00  0.00     0.219 HD
ENDBRANCH   9  11
ENDBRANCH   1   6
BRANCH   5  13
HETATM   13  C13 UNL     1      22.366   0.393  53.378  1.00  0.00    -0.033 A 
HETATM   14  C14 UNL     1      21.259   1.147  53.001  1.00  0.00     0.011 A 
HETATM   15  C15 UNL     1      19.994   0.588  53.021  1.00  0.00     0.019 A 
HETATM   16  C16 UNL     1      19.833  -0.740  53.424  1.00  0.00     0.011 A 
HETATM   17 BR1  UNL     1      18.081  -1.459  53.434  1.00  0.00    -0.051 Br
HETATM   18  C17 UNL     1      20.968  -1.453  53.791  1.00  0.00     0.019 A 
HETATM   19  C18 UNL     1      22.242  -0.920  53.780  1.00  0.00     0.011 A 
ENDBRANCH   5  13
BRANCH   3  20
HETATM   20  C5  UNL     1      27.111  -0.610  53.085  1.00  0.00    -0.010 A 
HETATM   21  C6  UNL     1      27.174  -1.950  52.747  1.00  0.00     0.013 A 
HETATM   22  C7  UNL     1      28.392  -2.593  52.891  1.00  0.00     0.001 A 
HETATM   23  C8  UNL     1      29.501  -1.908  53.357  1.00  0.00     0.000 A 
HETATM   24  C9  UNL     1      29.420  -0.582  53.686  1.00  0.00     0.001 A 
HETATM   25  C10 UNL     1      28.206   0.097  53.552  1.00  0.00     0.013 A 
ENDBRANCH   3  20
TORSDOF 4
ENDMDL
MODEL 3
REMARK VINA RESULT:      -8.5      4.041      7.229
REMARK  4 active torsions:
REMARK  status: ('A' for Active; 'I' for Inactive)
REMARK    1  A    between atoms: O1_1  and  C1_2 
REMARK    2  A    between atoms: C3_5  and  N1_6 
REMARK    3  A    between atoms: C4_8  and  C5_9 
REMARK    4  A    between atoms: C12_16  and  C13_17 
ROOT
HETATM    1  N1  UNL     1      24.502   2.203  52.500  1.00  0.00    -0.236 N 
HETATM    2  N2  UNL     1      25.758   1.588  52.434  1.00  0.00    -0.173 NA
HETATM    3  C4  UNL     1      25.715   0.402  52.919  1.00  0.00     0.067 C 
HETATM    4  C11 UNL     1      24.361   0.092  53.377  1.00  0.00     0.094 C 
HETATM    5  C12 UNL     1      23.597   1.370  53.228  1.00  0.00     0.151 C 
ENDROOT
BRANCH   1   6
HETATM    6  C3  UNL     1      24.388   3.491  51.845  1.00  0.00     0.192 A 
HETATM    7  S1  UNL     1      25.499   3.765  50.329  1.00  0.00    -0.058 SA
HETATM    8  C2  UNL     1      24.890   5.399  50.064  1.00  0.00     0.111 A 
HETATM    9  C1  UNL     1      23.884   5.559  51.185  1.00  0.00     0.171 A 
HETATM   10  N3  UNL     1      23.798   4.477  51.956  1.00  0.00    -0.198 NA
BRANCH   9  11
HETATM   11  O1  UNL     1      23.040   6.627  51.554  1.00  0.00    -0.344 OA
HETATM   12  H1  UNL     1      23.075   7.057  52.469  1.00  0.00     0.219 HD
ENDBRANCH   9  11
ENDBRANCH   1   6
BRANCH   5  13
HETATM   13  C13 UNL     1      22.322   1.098  52.505  1.00  0.00    -0.033 A 
HETATM   14  C14 UNL     1      21.147   1.005  53.246  1.00  0.00     0.011 A 
HETATM   15  C15 UNL     1      19.942   0.755  52.616  1.00  0.00     0.019 A 
HETATM   16  C16 UNL     1      19.908   0.594  51.229  1.00  0.00     0.011 A 
HETATM   17 BR1  UNL     1      18.234   0.253  50.414  1.00  0.00    -0.051 Br
HETATM   18  C17 UNL     1      21.106   0.696  50.531  1.00  0.00     0.019 A 
HETATM   19  C18 UNL     1      22.324   0.945  51.134  1.00  0.00     0.011 A 
ENDBRANCH   5  13
BRANCH   3  20
HETATM   20  C5  UNL     1      26.887  -0.493  52.987  1.00  0.00    -0.010 A 
HETATM   21  C6  UNL     1      28.080   0.049  53.429  1.00  0.00     0.013 A 
HETATM   22  C7  UNL     1      29.182  -0.787  53.494  1.00  0.00     0.001 A 
HETATM   23  C8  UNL     1      29.080  -2.118  53.128  1.00  0.00     0.000 A 
HETATM   24  C9  UNL     1      27.891  -2.638  52.693  1.00  0.00     0.001 A 
HETATM   25  C10 UNL     1      26.760  -1.821  52.616  1.00  0.00     0.013 A 
ENDBRANCH   3  20
TORSDOF 4
ENDMDL
MODEL 4
REMARK VINA RESULT:      -8.1      2.963      6.167
REMARK  4 active torsions:
REMARK  status: ('A' for Active; 'I' for Inactive)
REMARK    1  A    between atoms: O1_1  and  C1_2 
REMARK    2  A    between atoms: C3_5  and  N1_6 
REMARK    3  A    between atoms: C4_8  and  C5_9 
REMARK    4  A    between atoms: C12_16  and  C13_17 
ROOT
HETATM    1  N1  UNL     1      23.889   1.033  52.059  1.00  0.00    -0.236 N 
HETATM    2  N2  UNL     1      24.951   0.451  52.761  1.00  0.00    -0.173 NA
HETATM    3  C4  UNL     1      26.080   0.859  52.310  1.00  0.00     0.067 C 
HETATM    4  C11 UNL     1      25.873   1.800  51.210  1.00  0.00     0.094 C 
HETATM    5  C12 UNL     1      24.399   1.785  50.956  1.00  0.00     0.151 C 
ENDROOT
BRANCH   1   6
HETATM    6  C3  UNL     1      22.561   0.766  52.574  1.00  0.00     0.192 A 
HETATM    7  S1  UNL     1      21.192   0.519  51.282  1.00  0.00    -0.058 SA
HETATM    8  C2  UNL     1      19.952   0.259  52.509  1.00  0.00     0.111 A 
HETATM    9  C1  UNL     1      20.737   0.392  53.798  1.00  0.00     0.171 A 
HETATM   10  N3  UNL     1      22.027   0.647  53.591  1.00  0.00    -0.198 NA
BRANCH   9  11
HETATM   11  O1  UNL     1      20.355   0.297  55.153  1.00  0.00    -0.344 OA
HETATM   12  H1  UNL     1      19.418   0.513  55.470  1.00  0.00     0.219 HD
ENDBRANCH   9  11
ENDBRANCH   1   6
BRANCH   5  13
HETATM   13  C13 UNL     1      23.895   3.187  50.905  1.00  0.00    -0.033 A 
HETATM   14  C14 UNL     1      23.395   3.668  49.698  1.00  0.00     0.011 A 
HETATM   15  C15 UNL     1      22.917   4.962  49.607  1.00  0.00     0.019 A 
HETATM   16  C16 UNL     1      22.939   5.788  50.733  1.00  0.00     0.011 A 
HETATM   17 BR1  UNL     1      22.273   7.552  50.556  1.00  0.00    -0.051 Br
HETATM   18  C17 UNL     1      23.447   5.264  51.916  1.00  0.00     0.019 A 
HETATM   19  C18 UNL     1      23.931   3.976  52.036  1.00  0.00     0.011 A 
ENDBRANCH   5  13
BRANCH   3  20
HETATM   20  C5  UNL     1      27.381   0.419  52.851  1.00  0.00    -0.010 A 
HETATM   21  C6  UNL     1      28.242   1.395  53.318  1.00  0.00     0.013 A 
HETATM   22  C7  UNL     1      29.464   0.986  53.826  1.00  0.00     0.001 A 
HETATM   23  C8  UNL     1      29.799  -0.356  53.862  1.00  0.00     0.000 A 
HETATM   24  C9  UNL     1      28.934  -1.309  53.396  1.00  0.00     0.001 A 
HETATM   25  C10 UNL     1      27.693  -0.930  52.877  1.00  0.00     0.013 A 
ENDBRANCH   3  20
TORSDOF 4
ENDMDL
MODEL 5
REMARK VINA RESULT:      -8.1      4.330      7.297
REMARK  4 active torsions:
REMARK  status: ('A' for Active; 'I' for Inactive)
REMARK    1  A    between atoms: O1_1  and  C1_2 
REMARK    2  A    between atoms: C3_5  and  N1_6 
REMARK    3  A    between atoms: C4_8  and  C5_9 
REMARK    4  A    between atoms: C12_16  and  C13_17 
ROOT
HETATM    1  N1  UNL     1      25.033   2.715  51.914  1.00  0.00    -0.236 N 
HETATM    2  N2  UNL     1      26.190   1.928  51.937  1.00  0.00    -0.173 NA
HETATM    3  C4  UNL     1      26.014   0.871  52.642  1.00  0.00     0.067 C 
HETATM    4  C11 UNL     1      24.656   0.847  53.185  1.00  0.00     0.094 C 
HETATM    5  C12 UNL     1      24.064   2.170  52.812  1.00  0.00     0.151 C 
ENDROOT
BRANCH   1   6
HETATM    6  C3  UNL     1      25.059   3.861  51.028  1.00  0.00     0.192 A 
HETATM    7  S1  UNL     1      26.406   3.858  49.689  1.00  0.00    -0.058 SA
HETATM    8  C2  UNL     1      25.890   5.413  49.035  1.00  0.00     0.111 A 
HETATM    9  C1  UNL     1      24.721   5.771  49.930  1.00  0.00     0.171 A 
HETATM   10  N3  UNL     1      24.484   4.848  50.860  1.00  0.00    -0.198 NA
BRANCH   9  11
HETATM   11  O1  UNL     1      23.856   6.885  49.956  1.00  0.00    -0.344 OA
HETATM   12  H1  UNL     1      24.169   7.821  49.734  1.00  0.00     0.219 HD
ENDBRANCH   9  11
ENDBRANCH   1   6
BRANCH   5  13
HETATM   13  C13 UNL     1      22.728   1.950  52.188  1.00  0.00    -0.033 A 
HETATM   14  C14 UNL     1      22.479   0.730  51.568  1.00  0.00     0.011 A 
HETATM   15  C15 UNL     1      21.253   0.484  50.976  1.00  0.00     0.019 A 
HETATM   16  C16 UNL     1      20.264   1.469  51.003  1.00  0.00     0.011 A 
HETATM   17 BR1  UNL     1      18.603   1.084  50.179  1.00  0.00    -0.051 Br
HETATM   18  C17 UNL     1      20.558   2.673  51.633  1.00  0.00     0.019 A 
HETATM   19  C18 UNL     1      21.773   2.945  52.232  1.00  0.00     0.011 A 
ENDBRANCH   5  13
BRANCH   3  20
HETATM   20  C5  UNL     1      27.058  -0.152  52.851  1.00  0.00    -0.010 A 
HETATM   21  C6  UNL     1      26.739  -1.462  52.542  1.00  0.00     0.013 A 
HETATM   22  C7  UNL     1      27.715  -2.425  52.737  1.00  0.00     0.001 A 
HETATM   23  C8  UNL     1      28.962  -2.076  53.224  1.00  0.00     0.000 A 
HETATM   24  C9  UNL     1      29.261  -0.774  53.525  1.00  0.00     0.001 A 
HETATM   25  C10 UNL     1      28.298   0.222  53.339  1.00  0.00     0.013 A 
ENDBRANCH   3  20
TORSDOF 4
ENDMDL
MODEL 6
REMARK VINA RESULT:      -8.0      3.900      5.258
REMARK  4 active torsions:
REMARK  status: ('A' for Active; 'I' for Inactive)
REMARK    1  A    between atoms: O1_1  and  C1_2 
REMARK    2  A    between atoms: C3_5  and  N1_6 
REMARK    3  A    between atoms: C4_8  and  C5_9 
REMARK    4  A    between atoms: C12_16  and  C13_17 
ROOT
HETATM    1  N1  UNL     1      26.880   1.997  51.661  1.00  0.00    -0.236 N 
HETATM    2  N2  UNL     1      27.216   3.215  51.056  1.00  0.00    -0.173 NA
HETATM    3  C4  UNL     1      26.343   3.549  50.179  1.00  0.00     0.067 C 
HETATM    4  C11 UNL     1      25.287   2.540  50.108  1.00  0.00     0.094 C 
HETATM    5  C12 UNL     1      25.746   1.431  51.000  1.00  0.00     0.151 C 
ENDROOT
BRANCH   1   6
HETATM    6  C3  UNL     1      27.711   1.588  52.776  1.00  0.00     0.192 A 
HETATM    7  S1  UNL     1      27.906  -0.283  53.037  1.00  0.00    -0.058 SA
HETATM    8  C2  UNL     1      28.951  -0.072  54.442  1.00  0.00     0.111 A 
HETATM    9  C1  UNL     1      29.038   1.436  54.560  1.00  0.00     0.171 A 
HETATM   10  N3  UNL     1      28.337   2.067  53.619  1.00  0.00    -0.198 NA
BRANCH   9  11
HETATM   11  O1  UNL     1      29.713   2.277  55.469  1.00  0.00    -0.344 OA
HETATM   12  H1  UNL     1      30.220   3.101  55.173  1.00  0.00     0.219 HD
ENDBRANCH   9  11
ENDBRANCH   1   6
BRANCH   5  13
HETATM   13  C13 UNL     1      24.640   1.056  51.927  1.00  0.00    -0.033 A 
HETATM   14  C14 UNL     1      23.511   1.869  51.974  1.00  0.00     0.011 A 
HETATM   15  C15 UNL     1      22.462   1.558  52.819  1.00  0.00     0.019 A 
HETATM   16  C16 UNL     1      22.540   0.423  53.629  1.00  0.00     0.011 A 
HETATM   17 BR1  UNL     1      21.077   0.042  54.769  1.00  0.00    -0.051 Br
HETATM   18  C17 UNL     1      23.687  -0.358  53.549  1.00  0.00     0.019 A 
HETATM   19  C18 UNL     1      24.750  -0.072  52.714  1.00  0.00     0.011 A 
ENDBRANCH   5  13
BRANCH   3  20
HETATM   20  C5  UNL     1      26.428   4.785  49.376  1.00  0.00    -0.010 A 
HETATM   21  C6  UNL     1      27.650   5.096  48.808  1.00  0.00     0.013 A 
HETATM   22  C7  UNL     1      27.734   6.254  48.054  1.00  0.00     0.001 A 
HETATM   23  C8  UNL     1      26.625   7.064  47.880  1.00  0.00     0.000 A 
HETATM   24  C9  UNL     1      25.422   6.740  48.449  1.00  0.00     0.001 A 
HETATM   25  C10 UNL     1      25.304   5.578  49.216  1.00  0.00     0.013 A 
ENDBRANCH   3  20
TORSDOF 4
ENDMDL
MODEL 7
REMARK VINA RESULT:      -7.8      3.503      6.507
REMARK  4 active torsions:
REMARK  status: ('A' for Active; 'I' for Inactive)
REMARK    1  A    between atoms: O1_1  and  C1_2 
REMARK    2  A    between atoms: C3_5  and  N1_6 
REMARK    3  A    between atoms: C4_8  and  C5_9 
REMARK    4  A    between atoms: C12_16  and  C13_17 
ROOT
HETATM    1  N1  UNL     1      23.795   2.108  51.464  1.00  0.00    -0.236 N 
HETATM    2  N2  UNL     1      24.718   1.508  52.328  1.00  0.00    -0.173 NA
HETATM    3  C4  UNL     1      25.921   1.759  51.963  1.00  0.00     0.067 C 
HETATM    4  C11 UNL     1      25.919   2.592  50.760  1.00  0.00     0.094 C 
HETATM    5  C12 UNL     1      24.483   2.686  50.352  1.00  0.00     0.151 C 
ENDROOT
BRANCH   1   6
HETATM    6  C3  UNL     1      22.403   2.022  51.858  1.00  0.00     0.192 A 
HETATM    7  S1  UNL     1      21.801   0.323  52.456  1.00  0.00    -0.058 SA
HETATM    8  C2  UNL     1      20.161   0.902  52.745  1.00  0.00     0.111 A 
HETATM    9  C1  UNL     1      20.254   2.360  52.344  1.00  0.00     0.171 A 
HETATM   10  N3  UNL     1      21.473   2.702  51.930  1.00  0.00    -0.198 NA
BRANCH   9  11
HETATM   11  O1  UNL     1      19.302   3.400  52.330  1.00  0.00    -0.344 OA
HETATM   12  H1  UNL     1      19.077   3.920  51.492  1.00  0.00     0.219 HD
ENDBRANCH   9  11
ENDBRANCH   1   6
BRANCH   5  13
HETATM   13  C13 UNL     1      24.134   4.115  50.111  1.00  0.00    -0.033 A 
HETATM   14  C14 UNL     1      23.678   4.482  48.849  1.00  0.00     0.011 A 
HETATM   15  C15 UNL     1      23.342   5.796  48.582  1.00  0.00     0.019 A 
HETATM   16  C16 UNL     1      23.464   6.758  49.587  1.00  0.00     0.011 A 
HETATM   17 BR1  UNL     1      22.992   8.544  49.172  1.00  0.00    -0.051 Br
HETATM   18  C17 UNL     1      23.924   6.345  50.832  1.00  0.00     0.019 A 
HETATM   19  C18 UNL     1      24.266   5.040  51.127  1.00  0.00     0.011 A 
ENDBRANCH   5  13
BRANCH   3  20
HETATM   20  C5  UNL     1      27.111   1.261  52.680  1.00  0.00    -0.010 A 
HETATM   21  C6  UNL     1      27.935   2.198  53.277  1.00  0.00     0.013 A 
HETATM   22  C7  UNL     1      29.053   1.735  53.951  1.00  0.00     0.001 A 
HETATM   23  C8  UNL     1      29.325   0.380  54.018  1.00  0.00     0.000 A 
HETATM   24  C9  UNL     1      28.497  -0.534  53.422  1.00  0.00     0.001 A 
HETATM   25  C10 UNL     1      27.361  -0.099  52.734  1.00  0.00     0.013 A 
ENDBRANCH   3  20
TORSDOF 4
ENDMDL
MODEL 8
REMARK VINA RESULT:      -7.7      4.035      5.741
REMARK  4 active torsions:
REMARK  status: ('A' for Active; 'I' for Inactive)
REMARK    1  A    between atoms: O1_1  and  C1_2 
REMARK    2  A    between atoms: C3_5  and  N1_6 
REMARK    3  A    between atoms: C4_8  and  C5_9 
REMARK    4  A    between atoms: C12_16  and  C13_17 
ROOT
HETATM    1  N1  UNL     1      22.553   1.043  51.304  1.00  0.00    -0.236 N 
HETATM    2  N2  UNL     1      23.696   1.834  51.135  1.00  0.00    -0.173 NA
HETATM    3  C4  UNL     1      23.577   2.602  50.116  1.00  0.00     0.067 C 
HETATM    4  C11 UNL     1      22.281   2.389  49.472  1.00  0.00     0.094 C 
HETATM    5  C12 UNL     1      21.673   1.229  50.193  1.00  0.00     0.151 C 
ENDROOT
BRANCH   1   6
HETATM    6  C3  UNL     1      22.505   0.241  52.510  1.00  0.00     0.192 A 
HETATM    7  S1  UNL     1      24.161  -0.049  53.394  1.00  0.00    -0.058 SA
HETATM    8  C2  UNL     1      23.417  -1.017  54.668  1.00  0.00     0.111 A 
HETATM    9  C1  UNL     1      21.956  -1.012  54.270  1.00  0.00     0.171 A 
HETATM   10  N3  UNL     1      21.729  -0.320  53.155  1.00  0.00    -0.198 NA
BRANCH   9  11
HETATM   11  O1  UNL     1      20.814  -1.598  54.855  1.00  0.00    -0.344 OA
HETATM   12  H1  UNL     1      20.796  -2.561  55.166  1.00  0.00     0.219 HD
ENDBRANCH   9  11
ENDBRANCH   1   6
BRANCH   5  13
HETATM   13  C13 UNL     1      20.277   1.574  50.589  1.00  0.00    -0.033 A 
HETATM   14  C14 UNL     1      19.271   0.643  50.349  1.00  0.00     0.011 A 
HETATM   15  C15 UNL     1      17.963   0.922  50.700  1.00  0.00     0.019 A 
HETATM   16  C16 UNL     1      17.655   2.146  51.298  1.00  0.00     0.011 A 
HETATM   17 BR1  UNL     1      15.849   2.479  51.761  1.00  0.00    -0.051 Br
HETATM   18  C17 UNL     1      18.692   3.044  51.518  1.00  0.00     0.019 A 
HETATM   19  C18 UNL     1      20.007   2.792  51.178  1.00  0.00     0.011 A 
ENDBRANCH   5  13
BRANCH   3  20
HETATM   20  C5  UNL     1      24.622   3.551  49.685  1.00  0.00    -0.010 A 
HETATM   21  C6  UNL     1      25.934   3.113  49.711  1.00  0.00     0.013 A 
HETATM   22  C7  UNL     1      26.917   4.001  49.308  1.00  0.00     0.001 A 
HETATM   23  C8  UNL     1      26.586   5.280  48.895  1.00  0.00     0.000 A 
HETATM   24  C9  UNL     1      25.283   5.697  48.876  1.00  0.00     0.001 A 
HETATM   25  C10 UNL     1      24.266   4.825  49.275  1.00  0.00     0.013 A 
ENDBRANCH   3  20
TORSDOF 4
ENDMDL
MODEL 9
REMARK VINA RESULT:      -7.7      4.871      8.062
REMARK  4 active torsions:
REMARK  status: ('A' for Active; 'I' for Inactive)
REMARK    1  A    between atoms: O1_1  and  C1_2 
REMARK    2  A    between atoms: C3_5  and  N1_6 
REMARK    3  A    between atoms: C4_8  and  C5_9 
REMARK    4  A    between atoms: C12_16  and  C13_17 
ROOT
HETATM    1  N1  UNL     1      25.138   4.311  50.188  1.00  0.00    -0.236 N 
HETATM    2  N2  UNL     1      25.787   3.284  50.883  1.00  0.00    -0.173 NA
HETATM    3  C4  UNL     1      24.957   2.376  51.243  1.00  0.00     0.067 C 
HETATM    4  C11 UNL     1      23.606   2.723  50.802  1.00  0.00     0.094 C 
HETATM    5  C12 UNL     1      23.725   4.101  50.231  1.00  0.00     0.151 C 
ENDROOT
BRANCH   1   6
HETATM    6  C3  UNL     1      25.993   5.322  49.599  1.00  0.00     0.192 A 
HETATM    7  S1  UNL     1      25.594   7.125  50.045  1.00  0.00    -0.058 SA
HETATM    8  C2  UNL     1      26.916   7.757  49.063  1.00  0.00     0.111 A 
HETATM    9  C1  UNL     1      27.529   6.496  48.490  1.00  0.00     0.171 A 
HETATM   10  N3  UNL     1      26.904   5.391  48.894  1.00  0.00    -0.198 NA
BRANCH   9  11
HETATM   11  O1  UNL     1      28.622   6.284  47.624  1.00  0.00    -0.344 OA
HETATM   12  H1  UNL     1      28.504   5.984  46.664  1.00  0.00     0.219 HD
ENDBRANCH   9  11
ENDBRANCH   1   6
BRANCH   5  13
HETATM   13  C13 UNL     1      23.075   4.134  48.889  1.00  0.00    -0.033 A 
HETATM   14  C14 UNL     1      22.813   2.926  48.250  1.00  0.00     0.011 A 
HETATM   15  C15 UNL     1      22.212   2.910  47.005  1.00  0.00     0.019 A 
HETATM   16  C16 UNL     1      21.868   4.115  46.389  1.00  0.00     0.011 A 
HETATM   17 BR1  UNL     1      21.047   4.040  44.685  1.00  0.00    -0.051 Br
HETATM   18  C17 UNL     1      22.149   5.297  47.065  1.00  0.00     0.019 A 
HETATM   19  C18 UNL     1      22.749   5.342  48.309  1.00  0.00     0.011 A 
ENDBRANCH   5  13
BRANCH   3  20
HETATM   20  C5  UNL     1      25.347   1.166  51.994  1.00  0.00    -0.010 A 
HETATM   21  C6  UNL     1      26.623   0.672  51.791  1.00  0.00     0.013 A 
HETATM   22  C7  UNL     1      26.994  -0.462  52.493  1.00  0.00     0.001 A 
HETATM   23  C8  UNL     1      26.109  -1.072  53.365  1.00  0.00     0.000 A 
HETATM   24  C9  UNL     1      24.850  -0.569  53.554  1.00  0.00     0.001 A 
HETATM   25  C10 UNL     1      24.445   0.575  52.861  1.00  0.00     0.013 A 
ENDBRANCH   3  20
TORSDOF 4
ENDMDL
