MODEL 1
REMARK VINA RESULT:      -9.0      0.000      0.000
REMARK  2 active torsions:
REMARK  status: ('A' for Active; 'I' for Inactive)
REMARK    1  A    between atoms: N1_5  and  C4_6 
REMARK    2  A    between atoms: C6_9  and  C7_10 
ROOT
HETATM    1  C4  UNL     1      24.755  -0.170  52.945  1.00  0.00     0.243 C 
HETATM    2  N2  UNL     1      24.906   0.930  52.021  1.00  0.00    -0.262 NA
HETATM    3  C5  UNL     1      23.765   1.363  51.737  1.00  0.00     0.046 C 
HETATM    4  C6  UNL     1      22.994   2.314  50.977  1.00  0.00     0.098 C 
HETATM    5  C12 UNL     1      22.767   0.722  52.639  1.00  0.00    -0.001 A 
HETATM    6  C13 UNL     1      21.386   0.768  52.980  1.00  0.00     0.014 A 
HETATM    7  C14 UNL     1      20.807   0.074  53.991  1.00  0.00     0.001 A 
HETATM    8  C15 UNL     1      21.550  -0.728  54.785  1.00  0.00     0.001 A 
HETATM    9  C16 UNL     1      22.920  -0.866  54.569  1.00  0.00     0.012 A 
HETATM   10  C17 UNL     1      23.460  -0.154  53.519  1.00  0.00    -0.002 A 
ENDROOT
BRANCH   1  11
HETATM   11  N1  UNL     1      25.912  -0.737  53.435  1.00  0.00    -0.360 N 
HETATM   12  C3  UNL     1      26.345  -0.070  54.634  1.00  0.00     0.153 C 
HETATM   13  C2  UNL     1      27.752   0.467  54.358  1.00  0.00     0.017 C 
HETATM   14  C1  UNL     1      28.562  -0.417  53.807  1.00  0.00     0.033 C 
HETATM   15 CL1  UNL     1      30.243  -0.028  53.472  1.00  0.00    -0.085 Cl
HETATM   16  C19 UNL     1      28.082  -1.551  53.075  1.00  0.00     0.040 C 
HETATM   17  C18 UNL     1      26.809  -1.710  52.875  1.00  0.00     0.090 C 
ENDBRANCH   1  11
BRANCH   4  18
HETATM   18  C7  UNL     1      23.034   3.743  51.091  1.00  0.00    -0.050 A 
HETATM   19  C8  UNL     1      21.689   4.211  51.108  1.00  0.00     0.026 A 
HETATM   20  C9  UNL     1      21.465   5.539  51.164  1.00  0.00     0.116 A 
HETATM   21  N3  UNL     1      22.522   6.394  51.241  1.00  0.00    -0.273 NA
HETATM   22  C10 UNL     1      23.761   5.867  51.225  1.00  0.00     0.116 A 
HETATM   23  C11 UNL     1      24.106   4.511  51.132  1.00  0.00     0.026 A 
ENDBRANCH   4  18
TORSDOF 2
ENDMDL
MODEL 2
REMARK VINA RESULT:      -8.9      2.793      4.100
REMARK  2 active torsions:
REMARK  status: ('A' for Active; 'I' for Inactive)
REMARK    1  A    between atoms: N1_5  and  C4_6 
REMARK    2  A    between atoms: C6_9  and  C7_10 
ROOT
HETATM    1  C4  UNL     1      26.124   1.966  51.392  1.00  0.00     0.243 C 
HETATM    2  N2  UNL     1      26.992   2.999  50.877  1.00  0.00    -0.262 NA
HETATM    3  C5  UNL     1      26.388   3.599  49.958  1.00  0.00     0.046 C 
HETATM    4  C6  UNL     1      26.442   4.636  48.959  1.00  0.00     0.098 C 
HETATM    5  C12 UNL     1      24.966   3.152  49.943  1.00  0.00    -0.001 A 
HETATM    6  C13 UNL     1      23.721   3.427  49.311  1.00  0.00     0.014 A 
HETATM    7  C14 UNL     1      22.533   2.865  49.646  1.00  0.00     0.001 A 
HETATM    8  C15 UNL     1      22.457   1.980  50.665  1.00  0.00     0.001 A 
HETATM    9  C16 UNL     1      23.599   1.620  51.377  1.00  0.00     0.012 A 
HETATM   10  C17 UNL     1      24.786   2.205  50.989  1.00  0.00    -0.002 A 
ENDROOT
BRANCH   1  11
HETATM   11  N1  UNL     1      26.587   1.238  52.466  1.00  0.00    -0.360 N 
HETATM   12  C3  UNL     1      27.416   2.049  53.319  1.00  0.00     0.153 C 
HETATM   13  C2  UNL     1      28.788   1.372  53.374  1.00  0.00     0.017 C 
HETATM   14  C1  UNL     1      28.734   0.074  53.605  1.00  0.00     0.033 C 
HETATM   15 CL1  UNL     1      30.198  -0.882  53.778  1.00  0.00    -0.085 Cl
HETATM   16  C19 UNL     1      27.570  -0.711  53.324  1.00  0.00     0.040 C 
HETATM   17  C18 UNL     1      26.533  -0.167  52.761  1.00  0.00     0.090 C 
ENDBRANCH   1  11
BRANCH   4  18
HETATM   18  C7  UNL     1      26.597   6.043  49.186  1.00  0.00    -0.050 A 
HETATM   19  C8  UNL     1      27.751   6.471  48.469  1.00  0.00     0.026 A 
HETATM   20  C9  UNL     1      28.133   7.760  48.564  1.00  0.00     0.116 A 
HETATM   21  N3  UNL     1      27.391   8.625  49.308  1.00  0.00    -0.273 NA
HETATM   22  C10 UNL     1      26.311   8.139  49.950  1.00  0.00     0.116 A 
HETATM   23  C11 UNL     1      25.848   6.816  49.950  1.00  0.00     0.026 A 
ENDBRANCH   4  18
TORSDOF 2
ENDMDL
MODEL 3
REMARK VINA RESULT:      -8.8      2.459      6.378
REMARK  2 active torsions:
REMARK  status: ('A' for Active; 'I' for Inactive)
REMARK    1  A    between atoms: N1_5  and  C4_6 
REMARK    2  A    between atoms: C6_9  and  C7_10 
ROOT
HETATM    1  C4  UNL     1      24.412   2.730  51.812  1.00  0.00     0.243 C 
HETATM    2  N2  UNL     1      25.701   2.468  52.407  1.00  0.00    -0.262 NA
HETATM    3  C5  UNL     1      25.588   1.484  53.174  1.00  0.00     0.046 C 
HETATM    4  C6  UNL     1      26.245   0.604  54.107  1.00  0.00     0.098 C 
HETATM    5  C12 UNL     1      24.247   0.867  52.973  1.00  0.00    -0.001 A 
HETATM    6  C13 UNL     1      23.471  -0.259  53.368  1.00  0.00     0.014 A 
HETATM    7  C14 UNL     1      22.251  -0.582  52.869  1.00  0.00     0.001 A 
HETATM    8  C15 UNL     1      21.684   0.176  51.904  1.00  0.00     0.001 A 
HETATM    9  C16 UNL     1      22.334   1.308  51.418  1.00  0.00     0.012 A 
HETATM   10  C17 UNL     1      23.563   1.605  51.968  1.00  0.00    -0.002 A 
ENDROOT
BRANCH   1  11
HETATM   11  N1  UNL     1      24.348   3.738  50.875  1.00  0.00    -0.360 N 
HETATM   12  C3  UNL     1      24.897   3.307  49.617  1.00  0.00     0.153 C 
HETATM   13  C2  UNL     1      26.055   4.254  49.291  1.00  0.00     0.017 C 
HETATM   14  C1  UNL     1      25.756   5.531  49.439  1.00  0.00     0.033 C 
HETATM   15 CL1  UNL     1      26.920   6.789  49.050  1.00  0.00    -0.085 Cl
HETATM   16  C19 UNL     1      24.691   5.981  50.283  1.00  0.00     0.040 C 
HETATM   17  C18 UNL     1      24.014   5.130  50.993  1.00  0.00     0.090 C 
ENDBRANCH   1  11
BRANCH   4  18
HETATM   18  C7  UNL     1      27.333  -0.288  53.830  1.00  0.00    -0.050 A 
HETATM   19  C8  UNL     1      26.801  -1.415  53.141  1.00  0.00     0.026 A 
HETATM   20  C9  UNL     1      27.630  -2.423  52.808  1.00  0.00     0.116 A 
HETATM   21  N3  UNL     1      28.956  -2.326  53.105  1.00  0.00    -0.273 NA
HETATM   22  C10 UNL     1      29.377  -1.223  53.754  1.00  0.00     0.116 A 
HETATM   23  C11 UNL     1      28.597  -0.137  54.177  1.00  0.00     0.026 A 
ENDBRANCH   4  18
TORSDOF 2
ENDMDL
MODEL 4
REMARK VINA RESULT:      -8.6      2.167      4.039
REMARK  2 active torsions:
REMARK  status: ('A' for Active; 'I' for Inactive)
REMARK    1  A    between atoms: N1_5  and  C4_6 
REMARK    2  A    between atoms: C6_9  and  C7_10 
ROOT
HETATM    1  C4  UNL     1      25.049   0.887  52.878  1.00  0.00     0.243 C 
HETATM    2  N2  UNL     1      23.647   0.690  53.164  1.00  0.00    -0.262 NA
HETATM    3  C5  UNL     1      22.999   1.604  52.603  1.00  0.00     0.046 C 
HETATM    4  C6  UNL     1      21.704   2.187  52.361  1.00  0.00     0.098 C 
HETATM    5  C12 UNL     1      23.914   2.361  51.702  1.00  0.00    -0.001 A 
HETATM    6  C13 UNL     1      23.906   3.394  50.723  1.00  0.00     0.014 A 
HETATM    7  C14 UNL     1      24.974   3.773  49.978  1.00  0.00     0.001 A 
HETATM    8  C15 UNL     1      26.163   3.146  50.117  1.00  0.00     0.001 A 
HETATM    9  C16 UNL     1      26.315   2.112  51.037  1.00  0.00     0.012 A 
HETATM   10  C17 UNL     1      25.206   1.773  51.783  1.00  0.00    -0.002 A 
ENDROOT
BRANCH   1  11
HETATM   11  N1  UNL     1      25.923  -0.067  53.352  1.00  0.00    -0.360 N 
HETATM   12  C3  UNL     1      26.459   0.314  54.632  1.00  0.00     0.153 C 
HETATM   13  C2  UNL     1      27.980   0.385  54.472  1.00  0.00     0.017 C 
HETATM   14  C1  UNL     1      28.501  -0.664  53.863  1.00  0.00     0.033 C 
HETATM   15 CL1  UNL     1      30.238  -0.817  53.641  1.00  0.00    -0.085 Cl
HETATM   16  C19 UNL     1      27.738  -1.510  52.996  1.00  0.00     0.040 C 
HETATM   17  C18 UNL     1      26.499  -1.226  52.728  1.00  0.00     0.090 C 
ENDBRANCH   1  11
BRANCH   4  18
HETATM   18  C7  UNL     1      20.600   1.578  51.676  1.00  0.00    -0.050 A 
HETATM   19  C8  UNL     1      19.992   0.656  52.575  1.00  0.00     0.026 A 
HETATM   20  C9  UNL     1      18.950  -0.081  52.141  1.00  0.00     0.116 A 
HETATM   21  N3  UNL     1      18.483   0.100  50.875  1.00  0.00    -0.273 NA
HETATM   22  C10 UNL     1      19.113   0.997  50.093  1.00  0.00     0.116 A 
HETATM   23  C11 UNL     1      20.223   1.785  50.429  1.00  0.00     0.026 A 
ENDBRANCH   4  18
TORSDOF 2
ENDMDL
MODEL 5
REMARK VINA RESULT:      -8.5      2.272      3.878
REMARK  2 active torsions:
REMARK  status: ('A' for Active; 'I' for Inactive)
REMARK    1  A    between atoms: N1_5  and  C4_6 
REMARK    2  A    between atoms: C6_9  and  C7_10 
ROOT
HETATM    1  C4  UNL     1      25.259   1.978  52.624  1.00  0.00     0.243 C 
HETATM    2  N2  UNL     1      23.920   2.268  53.083  1.00  0.00    -0.262 NA
HETATM    3  C5  UNL     1      23.521   3.303  52.501  1.00  0.00     0.046 C 
HETATM    4  C6  UNL     1      22.453   4.257  52.342  1.00  0.00     0.098 C 
HETATM    5  C12 UNL     1      24.491   3.658  51.427  1.00  0.00    -0.001 A 
HETATM    6  C13 UNL     1      24.671   4.568  50.348  1.00  0.00     0.014 A 
HETATM    7  C14 UNL     1      25.689   4.528  49.452  1.00  0.00     0.001 A 
HETATM    8  C15 UNL     1      26.628   3.559  49.526  1.00  0.00     0.001 A 
HETATM    9  C16 UNL     1      26.575   2.596  50.532  1.00  0.00     0.012 A 
HETATM   10  C17 UNL     1      25.531   2.688  51.429  1.00  0.00    -0.002 A 
ENDROOT
BRANCH   1  11
HETATM   11  N1  UNL     1      25.847   0.826  53.099  1.00  0.00    -0.360 N 
HETATM   12  C3  UNL     1      26.449   1.047  54.388  1.00  0.00     0.153 C 
HETATM   13  C2  UNL     1      27.937   0.716  54.243  1.00  0.00     0.017 C 
HETATM   14  C1  UNL     1      28.171  -0.430  53.632  1.00  0.00     0.033 C 
HETATM   15 CL1  UNL     1      29.809  -1.032  53.425  1.00  0.00    -0.085 Cl
HETATM   16  C19 UNL     1      27.223  -1.041  52.751  1.00  0.00     0.040 C 
HETATM   17  C18 UNL     1      26.105  -0.441  52.473  1.00  0.00     0.090 C 
ENDBRANCH   1  11
BRANCH   4  18
HETATM   18  C7  UNL     1      21.130   3.996  51.854  1.00  0.00    -0.050 A 
HETATM   19  C8  UNL     1      20.858   4.938  50.821  1.00  0.00     0.026 A 
HETATM   20  C9  UNL     1      19.646   4.923  50.232  1.00  0.00     0.116 A 
HETATM   21  N3  UNL     1      18.729   3.990  50.610  1.00  0.00    -0.273 NA
HETATM   22  C10 UNL     1      19.070   3.133  51.592  1.00  0.00     0.116 A 
HETATM   23  C11 UNL     1      20.283   3.085  52.294  1.00  0.00     0.026 A 
ENDBRANCH   4  18
TORSDOF 2
ENDMDL
MODEL 6
REMARK VINA RESULT:      -8.4      3.441      4.882
REMARK  2 active torsions:
REMARK  status: ('A' for Active; 'I' for Inactive)
REMARK    1  A    between atoms: N1_5  and  C4_6 
REMARK    2  A    between atoms: C6_9  and  C7_10 
ROOT
HETATM    1  C4  UNL     1      25.977   2.325  51.672  1.00  0.00     0.243 C 
HETATM    2  N2  UNL     1      26.923   2.712  50.651  1.00  0.00    -0.262 NA
HETATM    3  C5  UNL     1      26.401   3.612  49.953  1.00  0.00     0.046 C 
HETATM    4  C6  UNL     1      26.550   4.500  48.828  1.00  0.00     0.098 C 
HETATM    5  C12 UNL     1      25.137   4.057  50.604  1.00  0.00    -0.001 A 
HETATM    6  C13 UNL     1      24.110   5.036  50.485  1.00  0.00     0.014 A 
HETATM    7  C14 UNL     1      23.107   5.228  51.379  1.00  0.00     0.001 A 
HETATM    8  C15 UNL     1      23.033   4.475  52.499  1.00  0.00     0.001 A 
HETATM    9  C16 UNL     1      23.976   3.481  52.747  1.00  0.00     0.012 A 
HETATM   10  C17 UNL     1      24.967   3.311  51.803  1.00  0.00    -0.002 A 
ENDROOT
BRANCH   1  11
HETATM   11  N1  UNL     1      26.398   1.391  52.592  1.00  0.00    -0.360 N 
HETATM   12  C3  UNL     1      26.165   0.054  52.113  1.00  0.00     0.153 C 
HETATM   13  C2  UNL     1      25.246  -0.627  53.132  1.00  0.00     0.017 C 
HETATM   14  C1  UNL     1      25.630  -0.469  54.385  1.00  0.00     0.033 C 
HETATM   15 CL1  UNL     1      24.756  -1.229  55.707  1.00  0.00    -0.085 Cl
HETATM   16  C19 UNL     1      26.471   0.611  54.803  1.00  0.00     0.040 C 
HETATM   17  C18 UNL     1      26.836   1.524  53.954  1.00  0.00     0.090 C 
ENDBRANCH   1  11
BRANCH   4  18
HETATM   18  C7  UNL     1      27.517   5.549  48.680  1.00  0.00    -0.050 A 
HETATM   19  C8  UNL     1      26.851   6.785  48.914  1.00  0.00     0.026 A 
HETATM   20  C9  UNL     1      27.547   7.932  48.787  1.00  0.00     0.116 A 
HETATM   21  N3  UNL     1      28.872   7.880  48.477  1.00  0.00    -0.273 NA
HETATM   22  C10 UNL     1      29.425   6.668  48.277  1.00  0.00     0.116 A 
HETATM   23  C11 UNL     1      28.787   5.422  48.347  1.00  0.00     0.026 A 
ENDBRANCH   4  18
TORSDOF 2
ENDMDL
MODEL 7
REMARK VINA RESULT:      -8.2      2.112      2.783
REMARK  2 active torsions:
REMARK  status: ('A' for Active; 'I' for Inactive)
REMARK    1  A    between atoms: N1_5  and  C4_6 
REMARK    2  A    between atoms: C6_9  and  C7_10 
ROOT
HETATM    1  C4  UNL     1      24.206   0.706  52.256  1.00  0.00     0.243 C 
HETATM    2  N2  UNL     1      23.435   1.446  51.284  1.00  0.00    -0.262 NA
HETATM    3  C5  UNL     1      22.253   1.032  51.324  1.00  0.00     0.046 C 
HETATM    4  C6  UNL     1      20.923   1.137  50.779  1.00  0.00     0.098 C 
HETATM    5  C12 UNL     1      22.096   0.131  52.500  1.00  0.00    -0.001 A 
HETATM    6  C13 UNL     1      21.104  -0.592  53.222  1.00  0.00     0.014 A 
HETATM    7  C14 UNL     1      21.315  -1.259  54.384  1.00  0.00     0.001 A 
HETATM    8  C15 UNL     1      22.537  -1.259  54.962  1.00  0.00     0.001 A 
HETATM    9  C16 UNL     1      23.602  -0.588  54.367  1.00  0.00     0.012 A 
HETATM   10  C17 UNL     1      23.344   0.062  53.178  1.00  0.00    -0.002 A 
ENDROOT
BRANCH   1  11
HETATM   11  N1  UNL     1      25.526   1.071  52.415  1.00  0.00    -0.360 N 
HETATM   12  C3  UNL     1      26.403   0.111  51.798  1.00  0.00     0.153 C 
HETATM   13  C2  UNL     1      27.318  -0.426  52.902  1.00  0.00     0.017 C 
HETATM   14  C1  UNL     1      27.852   0.516  53.657  1.00  0.00     0.033 C 
HETATM   15 CL1  UNL     1      28.989   0.121  54.938  1.00  0.00    -0.085 Cl
HETATM   16  C19 UNL     1      27.272   1.818  53.791  1.00  0.00     0.040 C 
HETATM   17  C18 UNL     1      26.143   2.095  53.211  1.00  0.00     0.090 C 
ENDBRANCH   1  11
BRANCH   4  18
HETATM   18  C7  UNL     1      20.064   2.286  50.819  1.00  0.00    -0.050 A 
HETATM   19  C8  UNL     1      18.864   1.902  51.483  1.00  0.00     0.026 A 
HETATM   20  C9  UNL     1      17.873   2.807  51.605  1.00  0.00     0.116 A 
HETATM   21  N3  UNL     1      18.056   4.069  51.127  1.00  0.00    -0.273 NA
HETATM   22  C10 UNL     1      19.224   4.349  50.518  1.00  0.00     0.116 A 
HETATM   23  C11 UNL     1      20.301   3.477  50.306  1.00  0.00     0.026 A 
ENDBRANCH   4  18
TORSDOF 2
ENDMDL
MODEL 8
REMARK VINA RESULT:      -7.9      3.043      5.965
REMARK  2 active torsions:
REMARK  status: ('A' for Active; 'I' for Inactive)
REMARK    1  A    between atoms: N1_5  and  C4_6 
REMARK    2  A    between atoms: C6_9  and  C7_10 
ROOT
HETATM    1  C4  UNL     1      24.837   3.770  50.996  1.00  0.00     0.243 C 
HETATM    2  N2  UNL     1      23.754   4.663  51.337  1.00  0.00    -0.262 NA
HETATM    3  C5  UNL     1      24.079   5.823  50.993  1.00  0.00     0.046 C 
HETATM    4  C6  UNL     1      23.704   7.214  50.948  1.00  0.00     0.098 C 
HETATM    5  C12 UNL     1      25.327   5.755  50.181  1.00  0.00    -0.001 A 
HETATM    6  C13 UNL     1      26.194   6.574  49.405  1.00  0.00     0.014 A 
HETATM    7  C14 UNL     1      27.242   6.126  48.669  1.00  0.00     0.001 A 
HETATM    8  C15 UNL     1      27.524   4.805  48.612  1.00  0.00     0.001 A 
HETATM    9  C16 UNL     1      26.754   3.885  49.321  1.00  0.00     0.012 A 
HETATM   10  C17 UNL     1      25.711   4.390  50.069  1.00  0.00    -0.002 A 
ENDROOT
BRANCH   1  11
HETATM   11  N1  UNL     1      24.637   2.427  51.232  1.00  0.00    -0.360 N 
HETATM   12  C3  UNL     1      23.365   1.997  50.714  1.00  0.00     0.153 C 
HETATM   13  C2  UNL     1      22.572   1.438  51.899  1.00  0.00     0.017 C 
HETATM   14  C1  UNL     1      23.257   0.598  52.651  1.00  0.00     0.033 C 
HETATM   15 CL1  UNL     1      22.513  -0.212  54.021  1.00  0.00    -0.085 Cl
HETATM   16  C19 UNL     1      24.688   0.594  52.695  1.00  0.00     0.040 C 
HETATM   17  C18 UNL     1      25.366   1.479  52.028  1.00  0.00     0.090 C 
ENDBRANCH   1  11
BRANCH   4  18
HETATM   18  C7  UNL     1      22.593   7.783  50.242  1.00  0.00    -0.050 A 
HETATM   19  C8  UNL     1      23.116   8.677  49.264  1.00  0.00     0.026 A 
HETATM   20  C9  UNL     1      22.255   9.375  48.497  1.00  0.00     0.116 A 
HETATM   21  N3  UNL     1      20.916   9.183  48.649  1.00  0.00    -0.273 NA
HETATM   22  C10 UNL     1      20.506   8.315  49.594  1.00  0.00     0.116 A 
HETATM   23  C11 UNL     1      21.311   7.569  50.467  1.00  0.00     0.026 A 
ENDBRANCH   4  18
TORSDOF 2
ENDMDL
MODEL 9
REMARK VINA RESULT:      -7.8      3.429      7.211
REMARK  2 active torsions:
REMARK  status: ('A' for Active; 'I' for Inactive)
REMARK    1  A    between atoms: N1_5  and  C4_6 
REMARK    2  A    between atoms: C6_9  and  C7_10 
ROOT
HETATM    1  C4  UNL     1      23.982   4.547  50.091  1.00  0.00     0.243 C 
HETATM    2  N2  UNL     1      24.538   3.970  51.292  1.00  0.00    -0.262 NA
HETATM    3  C5  UNL     1      23.961   2.878  51.507  1.00  0.00     0.046 C 
HETATM    4  C6  UNL     1      23.837   1.732  52.372  1.00  0.00     0.098 C 
HETATM    5  C12 UNL     1      23.124   2.534  50.323  1.00  0.00    -0.001 A 
HETATM    6  C13 UNL     1      22.313   1.487  49.801  1.00  0.00     0.014 A 
HETATM    7  C14 UNL     1      21.760   1.469  48.563  1.00  0.00     0.001 A 
HETATM    8  C15 UNL     1      21.974   2.490  47.703  1.00  0.00     0.001 A 
HETATM    9  C16 UNL     1      22.753   3.582  48.079  1.00  0.00     0.012 A 
HETATM   10  C17 UNL     1      23.280   3.562  49.353  1.00  0.00    -0.002 A 
ENDROOT
BRANCH   1  11
HETATM   11  N1  UNL     1      24.543   5.725  49.646  1.00  0.00    -0.360 N 
HETATM   12  C3  UNL     1      23.551   6.763  49.548  1.00  0.00     0.153 C 
HETATM   13  C2  UNL     1      23.540   7.226  48.089  1.00  0.00     0.017 C 
HETATM   14  C1  UNL     1      24.740   7.459  47.593  1.00  0.00     0.033 C 
HETATM   15 CL1  UNL     1      24.948   8.067  45.957  1.00  0.00    -0.085 Cl
HETATM   16  C19 UNL     1      25.926   6.870  48.137  1.00  0.00     0.040 C 
HETATM   17  C18 UNL     1      25.845   6.021  49.117  1.00  0.00     0.090 C 
ENDBRANCH   1  11
BRANCH   4  18
HETATM   18  C7  UNL     1      24.849   0.758  52.660  1.00  0.00    -0.050 A 
HETATM   19  C8  UNL     1      24.431   0.030  53.810  1.00  0.00     0.026 A 
HETATM   20  C9  UNL     1      25.245  -0.921  54.307  1.00  0.00     0.116 A 
HETATM   21  N3  UNL     1      26.424  -1.188  53.681  1.00  0.00    -0.273 NA
HETATM   22  C10 UNL     1      26.740  -0.457  52.595  1.00  0.00     0.116 A 
HETATM   23  C11 UNL     1      25.988   0.576  52.019  1.00  0.00     0.026 A 
ENDBRANCH   4  18
TORSDOF 2
ENDMDL
