MODEL 1
REMARK VINA RESULT:      -9.0      0.000      0.000
REMARK  2 active torsions:
REMARK  status: ('A' for Active; 'I' for Inactive)
REMARK    1  A    between atoms: N1_2  and  C2_3 
REMARK    2  A    between atoms: C23_29  and  O3_30 
ROOT
HETATM    1  C2  UNL     1      24.226   2.661  51.061  1.00  0.00     0.202 C 
HETATM    2  C3  UNL     1      24.283   4.105  51.263  1.00  0.00     0.065 C 
HETATM    3  C4  UNL     1      23.138   4.994  51.615  1.00  0.00     0.123 C 
HETATM    4  N2  UNL     1      22.126   5.122  50.693  1.00  0.00    -0.376 N 
HETATM    5  C5  UNL     1      20.871   4.587  50.624  1.00  0.00     0.226 C 
HETATM    6  C6  UNL     1      20.246   5.314  49.413  1.00  0.00     0.090 C 
HETATM    7  C7  UNL     1      20.731   6.709  49.724  1.00  0.00    -0.050 A 
HETATM    8  C8  UNL     1      20.696   8.011  49.962  1.00  0.00     0.005 A 
HETATM    9  C9  UNL     1      22.064   8.460  50.198  1.00  0.00    -0.001 A 
HETATM   10  C10 UNL     1      22.895   7.407  50.088  1.00  0.00     0.002 A 
HETATM   11  C11 UNL     1      22.140   6.197  49.761  1.00  0.00     0.134 A 
HETATM   12  O1  UNL     1      20.771   3.220  50.245  1.00  0.00    -0.340 OA
HETATM   13  C12 UNL     1      21.698   2.568  50.930  1.00  0.00     0.255 C 
HETATM   14  N3  UNL     1      21.368   1.214  51.416  1.00  0.00    -0.361 N 
HETATM   15  C13 UNL     1      22.115   0.493  52.432  1.00  0.00     0.037 A 
HETATM   16  C14 UNL     1      21.383  -0.492  53.083  1.00  0.00     0.030 A 
HETATM   17  C15 UNL     1      22.044  -1.181  54.075  1.00  0.00     0.002 A 
HETATM   18  C16 UNL     1      23.355  -0.892  54.386  1.00  0.00     0.001 A 
HETATM   19  C17 UNL     1      24.074   0.089  53.733  1.00  0.00     0.010 A 
HETATM   20  C18 UNL     1      23.454   0.828  52.707  1.00  0.00    -0.018 A 
HETATM   21  C19 UNL     1      24.490   1.750  52.228  1.00  0.00     0.052 C 
HETATM   22  C20 UNL     1      24.945   2.522  53.457  1.00  0.00     0.140 C 
HETATM   23  N4  UNL     1      26.389   2.483  53.443  1.00  0.00    -0.360 N 
HETATM   24  C21 UNL     1      26.775   1.268  52.822  1.00  0.00     0.218 C 
HETATM   25  O2  UNL     1      27.851   0.624  52.907  1.00  0.00    -0.274 OA
HETATM   26  C22 UNL     1      25.679   0.799  51.986  1.00  0.00     0.121 C 
HETATM   27  C23 UNL     1      23.043   2.329  50.253  1.00  0.00     0.209 C 
HETATM   28  H17 UNL     1      20.561   0.665  51.064  1.00  0.00     0.162 HD
HETATM   29  H24 UNL     1      27.068   3.198  53.812  1.00  0.00     0.162 HD
ENDROOT
BRANCH   1  30
HETATM   30  N1  UNL     1      25.432   2.435  50.274  1.00  0.00     0.092 N 
HETATM   31  C1  UNL     1      26.231   3.436  49.759  1.00  0.00     0.307 C 
HETATM   32  H4  UNL     1      26.057   1.924  50.946  1.00  0.00     0.316 HD
ENDBRANCH   1  30
BRANCH  27  33
HETATM   33  O3  UNL     1      22.879   3.008  49.073  1.00  0.00    -0.384 OA
HETATM   34  C24 UNL     1      22.668   2.108  47.996  1.00  0.00     0.202 C 
ENDBRANCH  27  33
TORSDOF 2
ENDMDL
MODEL 2
REMARK VINA RESULT:      -8.4      2.624      3.906
REMARK  2 active torsions:
REMARK  status: ('A' for Active; 'I' for Inactive)
REMARK    1  A    between atoms: N1_2  and  C2_3 
REMARK    2  A    between atoms: C23_29  and  O3_30 
ROOT
HETATM    1  C2  UNL     1      21.108   1.122  51.873  1.00  0.00     0.202 C 
HETATM    2  C3  UNL     1      21.457   2.458  52.345  1.00  0.00     0.065 C 
HETATM    3  C4  UNL     1      20.673   3.707  52.123  1.00  0.00     0.123 C 
HETATM    4  N2  UNL     1      20.543   4.155  50.829  1.00  0.00    -0.376 N 
HETATM    5  C5  UNL     1      19.512   4.099  49.936  1.00  0.00     0.226 C 
HETATM    6  C6  UNL     1      20.021   4.958  48.758  1.00  0.00     0.090 C 
HETATM    7  C7  UNL     1      20.600   6.100  49.557  1.00  0.00    -0.050 A 
HETATM    8  C8  UNL     1      20.818   7.336  49.976  1.00  0.00     0.005 A 
HETATM    9  C9  UNL     1      21.803   7.277  51.051  1.00  0.00    -0.001 A 
HETATM   10  C10 UNL     1      22.161   5.995  51.247  1.00  0.00     0.002 A 
HETATM   11  C11 UNL     1      21.450   5.122  50.313  1.00  0.00     0.134 A 
HETATM   12  O1  UNL     1      19.263   2.844  49.314  1.00  0.00    -0.340 OA
HETATM   13  C12 UNL     1      19.320   1.929  50.270  1.00  0.00     0.255 C 
HETATM   14  N3  UNL     1      18.374   0.799  50.196  1.00  0.00    -0.361 N 
HETATM   15  C13 UNL     1      18.076  -0.105  51.294  1.00  0.00     0.037 A 
HETATM   16  C14 UNL     1      16.846  -0.742  51.185  1.00  0.00     0.030 A 
HETATM   17  C15 UNL     1      16.510  -1.587  52.220  1.00  0.00     0.002 A 
HETATM   18  C16 UNL     1      17.358  -1.772  53.289  1.00  0.00     0.001 A 
HETATM   19  C17 UNL     1      18.579  -1.134  53.387  1.00  0.00     0.010 A 
HETATM   20  C18 UNL     1      18.981  -0.258  52.360  1.00  0.00    -0.018 A 
HETATM   21  C19 UNL     1      20.307   0.218  52.769  1.00  0.00     0.052 C 
HETATM   22  C20 UNL     1      20.112   0.820  54.153  1.00  0.00     0.140 C 
HETATM   23  N4  UNL     1      21.161   0.270  54.980  1.00  0.00    -0.360 N 
HETATM   24  C21 UNL     1      21.461  -1.023  54.482  1.00  0.00     0.218 C 
HETATM   25  O2  UNL     1      21.998  -2.005  55.055  1.00  0.00    -0.274 OA
HETATM   26  C22 UNL     1      21.036  -1.101  53.092  1.00  0.00     0.121 C 
HETATM   27  C23 UNL     1      20.644   1.205  50.479  1.00  0.00     0.209 C 
HETATM   28  H17 UNL     1      17.839   0.560  49.339  1.00  0.00     0.162 HD
HETATM   29  H24 UNL     1      21.641   0.710  55.808  1.00  0.00     0.162 HD
ENDROOT
BRANCH   1  30
HETATM   30  N1  UNL     1      22.403   0.455  51.917  1.00  0.00     0.092 N 
HETATM   31  C1  UNL     1      23.601   1.087  52.189  1.00  0.00     0.307 C 
HETATM   32  H4  UNL     1      22.287  -0.229  52.705  1.00  0.00     0.316 HD
ENDBRANCH   1  30
BRANCH  27  33
HETATM   33  O3  UNL     1      21.456   1.856  49.586  1.00  0.00    -0.384 OA
HETATM   34  C24 UNL     1      21.749   1.029  48.471  1.00  0.00     0.202 C 
ENDBRANCH  27  33
TORSDOF 2
ENDMDL
MODEL 3
REMARK VINA RESULT:      -8.3      7.395     11.138
REMARK  2 active torsions:
REMARK  status: ('A' for Active; 'I' for Inactive)
REMARK    1  A    between atoms: N1_2  and  C2_3 
REMARK    2  A    between atoms: C23_29  and  O3_30 
ROOT
HETATM    1  C2  UNL     1      30.513   8.048  47.001  1.00  0.00     0.202 C 
HETATM    2  C3  UNL     1      31.391   7.558  45.943  1.00  0.00     0.065 C 
HETATM    3  C4  UNL     1      31.662   6.130  45.609  1.00  0.00     0.123 C 
HETATM    4  N2  UNL     1      32.310   5.368  46.553  1.00  0.00    -0.376 N 
HETATM    5  C5  UNL     1      31.866   4.423  47.433  1.00  0.00     0.226 C 
HETATM    6  C6  UNL     1      33.174   3.872  48.044  1.00  0.00     0.090 C 
HETATM    7  C7  UNL     1      33.980   3.767  46.772  1.00  0.00    -0.050 A 
HETATM    8  C8  UNL     1      34.724   3.234  45.816  1.00  0.00     0.005 A 
HETATM    9  C9  UNL     1      34.998   4.276  44.832  1.00  0.00    -0.001 A 
HETATM   10  C10 UNL     1      34.414   5.421  45.230  1.00  0.00     0.002 A 
HETATM   11  C11 UNL     1      33.724   5.220  46.505  1.00  0.00     0.134 A 
HETATM   12  O1  UNL     1      31.164   4.885  48.579  1.00  0.00    -0.340 OA
HETATM   13  C12 UNL     1      30.307   5.802  48.155  1.00  0.00     0.255 C 
HETATM   14  N3  UNL     1      28.983   5.857  48.803  1.00  0.00    -0.361 N 
HETATM   15  C13 UNL     1      27.828   6.560  48.271  1.00  0.00     0.037 A 
HETATM   16  C14 UNL     1      26.610   6.085  48.738  1.00  0.00     0.030 A 
HETATM   17  C15 UNL     1      25.486   6.704  48.236  1.00  0.00     0.002 A 
HETATM   18  C16 UNL     1      25.590   7.731  47.324  1.00  0.00     0.001 A 
HETATM   19  C17 UNL     1      26.807   8.196  46.866  1.00  0.00     0.010 A 
HETATM   20  C18 UNL     1      27.993   7.605  47.343  1.00  0.00    -0.018 A 
HETATM   21  C19 UNL     1      29.074   8.341  46.678  1.00  0.00     0.052 C 
HETATM   22  C20 UNL     1      28.792   8.217  45.188  1.00  0.00     0.140 C 
HETATM   23  N4  UNL     1      28.908   9.552  44.647  1.00  0.00    -0.360 N 
HETATM   24  C21 UNL     1      28.528  10.459  45.667  1.00  0.00     0.218 C 
HETATM   25  O2  UNL     1      28.113  11.643  45.582  1.00  0.00    -0.274 OA
HETATM   26  C22 UNL     1      28.686   9.806  46.959  1.00  0.00     0.121 C 
HETATM   27  C23 UNL     1      30.741   7.261  48.223  1.00  0.00     0.209 C 
HETATM   28  H17 UNL     1      28.771   5.388  49.704  1.00  0.00     0.162 HD
HETATM   29  H24 UNL     1      29.213   9.843  43.681  1.00  0.00     0.162 HD
ENDROOT
BRANCH   1  30
HETATM   30  N1  UNL     1      31.021   9.401  47.191  1.00  0.00     0.092 N 
HETATM   31  C1  UNL     1      32.177   9.892  46.618  1.00  0.00     0.307 C 
HETATM   32  H4  UNL     1      30.257   9.996  46.783  1.00  0.00     0.316 HD
ENDBRANCH   1  30
BRANCH  27  33
HETATM   33  O3  UNL     1      32.035   7.142  48.660  1.00  0.00    -0.384 OA
HETATM   34  C24 UNL     1      32.211   7.796  49.908  1.00  0.00     0.202 C 
ENDBRANCH  27  33
TORSDOF 2
ENDMDL
MODEL 4
REMARK VINA RESULT:      -8.0      2.227      4.339
REMARK  2 active torsions:
REMARK  status: ('A' for Active; 'I' for Inactive)
REMARK    1  A    between atoms: N1_2  and  C2_3 
REMARK    2  A    between atoms: C23_29  and  O3_30 
ROOT
HETATM    1  C2  UNL     1      22.474   1.738  52.138  1.00  0.00     0.202 C 
HETATM    2  C3  UNL     1      21.759   1.504  50.888  1.00  0.00     0.065 C 
HETATM    3  C4  UNL     1      22.293   1.717  49.511  1.00  0.00     0.123 C 
HETATM    4  N2  UNL     1      22.600   3.005  49.140  1.00  0.00    -0.376 N 
HETATM    5  C5  UNL     1      23.787   3.669  49.023  1.00  0.00     0.226 C 
HETATM    6  C6  UNL     1      23.374   5.017  48.390  1.00  0.00     0.090 C 
HETATM    7  C7  UNL     1      22.410   4.484  47.358  1.00  0.00    -0.050 A 
HETATM    8  C8  UNL     1      21.853   4.265  46.178  1.00  0.00     0.005 A 
HETATM    9  C9  UNL     1      20.695   3.400  46.383  1.00  0.00    -0.001 A 
HETATM   10  C10 UNL     1      20.580   3.127  47.696  1.00  0.00     0.002 A 
HETATM   11  C11 UNL     1      21.642   3.797  48.448  1.00  0.00     0.134 A 
HETATM   12  O1  UNL     1      24.421   4.078  50.228  1.00  0.00    -0.340 OA
HETATM   13  C12 UNL     1      24.354   3.050  51.060  1.00  0.00     0.255 C 
HETATM   14  N3  UNL     1      25.509   2.806  51.945  1.00  0.00    -0.361 N 
HETATM   15  C13 UNL     1      25.748   1.573  52.675  1.00  0.00     0.037 A 
HETATM   16  C14 UNL     1      27.078   1.366  53.019  1.00  0.00     0.030 A 
HETATM   17  C15 UNL     1      27.355   0.194  53.686  1.00  0.00     0.002 A 
HETATM   18  C16 UNL     1      26.355  -0.706  53.984  1.00  0.00     0.001 A 
HETATM   19  C17 UNL     1      25.036  -0.490  53.638  1.00  0.00     0.010 A 
HETATM   20  C18 UNL     1      24.688   0.691  52.955  1.00  0.00    -0.018 A 
HETATM   21  C19 UNL     1      23.236   0.604  52.767  1.00  0.00     0.052 C 
HETATM   22  C20 UNL     1      22.999  -0.710  52.038  1.00  0.00     0.140 C 
HETATM   23  N4  UNL     1      21.937  -1.379  52.754  1.00  0.00    -0.360 N 
HETATM   24  C21 UNL     1      22.029  -0.988  54.113  1.00  0.00     0.218 C 
HETATM   25  O2  UNL     1      21.600  -1.559  55.148  1.00  0.00    -0.274 OA
HETATM   26  C22 UNL     1      22.748   0.275  54.192  1.00  0.00     0.121 C 
HETATM   27  C23 UNL     1      23.198   3.016  52.052  1.00  0.00     0.209 C 
HETATM   28  H17 UNL     1      26.253   3.510  52.115  1.00  0.00     0.162 HD
HETATM   29  H24 UNL     1      21.208  -2.040  52.378  1.00  0.00     0.162 HD
ENDROOT
BRANCH   1  30
HETATM   30  N1  UNL     1      21.369   1.867  53.080  1.00  0.00     0.092 N 
HETATM   31  C1  UNL     1      20.039   1.962  52.720  1.00  0.00     0.307 C 
HETATM   32  H4  UNL     1      21.425   0.973  53.629  1.00  0.00     0.316 HD
ENDBRANCH   1  30
BRANCH  27  33
HETATM   33  O3  UNL     1      22.478   4.120  51.671  1.00  0.00    -0.384 OA
HETATM   34  C24 UNL     1      22.565   5.145  52.649  1.00  0.00     0.202 C 
ENDBRANCH  27  33
TORSDOF 2
ENDMDL
MODEL 5
REMARK VINA RESULT:      -8.0      8.193     11.514
REMARK  2 active torsions:
REMARK  status: ('A' for Active; 'I' for Inactive)
REMARK    1  A    between atoms: N1_2  and  C2_3 
REMARK    2  A    between atoms: C23_29  and  O3_30 
ROOT
HETATM    1  C2  UNL     1      31.261   8.125  47.182  1.00  0.00     0.202 C 
HETATM    2  C3  UNL     1      31.728   8.435  45.835  1.00  0.00     0.065 C 
HETATM    3  C4  UNL     1      31.857   7.475  44.701  1.00  0.00     0.123 C 
HETATM    4  N2  UNL     1      32.776   6.460  44.828  1.00  0.00    -0.376 N 
HETATM    5  C5  UNL     1      32.643   5.131  45.113  1.00  0.00     0.226 C 
HETATM    6  C6  UNL     1      34.075   4.585  44.912  1.00  0.00     0.090 C 
HETATM    7  C7  UNL     1      34.406   5.314  43.632  1.00  0.00    -0.050 A 
HETATM    8  C8  UNL     1      34.780   5.511  42.378  1.00  0.00     0.005 A 
HETATM    9  C9  UNL     1      34.720   6.945  42.113  1.00  0.00    -0.001 A 
HETATM   10  C10 UNL     1      34.314   7.579  43.229  1.00  0.00     0.002 A 
HETATM   11  C11 UNL     1      34.090   6.615  44.307  1.00  0.00     0.134 A 
HETATM   12  O1  UNL     1      32.371   4.783  46.464  1.00  0.00    -0.340 OA
HETATM   13  C12 UNL     1      31.431   5.615  46.889  1.00  0.00     0.255 C 
HETATM   14  N3  UNL     1      30.401   5.080  47.800  1.00  0.00    -0.361 N 
HETATM   15  C13 UNL     1      29.143   5.739  48.105  1.00  0.00     0.037 A 
HETATM   16  C14 UNL     1      28.147   4.879  48.551  1.00  0.00     0.030 A 
HETATM   17  C15 UNL     1      26.927   5.456  48.823  1.00  0.00     0.002 A 
HETATM   18  C16 UNL     1      26.729   6.809  48.655  1.00  0.00     0.001 A 
HETATM   19  C17 UNL     1      27.726   7.655  48.212  1.00  0.00     0.010 A 
HETATM   20  C18 UNL     1      28.997   7.126  47.918  1.00  0.00    -0.018 A 
HETATM   21  C19 UNL     1      29.800   8.281  47.502  1.00  0.00     0.052 C 
HETATM   22  C20 UNL     1      29.033   8.915  46.351  1.00  0.00     0.140 C 
HETATM   23  N4  UNL     1      28.974  10.329  46.641  1.00  0.00    -0.360 N 
HETATM   24  C21 UNL     1      28.968  10.475  48.051  1.00  0.00     0.218 C 
HETATM   25  O2  UNL     1      28.561  11.428  48.762  1.00  0.00    -0.274 OA
HETATM   26  C22 UNL     1      29.543   9.279  48.649  1.00  0.00     0.121 C 
HETATM   27  C23 UNL     1      31.878   6.867  47.633  1.00  0.00     0.209 C 
HETATM   28  H17 UNL     1      30.500   4.177  48.301  1.00  0.00     0.162 HD
HETATM   29  H24 UNL     1      28.940  11.135  45.964  1.00  0.00     0.162 HD
ENDROOT
BRANCH   1  30
HETATM   30  N1  UNL     1      31.817   9.239  47.941  1.00  0.00     0.092 N 
HETATM   31  C1  UNL     1      32.652  10.205  47.417  1.00  0.00     0.307 C 
HETATM   32  H4  UNL     1      30.960   9.770  48.237  1.00  0.00     0.316 HD
ENDBRANCH   1  30
BRANCH  27  33
HETATM   33  O3  UNL     1      33.242   6.769  47.539  1.00  0.00    -0.384 OA
HETATM   34  C24 UNL     1      33.817   6.476  48.804  1.00  0.00     0.202 C 
ENDBRANCH  27  33
TORSDOF 2
ENDMDL
MODEL 6
REMARK VINA RESULT:      -7.8      7.837     10.695
REMARK  2 active torsions:
REMARK  status: ('A' for Active; 'I' for Inactive)
REMARK    1  A    between atoms: N1_2  and  C2_3 
REMARK    2  A    between atoms: C23_29  and  O3_30 
ROOT
HETATM    1  C2  UNL     1      31.627   7.289  47.342  1.00  0.00     0.202 C 
HETATM    2  C3  UNL     1      30.423   6.891  48.063  1.00  0.00     0.065 C 
HETATM    3  C4  UNL     1      29.079   6.639  47.467  1.00  0.00     0.123 C 
HETATM    4  N2  UNL     1      28.429   7.704  46.889  1.00  0.00    -0.376 N 
HETATM    5  C5  UNL     1      28.241   8.069  45.587  1.00  0.00     0.226 C 
HETATM    6  C6  UNL     1      27.271   9.267  45.695  1.00  0.00     0.090 C 
HETATM    7  C7  UNL     1      26.331   8.691  46.727  1.00  0.00    -0.050 A 
HETATM    8  C8  UNL     1      25.202   8.294  47.292  1.00  0.00     0.005 A 
HETATM    9  C9  UNL     1      25.526   7.756  48.609  1.00  0.00    -0.001 A 
HETATM   10  C10 UNL     1      26.854   7.852  48.807  1.00  0.00     0.002 A 
HETATM   11  C11 UNL     1      27.496   8.468  47.644  1.00  0.00     0.134 A 
HETATM   12  O1  UNL     1      29.353   8.637  44.908  1.00  0.00    -0.340 OA
HETATM   13  C12 UNL     1      30.404   7.888  45.206  1.00  0.00     0.255 C 
HETATM   14  N3  UNL     1      31.403   7.653  44.147  1.00  0.00    -0.361 N 
HETATM   15  C13 UNL     1      32.427   6.623  44.187  1.00  0.00     0.037 A 
HETATM   16  C14 UNL     1      32.908   6.252  42.938  1.00  0.00     0.030 A 
HETATM   17  C15 UNL     1      33.859   5.256  42.927  1.00  0.00     0.002 A 
HETATM   18  C16 UNL     1      34.293   4.676  44.099  1.00  0.00     0.001 A 
HETATM   19  C17 UNL     1      33.808   5.053  45.337  1.00  0.00     0.010 A 
HETATM   20  C18 UNL     1      32.834   6.067  45.414  1.00  0.00    -0.018 A 
HETATM   21  C19 UNL     1      32.568   6.224  46.848  1.00  0.00     0.052 C 
HETATM   22  C20 UNL     1      32.165   4.842  47.339  1.00  0.00     0.140 C 
HETATM   23  N4  UNL     1      32.942   4.599  48.533  1.00  0.00    -0.360 N 
HETATM   24  C21 UNL     1      34.169   5.295  48.391  1.00  0.00     0.218 C 
HETATM   25  O2  UNL     1      35.277   5.101  48.952  1.00  0.00    -0.274 OA
HETATM   26  C22 UNL     1      33.990   6.370  47.425  1.00  0.00     0.121 C 
HETATM   27  C23 UNL     1      31.286   8.335  46.365  1.00  0.00     0.209 C 
HETATM   28  H17 UNL     1      31.452   8.216  43.276  1.00  0.00     0.162 HD
HETATM   29  H24 UNL     1      32.686   4.021  49.375  1.00  0.00     0.162 HD
ENDROOT
BRANCH   1  30
HETATM   30  N1  UNL     1      32.426   7.867  48.416  1.00  0.00     0.092 N 
HETATM   31  C1  UNL     1      31.959   8.119  49.691  1.00  0.00     0.307 C 
HETATM   32  H4  UNL     1      33.184   7.153  48.553  1.00  0.00     0.316 HD
ENDBRANCH   1  30
BRANCH  27  33
HETATM   33  O3  UNL     1      30.596   9.425  46.830  1.00  0.00    -0.384 OA
HETATM   34  C24 UNL     1      31.355  10.614  46.663  1.00  0.00     0.202 C 
ENDBRANCH  27  33
TORSDOF 2
ENDMDL
MODEL 7
REMARK VINA RESULT:      -7.5      2.581      4.895
REMARK  2 active torsions:
REMARK  status: ('A' for Active; 'I' for Inactive)
REMARK    1  A    between atoms: N1_2  and  C2_3 
REMARK    2  A    between atoms: C23_29  and  O3_30 
ROOT
HETATM    1  C2  UNL     1      21.468   4.048  49.764  1.00  0.00     0.202 C 
HETATM    2  C3  UNL     1      21.537   4.206  48.314  1.00  0.00     0.065 C 
HETATM    3  C4  UNL     1      22.737   4.609  47.525  1.00  0.00     0.123 C 
HETATM    4  N2  UNL     1      23.235   5.874  47.726  1.00  0.00    -0.376 N 
HETATM    5  C5  UNL     1      24.317   6.336  48.420  1.00  0.00     0.226 C 
HETATM    6  C6  UNL     1      24.353   7.837  48.053  1.00  0.00     0.090 C 
HETATM    7  C7  UNL     1      24.085   7.705  46.574  1.00  0.00    -0.050 A 
HETATM    8  C8  UNL     1      24.249   7.835  45.267  1.00  0.00     0.005 A 
HETATM    9  C9  UNL     1      23.138   7.157  44.607  1.00  0.00    -0.001 A 
HETATM   10  C10 UNL     1      22.323   6.638  45.544  1.00  0.00     0.002 A 
HETATM   11  C11 UNL     1      22.830   6.945  46.882  1.00  0.00     0.134 A 
HETATM   12  O1  UNL     1      24.210   6.370  49.837  1.00  0.00    -0.340 OA
HETATM   13  C12 UNL     1      23.672   5.217  50.205  1.00  0.00     0.255 C 
HETATM   14  N3  UNL     1      24.157   4.600  51.454  1.00  0.00    -0.361 N 
HETATM   15  C13 UNL     1      23.924   3.219  51.841  1.00  0.00     0.037 A 
HETATM   16  C14 UNL     1      24.850   2.722  52.750  1.00  0.00     0.030 A 
HETATM   17  C15 UNL     1      24.685   1.406  53.121  1.00  0.00     0.002 A 
HETATM   18  C16 UNL     1      23.656   0.647  52.608  1.00  0.00     0.001 A 
HETATM   19  C17 UNL     1      22.741   1.152  51.705  1.00  0.00     0.010 A 
HETATM   20  C18 UNL     1      22.855   2.492  51.287  1.00  0.00    -0.018 A 
HETATM   21  C19 UNL     1      21.733   2.695  50.364  1.00  0.00     0.052 C 
HETATM   22  C20 UNL     1      21.888   1.623  49.295  1.00  0.00     0.140 C 
HETATM   23  N4  UNL     1      20.587   1.009  49.152  1.00  0.00    -0.360 N 
HETATM   24  C21 UNL     1      19.941   1.084  50.412  1.00  0.00     0.218 C 
HETATM   25  O2  UNL     1      19.003   0.391  50.880  1.00  0.00    -0.274 OA
HETATM   26  C22 UNL     1      20.542   2.162  51.185  1.00  0.00     0.121 C 
HETATM   27  C23 UNL     1      22.162   5.174  50.409  1.00  0.00     0.209 C 
HETATM   28  H17 UNL     1      24.711   5.115  52.165  1.00  0.00     0.162 HD
HETATM   29  H24 UNL     1      20.158   0.576  48.294  1.00  0.00     0.162 HD
ENDROOT
BRANCH   1  30
HETATM   30  N1  UNL     1      20.034   4.163  49.997  1.00  0.00     0.092 N 
HETATM   31  C1  UNL     1      19.113   4.543  49.041  1.00  0.00     0.307 C 
HETATM   32  H4  UNL     1      19.759   3.180  50.245  1.00  0.00     0.316 HD
ENDBRANCH   1  30
BRANCH  27  33
HETATM   33  O3  UNL     1      21.797   6.439  50.024  1.00  0.00    -0.384 OA
HETATM   34  C24 UNL     1      21.391   7.211  51.143  1.00  0.00     0.202 C 
ENDBRANCH  27  33
TORSDOF 2
ENDMDL
MODEL 8
REMARK VINA RESULT:      -7.4      2.871      6.424
REMARK  2 active torsions:
REMARK  status: ('A' for Active; 'I' for Inactive)
REMARK    1  A    between atoms: N1_2  and  C2_3 
REMARK    2  A    between atoms: C23_29  and  O3_30 
ROOT
HETATM    1  C2  UNL     1      21.545   3.753  50.444  1.00  0.00     0.202 C 
HETATM    2  C3  UNL     1      22.217   2.800  51.321  1.00  0.00     0.065 C 
HETATM    3  C4  UNL     1      21.980   1.328  51.373  1.00  0.00     0.123 C 
HETATM    4  N2  UNL     1      20.742   0.897  51.787  1.00  0.00    -0.376 N 
HETATM    5  C5  UNL     1      19.663   0.410  51.106  1.00  0.00     0.226 C 
HETATM    6  C6  UNL     1      18.706  -0.033  52.235  1.00  0.00     0.090 C 
HETATM    7  C7  UNL     1      19.722  -0.704  53.128  1.00  0.00    -0.050 A 
HETATM    8  C8  UNL     1      20.305  -1.642  53.856  1.00  0.00     0.005 A 
HETATM    9  C9  UNL     1      21.540  -1.085  54.398  1.00  0.00    -0.001 A 
HETATM   10  C10 UNL     1      21.664   0.189  53.984  1.00  0.00     0.002 A 
HETATM   11  C11 UNL     1      20.520   0.565  53.152  1.00  0.00     0.134 A 
HETATM   12  O1  UNL     1      18.874   1.350  50.388  1.00  0.00    -0.340 OA
HETATM   13  C12 UNL     1      19.719   2.143  49.746  1.00  0.00     0.255 C 
HETATM   14  N3  UNL     1      19.340   2.601  48.395  1.00  0.00    -0.361 N 
HETATM   15  C13 UNL     1      20.255   3.195  47.435  1.00  0.00     0.037 A 
HETATM   16  C14 UNL     1      19.839   3.084  46.114  1.00  0.00     0.030 A 
HETATM   17  C15 UNL     1      20.691   3.608  45.167  1.00  0.00     0.002 A 
HETATM   18  C16 UNL     1      21.880   4.200  45.532  1.00  0.00     0.001 A 
HETATM   19  C17 UNL     1      22.283   4.305  46.849  1.00  0.00     0.010 A 
HETATM   20  C18 UNL     1      21.455   3.790  47.865  1.00  0.00    -0.018 A 
HETATM   21  C19 UNL     1      22.165   4.083  49.114  1.00  0.00     0.052 C 
HETATM   22  C20 UNL     1      23.540   3.451  48.958  1.00  0.00     0.140 C 
HETATM   23  N4  UNL     1      24.493   4.463  49.352  1.00  0.00    -0.360 N 
HETATM   24  C21 UNL     1      23.928   5.724  49.039  1.00  0.00     0.218 C 
HETATM   25  O2  UNL     1      24.487   6.833  48.844  1.00  0.00    -0.274 OA
HETATM   26  C22 UNL     1      22.481   5.584  48.959  1.00  0.00     0.121 C 
HETATM   27  C23 UNL     1      20.105   3.456  50.416  1.00  0.00     0.209 C 
HETATM   28  H17 UNL     1      18.374   2.531  48.021  1.00  0.00     0.162 HD
HETATM   29  H24 UNL     1      25.441   4.333  49.793  1.00  0.00     0.162 HD
ENDROOT
BRANCH   1  30
HETATM   30  N1  UNL     1      21.770   5.005  51.157  1.00  0.00     0.092 N 
HETATM   31  C1  UNL     1      22.402   5.108  52.380  1.00  0.00     0.307 C 
HETATM   32  H4  UNL     1      22.392   5.539  50.499  1.00  0.00     0.316 HD
ENDBRANCH   1  30
BRANCH  27  33
HETATM   33  O3  UNL     1      19.463   3.347  51.623  1.00  0.00    -0.384 OA
HETATM   34  C24 UNL     1      18.195   3.983  51.582  1.00  0.00     0.202 C 
ENDBRANCH  27  33
TORSDOF 2
ENDMDL
MODEL 9
REMARK VINA RESULT:      -7.3      3.886      7.518
REMARK  2 active torsions:
REMARK  status: ('A' for Active; 'I' for Inactive)
REMARK    1  A    between atoms: N1_2  and  C2_3 
REMARK    2  A    between atoms: C23_29  and  O3_30 
ROOT
HETATM    1  C2  UNL     1      23.972   7.035  48.812  1.00  0.00     0.202 C 
HETATM    2  C3  UNL     1      24.109   5.732  49.455  1.00  0.00     0.065 C 
HETATM    3  C4  UNL     1      23.899   4.403  48.812  1.00  0.00     0.123 C 
HETATM    4  N2  UNL     1      22.630   4.099  48.379  1.00  0.00    -0.376 N 
HETATM    5  C5  UNL     1      22.061   4.085  47.138  1.00  0.00     0.226 C 
HETATM    6  C6  UNL     1      20.666   3.475  47.399  1.00  0.00     0.090 C 
HETATM    7  C7  UNL     1      21.086   2.362  48.328  1.00  0.00    -0.050 A 
HETATM    8  C8  UNL     1      21.224   1.141  48.818  1.00  0.00     0.005 A 
HETATM    9  C9  UNL     1      21.997   1.238  50.052  1.00  0.00    -0.001 A 
HETATM   10  C10 UNL     1      22.300   2.529  50.278  1.00  0.00     0.002 A 
HETATM   11  C11 UNL     1      21.741   3.374  49.221  1.00  0.00     0.134 A 
HETATM   12  O1  UNL     1      21.741   5.343  46.558  1.00  0.00    -0.340 OA
HETATM   13  C12 UNL     1      22.786   6.132  46.764  1.00  0.00     0.255 C 
HETATM   14  N3  UNL     1      23.150   7.082  45.695  1.00  0.00    -0.361 N 
HETATM   15  C13 UNL     1      24.420   7.782  45.606  1.00  0.00     0.037 A 
HETATM   16  C14 UNL     1      24.745   8.205  44.324  1.00  0.00     0.030 A 
HETATM   17  C15 UNL     1      25.955   8.847  44.188  1.00  0.00     0.002 A 
HETATM   18  C16 UNL     1      26.779   9.046  45.274  1.00  0.00     0.001 A 
HETATM   19  C17 UNL     1      26.446   8.621  46.545  1.00  0.00     0.010 A 
HETATM   20  C18 UNL     1      25.220   7.959  46.750  1.00  0.00    -0.018 A 
HETATM   21  C19 UNL     1      25.183   7.672  48.188  1.00  0.00     0.052 C 
HETATM   22  C20 UNL     1      26.451   6.883  48.477  1.00  0.00     0.140 C 
HETATM   23  N4  UNL     1      27.052   7.502  49.636  1.00  0.00    -0.360 N 
HETATM   24  C21 UNL     1      26.712   8.878  49.608  1.00  0.00     0.218 C 
HETATM   25  O2  UNL     1      27.277   9.860  50.151  1.00  0.00    -0.274 OA
HETATM   26  C22 UNL     1      25.514   9.049  48.798  1.00  0.00     0.121 C 
HETATM   27  C23 UNL     1      22.755   7.043  47.985  1.00  0.00     0.209 C 
HETATM   28  H17 UNL     1      22.515   7.327  44.912  1.00  0.00     0.162 HD
HETATM   29  H24 UNL     1      27.640   7.055  50.387  1.00  0.00     0.162 HD
ENDROOT
BRANCH   1  30
HETATM   30  N1  UNL     1      23.782   7.906  49.966  1.00  0.00     0.092 N 
HETATM   31  C1  UNL     1      23.625   7.462  51.264  1.00  0.00     0.307 C 
HETATM   32  H4  UNL     1      24.674   8.461  49.988  1.00  0.00     0.316 HD
ENDBRANCH   1  30
BRANCH  27  33
HETATM   33  O3  UNL     1      21.585   6.655  48.587  1.00  0.00    -0.384 OA
HETATM   34  C24 UNL     1      20.639   7.713  48.586  1.00  0.00     0.202 C 
ENDBRANCH  27  33
TORSDOF 2
ENDMDL
