MODEL 1
REMARK VINA RESULT:      -7.9      0.000      0.000
REMARK  8 active torsions:
REMARK  status: ('A' for Active; 'I' for Inactive)
REMARK    1  A    between atoms: N1_1  and  S1_2 
REMARK    2  A    between atoms: S1_2  and  C1_5 
REMARK    3  A    between atoms: C8_12  and  C9_13 
REMARK    4  A    between atoms: C9_13  and  N2_14 
REMARK    5  A    between atoms: C12_18  and  C13_19 
REMARK    6  A    between atoms: C13_19  and  C14_20 
REMARK    7  A    between atoms: C14_20  and  C15_21 
REMARK    8  A    between atoms: C15_21  and  O5_23 
ROOT
HETATM    1  C1  UNL     1      27.018   0.914  53.685  1.00  0.00     0.075 A 
HETATM    2  C2  UNL     1      26.661  -0.337  54.145  1.00  0.00     0.027 A 
HETATM    3  C3  UNL     1      25.352  -0.759  54.060  1.00  0.00     0.031 A 
HETATM    4  C4  UNL     1      24.364   0.039  53.523  1.00  0.00     0.039 A 
HETATM    5  C5  UNL     1      24.742   1.278  53.072  1.00  0.00    -0.001 A 
HETATM    6  C6  UNL     1      26.044   1.726  53.144  1.00  0.00     0.039 A 
HETATM    7  C7  UNL     1      23.477   1.859  52.573  1.00  0.00    -0.030 C 
HETATM    8  C8  UNL     1      23.311   3.166  52.293  1.00  0.00     0.002 C 
HETATM    9  C16 UNL     1      22.441   0.797  52.447  1.00  0.00     0.159 C 
HETATM   10  N3  UNL     1      22.982  -0.227  53.357  1.00  0.00    -0.385 N 
HETATM   11  H19 UNL     1      22.418  -0.990  53.780  1.00  0.00     0.160 HD
ENDROOT
BRANCH   8  12
HETATM   12  C9  UNL     1      22.245   4.045  51.802  1.00  0.00     0.153 C 
BRANCH  12  13
HETATM   13  N2  UNL     1      22.687   5.237  51.122  1.00  0.00    -0.358 N 
HETATM   14  C10 UNL     1      21.939   6.466  51.133  1.00  0.00     0.112 A 
HETATM   15  C11 UNL     1      22.612   7.290  50.354  1.00  0.00     0.154 A 
HETATM   16  O3  UNL     1      23.763   6.675  49.829  1.00  0.00    -0.336 OA
HETATM   17  C12 UNL     1      23.919   5.379  50.349  1.00  0.00     0.228 A 
BRANCH  17  18
HETATM   18  C13 UNL     1      24.059   4.316  49.314  1.00  0.00     0.064 C 
BRANCH  18  19
HETATM   19  C14 UNL     1      25.227   3.412  49.448  1.00  0.00     0.114 C 
BRANCH  19  20
HETATM   20  C15 UNL     1      26.551   4.038  49.443  1.00  0.00     0.139 C 
HETATM   21  O4  UNL     1      27.266   4.773  48.690  1.00  0.00    -0.650 OA
BRANCH  20  22
HETATM   22  O5  UNL     1      27.221   3.727  50.638  1.00  0.00    -0.776 OA
HETATM   23  H16 UNL     1      27.532   4.458  51.266  1.00  0.00     0.167 HD
ENDBRANCH  20  22
ENDBRANCH  19  20
ENDBRANCH  18  19
ENDBRANCH  17  18
ENDBRANCH  12  13
ENDBRANCH   8  12
BRANCH   1  24
HETATM   24  S1  UNL     1      28.695   1.398  53.817  1.00  0.00     0.239 S 
HETATM   25  O1  UNL     1      29.079   1.567  55.246  1.00  0.00    -0.206 OA
HETATM   26  O2  UNL     1      29.610   0.347  53.228  1.00  0.00    -0.206 OA
BRANCH  24  27
HETATM   27  N1  UNL     1      28.967   2.898  52.981  1.00  0.00    -0.225 NA
HETATM   28  H1  UNL     1      28.196   3.535  53.316  1.00  0.00     0.136 HD
HETATM   29  H2  UNL     1      28.834   2.749  51.950  1.00  0.00     0.136 HD
ENDBRANCH  24  27
ENDBRANCH   1  24
TORSDOF 8
ENDMDL
MODEL 2
REMARK VINA RESULT:      -7.8      4.147      7.204
REMARK  8 active torsions:
REMARK  status: ('A' for Active; 'I' for Inactive)
REMARK    1  A    between atoms: N1_1  and  S1_2 
REMARK    2  A    between atoms: S1_2  and  C1_5 
REMARK    3  A    between atoms: C8_12  and  C9_13 
REMARK    4  A    between atoms: C9_13  and  N2_14 
REMARK    5  A    between atoms: C12_18  and  C13_19 
REMARK    6  A    between atoms: C13_19  and  C14_20 
REMARK    7  A    between atoms: C14_20  and  C15_21 
REMARK    8  A    between atoms: C15_21  and  O5_23 
ROOT
HETATM    1  C1  UNL     1      19.612   0.836  51.197  1.00  0.00     0.075 A 
HETATM    2  C2  UNL     1      18.594   0.097  51.764  1.00  0.00     0.027 A 
HETATM    3  C3  UNL     1      18.840  -0.686  52.871  1.00  0.00     0.031 A 
HETATM    4  C4  UNL     1      20.090  -0.762  53.445  1.00  0.00     0.039 A 
HETATM    5  C5  UNL     1      21.087  -0.020  52.865  1.00  0.00    -0.001 A 
HETATM    6  C6  UNL     1      20.871   0.773  51.758  1.00  0.00     0.039 A 
HETATM    7  C7  UNL     1      22.268  -0.322  53.702  1.00  0.00    -0.030 C 
HETATM    8  C8  UNL     1      23.535  -0.035  53.344  1.00  0.00     0.002 C 
HETATM    9  C16 UNL     1      21.844  -0.990  54.963  1.00  0.00     0.159 C 
HETATM   10  N3  UNL     1      20.521  -1.506  54.572  1.00  0.00    -0.385 N 
HETATM   11  H19 UNL     1      20.027  -2.278  55.060  1.00  0.00     0.160 HD
ENDROOT
BRANCH   8  12
HETATM   12  C9  UNL     1      24.881  -0.185  53.903  1.00  0.00     0.153 C 
BRANCH  12  13
HETATM   13  N2  UNL     1      25.909   0.600  53.264  1.00  0.00    -0.358 N 
HETATM   14  C10 UNL     1      25.751   1.181  51.958  1.00  0.00     0.112 A 
HETATM   15  C11 UNL     1      26.909   1.749  51.686  1.00  0.00     0.154 A 
HETATM   16  O3  UNL     1      27.825   1.576  52.740  1.00  0.00    -0.336 OA
HETATM   17  C12 UNL     1      27.221   0.917  53.825  1.00  0.00     0.228 A 
BRANCH  17  18
HETATM   18  C13 UNL     1      27.948  -0.301  54.283  1.00  0.00     0.064 C 
BRANCH  18  19
HETATM   19  C14 UNL     1      28.622  -1.102  53.233  1.00  0.00     0.114 C 
BRANCH  19  20
HETATM   20  C15 UNL     1      27.880  -2.245  52.696  1.00  0.00     0.139 C 
HETATM   21  O4  UNL     1      26.814  -2.481  52.043  1.00  0.00    -0.650 OA
BRANCH  20  22
HETATM   22  O5  UNL     1      28.566  -3.434  53.000  1.00  0.00    -0.776 OA
HETATM   23  H16 UNL     1      29.427  -3.674  52.524  1.00  0.00     0.167 HD
ENDBRANCH  20  22
ENDBRANCH  19  20
ENDBRANCH  18  19
ENDBRANCH  17  18
ENDBRANCH  12  13
ENDBRANCH   8  12
BRANCH   1  24
HETATM   24  S1  UNL     1      19.244   1.815  49.794  1.00  0.00     0.239 S 
HETATM   25  O1  UNL     1      19.171   3.255  50.167  1.00  0.00    -0.206 OA
HETATM   26  O2  UNL     1      20.321   1.679  48.740  1.00  0.00    -0.206 OA
BRANCH  24  27
HETATM   27  N1  UNL     1      17.725   1.337  49.095  1.00  0.00    -0.225 NA
HETATM   28  H1  UNL     1      17.985   0.676  48.314  1.00  0.00     0.136 HD
HETATM   29  H2  UNL     1      17.263   2.175  48.665  1.00  0.00     0.136 HD
ENDBRANCH  24  27
ENDBRANCH   1  24
TORSDOF 8
ENDMDL
MODEL 3
REMARK VINA RESULT:      -7.7      1.400      2.146
REMARK  8 active torsions:
REMARK  status: ('A' for Active; 'I' for Inactive)
REMARK    1  A    between atoms: N1_1  and  S1_2 
REMARK    2  A    between atoms: S1_2  and  C1_5 
REMARK    3  A    between atoms: C8_12  and  C9_13 
REMARK    4  A    between atoms: C9_13  and  N2_14 
REMARK    5  A    between atoms: C12_18  and  C13_19 
REMARK    6  A    between atoms: C13_19  and  C14_20 
REMARK    7  A    between atoms: C14_20  and  C15_21 
REMARK    8  A    between atoms: C15_21  and  O5_23 
ROOT
HETATM    1  C1  UNL     1      27.044   0.919  53.635  1.00  0.00     0.075 A 
HETATM    2  C2  UNL     1      26.704  -0.368  53.998  1.00  0.00     0.027 A 
HETATM    3  C3  UNL     1      25.400  -0.799  53.883  1.00  0.00     0.031 A 
HETATM    4  C4  UNL     1      24.401   0.024  53.411  1.00  0.00     0.039 A 
HETATM    5  C5  UNL     1      24.762   1.299  53.056  1.00  0.00    -0.001 A 
HETATM    6  C6  UNL     1      26.057   1.758  53.159  1.00  0.00     0.039 A 
HETATM    7  C7  UNL     1      23.487   1.901  52.605  1.00  0.00    -0.030 C 
HETATM    8  C8  UNL     1      23.304   3.223  52.426  1.00  0.00     0.002 C 
HETATM    9  C16 UNL     1      22.465   0.838  52.400  1.00  0.00     0.159 C 
HETATM   10  N3  UNL     1      23.022  -0.246  53.227  1.00  0.00    -0.385 N 
HETATM   11  H19 UNL     1      22.469  -1.046  53.591  1.00  0.00     0.160 HD
ENDROOT
BRANCH   8  12
HETATM   12  C9  UNL     1      22.225   4.123  52.007  1.00  0.00     0.153 C 
BRANCH  12  13
HETATM   13  N2  UNL     1      22.288   4.569  50.637  1.00  0.00    -0.358 N 
HETATM   14  C10 UNL     1      23.022   3.867  49.618  1.00  0.00     0.112 A 
HETATM   15  C11 UNL     1      22.908   4.608  48.533  1.00  0.00     0.154 A 
HETATM   16  O3  UNL     1      22.139   5.761  48.777  1.00  0.00    -0.336 OA
HETATM   17  C12 UNL     1      21.637   5.758  50.090  1.00  0.00     0.228 A 
BRANCH  17  18
HETATM   18  C13 UNL     1      21.959   6.986  50.872  1.00  0.00     0.064 C 
BRANCH  18  19
HETATM   19  C14 UNL     1      23.201   7.703  50.494  1.00  0.00     0.114 C 
BRANCH  19  20
HETATM   20  C15 UNL     1      24.467   7.091  50.905  1.00  0.00     0.139 C 
HETATM   21  O4  UNL     1      25.554   6.684  50.383  1.00  0.00    -0.650 OA
BRANCH  20  22
HETATM   22  O5  UNL     1      24.467   6.903  52.297  1.00  0.00    -0.776 OA
HETATM   23  H16 UNL     1      25.325   6.697  52.794  1.00  0.00     0.167 HD
ENDBRANCH  20  22
ENDBRANCH  19  20
ENDBRANCH  18  19
ENDBRANCH  17  18
ENDBRANCH  12  13
ENDBRANCH   8  12
BRANCH   1  24
HETATM   24  S1  UNL     1      28.715   1.413  53.800  1.00  0.00     0.239 S 
HETATM   25  O1  UNL     1      29.072   1.570  55.238  1.00  0.00    -0.206 OA
HETATM   26  O2  UNL     1      29.647   0.375  53.217  1.00  0.00    -0.206 OA
BRANCH  24  27
HETATM   27  N1  UNL     1      28.990   2.923  52.984  1.00  0.00    -0.225 NA
HETATM   28  H1  UNL     1      29.135   3.625  53.759  1.00  0.00     0.136 HD
HETATM   29  H2  UNL     1      28.123   3.198  52.461  1.00  0.00     0.136 HD
ENDBRANCH  24  27
ENDBRANCH   1  24
TORSDOF 8
ENDMDL
MODEL 4
REMARK VINA RESULT:      -7.6      3.546      5.503
REMARK  8 active torsions:
REMARK  status: ('A' for Active; 'I' for Inactive)
REMARK    1  A    between atoms: N1_1  and  S1_2 
REMARK    2  A    between atoms: S1_2  and  C1_5 
REMARK    3  A    between atoms: C8_12  and  C9_13 
REMARK    4  A    between atoms: C9_13  and  N2_14 
REMARK    5  A    between atoms: C12_18  and  C13_19 
REMARK    6  A    between atoms: C13_19  and  C14_20 
REMARK    7  A    between atoms: C14_20  and  C15_21 
REMARK    8  A    between atoms: C15_21  and  O5_23 
ROOT
HETATM    1  C1  UNL     1      26.274   1.126  53.082  1.00  0.00     0.075 A 
HETATM    2  C2  UNL     1      27.086   1.689  52.120  1.00  0.00     0.027 A 
HETATM    3  C3  UNL     1      26.564   2.571  51.200  1.00  0.00     0.031 A 
HETATM    4  C4  UNL     1      25.230   2.919  51.204  1.00  0.00     0.039 A 
HETATM    5  C5  UNL     1      24.441   2.348  52.169  1.00  0.00    -0.001 A 
HETATM    6  C6  UNL     1      24.936   1.463  53.102  1.00  0.00     0.039 A 
HETATM    7  C7  UNL     1      23.103   2.918  51.896  1.00  0.00    -0.030 C 
HETATM    8  C8  UNL     1      21.960   2.432  52.417  1.00  0.00     0.002 C 
HETATM    9  C16 UNL     1      23.221   4.076  50.968  1.00  0.00     0.159 C 
HETATM   10  N3  UNL     1      24.527   3.800  50.345  1.00  0.00    -0.385 N 
HETATM   11  H19 UNL     1      24.838   4.200  49.438  1.00  0.00     0.160 HD
ENDROOT
BRANCH   8  12
HETATM   12  C9  UNL     1      20.527   2.737  52.364  1.00  0.00     0.153 C 
BRANCH  12  13
HETATM   13  N2  UNL     1      19.664   1.613  52.092  1.00  0.00    -0.358 N 
HETATM   14  C10 UNL     1      18.379   1.750  51.459  1.00  0.00     0.112 A 
HETATM   15  C11 UNL     1      17.864   0.536  51.451  1.00  0.00     0.154 A 
HETATM   16  O3  UNL     1      18.736  -0.396  52.043  1.00  0.00    -0.336 OA
HETATM   17  C12 UNL     1      19.950   0.215  52.403  1.00  0.00     0.228 A 
BRANCH  17  18
HETATM   18  C13 UNL     1      20.333   0.022  53.831  1.00  0.00     0.064 C 
BRANCH  18  19
HETATM   19  C14 UNL     1      20.832  -1.323  54.206  1.00  0.00     0.114 C 
BRANCH  19  20
HETATM   20  C15 UNL     1      22.214  -1.405  54.684  1.00  0.00     0.139 C 
HETATM   21  O4  UNL     1      22.850  -1.696  55.747  1.00  0.00    -0.650 OA
BRANCH  20  22
HETATM   22  O5  UNL     1      23.092  -1.055  53.644  1.00  0.00    -0.776 OA
HETATM   23  H16 UNL     1      23.866  -1.658  53.391  1.00  0.00     0.167 HD
ENDBRANCH  20  22
ENDBRANCH  19  20
ENDBRANCH  18  19
ENDBRANCH  17  18
ENDBRANCH  12  13
ENDBRANCH   8  12
BRANCH   1  24
HETATM   24  S1  UNL     1      26.991   0.012  54.226  1.00  0.00     0.239 S 
HETATM   25  O1  UNL     1      27.695  -1.089  53.511  1.00  0.00    -0.206 OA
HETATM   26  O2  UNL     1      28.015   0.710  55.093  1.00  0.00    -0.206 OA
BRANCH  24  27
HETATM   27  N1  UNL     1      25.772  -0.676  55.257  1.00  0.00    -0.225 NA
HETATM   28  H1  UNL     1      25.051   0.087  55.366  1.00  0.00     0.136 HD
HETATM   29  H2  UNL     1      26.185  -0.864  56.204  1.00  0.00     0.136 HD
ENDBRANCH  24  27
ENDBRANCH   1  24
TORSDOF 8
ENDMDL
MODEL 5
REMARK VINA RESULT:      -7.5      2.325      2.925
REMARK  8 active torsions:
REMARK  status: ('A' for Active; 'I' for Inactive)
REMARK    1  A    between atoms: N1_1  and  S1_2 
REMARK    2  A    between atoms: S1_2  and  C1_5 
REMARK    3  A    between atoms: C8_12  and  C9_13 
REMARK    4  A    between atoms: C9_13  and  N2_14 
REMARK    5  A    between atoms: C12_18  and  C13_19 
REMARK    6  A    between atoms: C13_19  and  C14_20 
REMARK    7  A    between atoms: C14_20  and  C15_21 
REMARK    8  A    between atoms: C15_21  and  O5_23 
ROOT
HETATM    1  C1  UNL     1      24.681   0.180  53.504  1.00  0.00     0.075 A 
HETATM    2  C2  UNL     1      23.524  -0.548  53.690  1.00  0.00     0.027 A 
HETATM    3  C3  UNL     1      22.419  -0.307  52.904  1.00  0.00     0.031 A 
HETATM    4  C4  UNL     1      22.424   0.657  51.918  1.00  0.00     0.039 A 
HETATM    5  C5  UNL     1      23.584   1.369  51.751  1.00  0.00    -0.001 A 
HETATM    6  C6  UNL     1      24.705   1.149  52.522  1.00  0.00     0.039 A 
HETATM    7  C7  UNL     1      23.258   2.296  50.645  1.00  0.00    -0.030 C 
HETATM    8  C8  UNL     1      24.002   3.372  50.324  1.00  0.00     0.002 C 
HETATM    9  C16 UNL     1      22.003   1.866  49.971  1.00  0.00     0.159 C 
HETATM   10  N3  UNL     1      21.392   1.038  51.025  1.00  0.00    -0.385 N 
HETATM   11  H19 UNL     1      20.382   0.799  51.069  1.00  0.00     0.160 HD
ENDROOT
BRANCH   8  12
HETATM   12  C9  UNL     1      23.977   4.454  49.336  1.00  0.00     0.153 C 
BRANCH  12  13
HETATM   13  N2  UNL     1      24.380   5.750  49.824  1.00  0.00    -0.358 N 
HETATM   14  C10 UNL     1      23.444   6.727  50.312  1.00  0.00     0.112 A 
HETATM   15  C11 UNL     1      24.167   7.793  50.593  1.00  0.00     0.154 A 
HETATM   16  O3  UNL     1      25.530   7.576  50.318  1.00  0.00    -0.336 OA
HETATM   17  C12 UNL     1      25.750   6.252  49.899  1.00  0.00     0.228 A 
BRANCH  17  18
HETATM   18  C13 UNL     1      26.466   6.133  48.596  1.00  0.00     0.064 C 
BRANCH  18  19
HETATM   19  C14 UNL     1      27.639   5.227  48.567  1.00  0.00     0.114 C 
BRANCH  19  20
HETATM   20  C15 UNL     1      28.936   5.836  48.262  1.00  0.00     0.139 C 
HETATM   21  O4  UNL     1      29.456   6.611  47.397  1.00  0.00    -0.650 OA
BRANCH  20  22
HETATM   22  O5  UNL     1      29.880   5.435  49.222  1.00  0.00    -0.776 OA
HETATM   23  H16 UNL     1      29.713   5.586  50.210  1.00  0.00     0.167 HD
ENDBRANCH  20  22
ENDBRANCH  19  20
ENDBRANCH  18  19
ENDBRANCH  17  18
ENDBRANCH  12  13
ENDBRANCH   8  12
BRANCH   1  24
HETATM   24  S1  UNL     1      26.055  -0.169  54.530  1.00  0.00     0.239 S 
HETATM   25  O1  UNL     1      27.020  -1.058  53.823  1.00  0.00    -0.206 OA
HETATM   26  O2  UNL     1      26.797   1.098  54.894  1.00  0.00    -0.206 OA
BRANCH  24  27
HETATM   27  N1  UNL     1      25.542  -0.949  55.996  1.00  0.00    -0.225 NA
HETATM   28  H1  UNL     1      25.538  -0.182  56.721  1.00  0.00     0.136 HD
HETATM   29  H2  UNL     1      26.263  -1.657  56.283  1.00  0.00     0.136 HD
ENDBRANCH  24  27
ENDBRANCH   1  24
TORSDOF 8
ENDMDL
MODEL 6
REMARK VINA RESULT:      -7.5      3.033      3.976
REMARK  8 active torsions:
REMARK  status: ('A' for Active; 'I' for Inactive)
REMARK    1  A    between atoms: N1_1  and  S1_2 
REMARK    2  A    between atoms: S1_2  and  C1_5 
REMARK    3  A    between atoms: C8_12  and  C9_13 
REMARK    4  A    between atoms: C9_13  and  N2_14 
REMARK    5  A    between atoms: C12_18  and  C13_19 
REMARK    6  A    between atoms: C13_19  and  C14_20 
REMARK    7  A    between atoms: C14_20  and  C15_21 
REMARK    8  A    between atoms: C15_21  and  O5_23 
ROOT
HETATM    1  C1  UNL     1      25.100  -0.694  54.047  1.00  0.00     0.075 A 
HETATM    2  C2  UNL     1      24.685  -1.136  55.286  1.00  0.00     0.027 A 
HETATM    3  C3  UNL     1      23.341  -1.221  55.578  1.00  0.00     0.031 A 
HETATM    4  C4  UNL     1      22.374  -0.872  54.660  1.00  0.00     0.039 A 
HETATM    5  C5  UNL     1      22.809  -0.435  53.435  1.00  0.00    -0.001 A 
HETATM    6  C6  UNL     1      24.146  -0.340  53.115  1.00  0.00     0.039 A 
HETATM    7  C7  UNL     1      21.551  -0.149  52.710  1.00  0.00    -0.030 C 
HETATM    8  C8  UNL     1      21.489   0.563  51.568  1.00  0.00     0.002 C 
HETATM    9  C16 UNL     1      20.397  -0.748  53.433  1.00  0.00     0.159 C 
HETATM   10  N3  UNL     1      20.963  -0.895  54.785  1.00  0.00    -0.385 N 
HETATM   11  H19 UNL     1      20.395  -0.995  55.649  1.00  0.00     0.160 HD
ENDROOT
BRANCH   8  12
HETATM   12  C9  UNL     1      20.462   1.016  50.626  1.00  0.00     0.153 C 
BRANCH  12  13
HETATM   13  N2  UNL     1      19.512   1.966  51.152  1.00  0.00    -0.358 N 
HETATM   14  C10 UNL     1      18.099   1.883  50.894  1.00  0.00     0.112 A 
HETATM   15  C11 UNL     1      17.578   2.949  51.469  1.00  0.00     0.154 A 
HETATM   16  O3  UNL     1      18.567   3.732  52.093  1.00  0.00    -0.336 OA
HETATM   17  C12 UNL     1      19.826   3.114  52.000  1.00  0.00     0.228 A 
BRANCH  17  18
HETATM   18  C13 UNL     1      20.890   3.976  51.410  1.00  0.00     0.064 C 
BRANCH  18  19
HETATM   19  C14 UNL     1      21.991   4.380  52.317  1.00  0.00     0.114 C 
BRANCH  19  20
HETATM   20  C15 UNL     1      23.301   3.770  52.077  1.00  0.00     0.139 C 
HETATM   21  O4  UNL     1      23.892   3.074  51.191  1.00  0.00    -0.650 OA
BRANCH  20  22
HETATM   22  O5  UNL     1      24.153   4.047  53.160  1.00  0.00    -0.776 OA
HETATM   23  H16 UNL     1      24.376   3.332  53.842  1.00  0.00     0.167 HD
ENDBRANCH  20  22
ENDBRANCH  19  20
ENDBRANCH  18  19
ENDBRANCH  17  18
ENDBRANCH  12  13
ENDBRANCH   8  12
BRANCH   1  24
HETATM   24  S1  UNL     1      26.818  -0.607  53.729  1.00  0.00     0.239 S 
HETATM   25  O1  UNL     1      27.116   0.488  52.764  1.00  0.00    -0.206 OA
HETATM   26  O2  UNL     1      27.590  -0.310  54.996  1.00  0.00    -0.206 OA
BRANCH  24  27
HETATM   27  N1  UNL     1      27.396  -2.109  53.071  1.00  0.00    -0.225 NA
HETATM   28  H1  UNL     1      28.439  -2.088  53.230  1.00  0.00     0.136 HD
HETATM   29  H2  UNL     1      27.230  -2.120  52.035  1.00  0.00     0.136 HD
ENDBRANCH  24  27
ENDBRANCH   1  24
TORSDOF 8
ENDMDL
MODEL 7
REMARK VINA RESULT:      -7.4      3.421      6.679
REMARK  8 active torsions:
REMARK  status: ('A' for Active; 'I' for Inactive)
REMARK    1  A    between atoms: N1_1  and  S1_2 
REMARK    2  A    between atoms: S1_2  and  C1_5 
REMARK    3  A    between atoms: C8_12  and  C9_13 
REMARK    4  A    between atoms: C9_13  and  N2_14 
REMARK    5  A    between atoms: C12_18  and  C13_19 
REMARK    6  A    between atoms: C13_19  and  C14_20 
REMARK    7  A    between atoms: C14_20  and  C15_21 
REMARK    8  A    between atoms: C15_21  and  O5_23 
ROOT
HETATM    1  C1  UNL     1      29.741   5.969  47.903  1.00  0.00     0.075 A 
HETATM    2  C2  UNL     1      29.486   7.205  47.348  1.00  0.00     0.027 A 
HETATM    3  C3  UNL     1      28.207   7.717  47.354  1.00  0.00     0.031 A 
HETATM    4  C4  UNL     1      27.150   7.026  47.904  1.00  0.00     0.039 A 
HETATM    5  C5  UNL     1      27.427   5.799  48.451  1.00  0.00    -0.001 A 
HETATM    6  C6  UNL     1      28.696   5.262  48.459  1.00  0.00     0.039 A 
HETATM    7  C7  UNL     1      26.108   5.338  48.939  1.00  0.00    -0.030 C 
HETATM    8  C8  UNL     1      25.844   4.067  49.299  1.00  0.00     0.002 C 
HETATM    9  C16 UNL     1      25.144   6.472  48.954  1.00  0.00     0.159 C 
HETATM   10  N3  UNL     1      25.784   7.393  47.999  1.00  0.00    -0.385 N 
HETATM   11  H19 UNL     1      25.288   8.160  47.505  1.00  0.00     0.160 HD
ENDROOT
BRANCH   8  12
HETATM   12  C9  UNL     1      24.704   3.297  49.805  1.00  0.00     0.153 C 
BRANCH  12  13
HETATM   13  N2  UNL     1      24.431   3.447  51.214  1.00  0.00    -0.358 N 
HETATM   14  C10 UNL     1      23.697   4.560  51.754  1.00  0.00     0.112 A 
HETATM   15  C11 UNL     1      23.717   4.390  53.061  1.00  0.00     0.154 A 
HETATM   16  O3  UNL     1      24.424   3.226  53.416  1.00  0.00    -0.336 OA
HETATM   17  C12 UNL     1      24.840   2.525  52.271  1.00  0.00     0.228 A 
BRANCH  17  18
HETATM   18  C13 UNL     1      26.301   2.231  52.229  1.00  0.00     0.064 C 
BRANCH  18  19
HETATM   19  C14 UNL     1      26.962   1.979  53.533  1.00  0.00     0.114 C 
BRANCH  19  20
HETATM   20  C15 UNL     1      28.422   1.859  53.520  1.00  0.00     0.139 C 
HETATM   21  O4  UNL     1      29.321   1.012  53.823  1.00  0.00    -0.650 OA
BRANCH  20  22
HETATM   22  O5  UNL     1      28.985   3.045  53.019  1.00  0.00    -0.776 OA
HETATM   23  H16 UNL     1      29.643   3.023  52.249  1.00  0.00     0.167 HD
ENDBRANCH  20  22
ENDBRANCH  19  20
ENDBRANCH  18  19
ENDBRANCH  17  18
ENDBRANCH  12  13
ENDBRANCH   8  12
BRANCH   1  24
HETATM   24  S1  UNL     1      31.385   5.368  47.868  1.00  0.00     0.239 S 
HETATM   25  O1  UNL     1      31.447   4.060  47.157  1.00  0.00    -0.206 OA
HETATM   26  O2  UNL     1      32.297   6.323  47.131  1.00  0.00    -0.206 OA
BRANCH  24  27
HETATM   27  N1  UNL     1      31.994   5.159  49.483  1.00  0.00    -0.225 NA
HETATM   28  H1  UNL     1      31.601   4.233  49.801  1.00  0.00     0.136 HD
HETATM   29  H2  UNL     1      31.596   5.906  50.103  1.00  0.00     0.136 HD
ENDBRANCH  24  27
ENDBRANCH   1  24
TORSDOF 8
ENDMDL
MODEL 8
REMARK VINA RESULT:      -7.4      2.848      3.402
REMARK  8 active torsions:
REMARK  status: ('A' for Active; 'I' for Inactive)
REMARK    1  A    between atoms: N1_1  and  S1_2 
REMARK    2  A    between atoms: S1_2  and  C1_5 
REMARK    3  A    between atoms: C8_12  and  C9_13 
REMARK    4  A    between atoms: C9_13  and  N2_14 
REMARK    5  A    between atoms: C12_18  and  C13_19 
REMARK    6  A    between atoms: C13_19  and  C14_20 
REMARK    7  A    between atoms: C14_20  and  C15_21 
REMARK    8  A    between atoms: C15_21  and  O5_23 
ROOT
HETATM    1  C1  UNL     1      24.844   0.311  53.401  1.00  0.00     0.075 A 
HETATM    2  C2  UNL     1      23.653  -0.382  53.482  1.00  0.00     0.027 A 
HETATM    3  C3  UNL     1      22.608  -0.064  52.642  1.00  0.00     0.031 A 
HETATM    4  C4  UNL     1      22.708   0.941  51.705  1.00  0.00     0.039 A 
HETATM    5  C5  UNL     1      23.900   1.616  51.643  1.00  0.00    -0.001 A 
HETATM    6  C6  UNL     1      24.963   1.320  52.469  1.00  0.00     0.039 A 
HETATM    7  C7  UNL     1      23.676   2.603  50.563  1.00  0.00    -0.030 C 
HETATM    8  C8  UNL     1      24.476   3.664  50.340  1.00  0.00     0.002 C 
HETATM    9  C16 UNL     1      22.451   2.251  49.795  1.00  0.00     0.159 C 
HETATM   10  N3  UNL     1      21.747   1.400  50.770  1.00  0.00    -0.385 N 
HETATM   11  H19 UNL     1      20.729   1.198  50.741  1.00  0.00     0.160 HD
ENDROOT
BRANCH   8  12
HETATM   12  C9  UNL     1      24.549   4.789  49.403  1.00  0.00     0.153 C 
BRANCH  12  13
HETATM   13  N2  UNL     1      24.117   6.062  49.927  1.00  0.00    -0.358 N 
HETATM   14  C10 UNL     1      22.763   6.536  49.814  1.00  0.00     0.112 A 
HETATM   15  C11 UNL     1      22.774   7.747  50.334  1.00  0.00     0.154 A 
HETATM   16  O3  UNL     1      24.058   8.102  50.785  1.00  0.00    -0.336 OA
HETATM   17  C12 UNL     1      24.955   7.030  50.631  1.00  0.00     0.228 A 
BRANCH  17  18
HETATM   18  C13 UNL     1      26.189   7.370  49.866  1.00  0.00     0.064 C 
BRANCH  18  19
HETATM   19  C14 UNL     1      26.305   8.768  49.386  1.00  0.00     0.114 C 
BRANCH  19  20
HETATM   20  C15 UNL     1      27.476   9.525  49.835  1.00  0.00     0.139 C 
HETATM   21  O4  UNL     1      28.416  10.227  49.343  1.00  0.00    -0.650 OA
BRANCH  20  22
HETATM   22  O5  UNL     1      27.580   9.442  51.234  1.00  0.00    -0.776 OA
HETATM   23  H16 UNL     1      27.139  10.132  51.830  1.00  0.00     0.167 HD
ENDBRANCH  20  22
ENDBRANCH  19  20
ENDBRANCH  18  19
ENDBRANCH  17  18
ENDBRANCH  12  13
ENDBRANCH   8  12
BRANCH   1  24
HETATM   24  S1  UNL     1      26.139  -0.136  54.491  1.00  0.00     0.239 S 
HETATM   25  O1  UNL     1      26.832   1.080  55.002  1.00  0.00    -0.206 OA
HETATM   26  O2  UNL     1      25.604  -0.885  55.691  1.00  0.00    -0.206 OA
BRANCH  24  27
HETATM   27  N1  UNL     1      27.299  -1.146  53.682  1.00  0.00    -0.225 NA
HETATM   28  H1  UNL     1      26.734  -1.693  52.977  1.00  0.00     0.136 HD
HETATM   29  H2  UNL     1      27.702  -1.830  54.368  1.00  0.00     0.136 HD
ENDBRANCH  24  27
ENDBRANCH   1  24
TORSDOF 8
ENDMDL
MODEL 9
REMARK VINA RESULT:      -7.3      2.031      3.183
REMARK  8 active torsions:
REMARK  status: ('A' for Active; 'I' for Inactive)
REMARK    1  A    between atoms: N1_1  and  S1_2 
REMARK    2  A    between atoms: S1_2  and  C1_5 
REMARK    3  A    between atoms: C8_12  and  C9_13 
REMARK    4  A    between atoms: C9_13  and  N2_14 
REMARK    5  A    between atoms: C12_18  and  C13_19 
REMARK    6  A    between atoms: C13_19  and  C14_20 
REMARK    7  A    between atoms: C14_20  and  C15_21 
REMARK    8  A    between atoms: C15_21  and  O5_23 
ROOT
HETATM    1  C1  UNL     1      27.041   1.345  53.046  1.00  0.00     0.075 A 
HETATM    2  C2  UNL     1      25.926   0.591  53.348  1.00  0.00     0.027 A 
HETATM    3  C3  UNL     1      24.755   0.773  52.645  1.00  0.00     0.031 A 
HETATM    4  C4  UNL     1      24.653   1.701  51.631  1.00  0.00     0.039 A 
HETATM    5  C5  UNL     1      25.774   2.439  51.348  1.00  0.00    -0.001 A 
HETATM    6  C6  UNL     1      26.958   2.278  52.034  1.00  0.00     0.039 A 
HETATM    7  C7  UNL     1      25.333   3.316  50.241  1.00  0.00    -0.030 C 
HETATM    8  C8  UNL     1      26.016   4.401  49.827  1.00  0.00     0.002 C 
HETATM    9  C16 UNL     1      24.043   2.827  49.684  1.00  0.00     0.159 C 
HETATM   10  N3  UNL     1      23.542   2.020  50.810  1.00  0.00    -0.385 N 
HETATM   11  H19 UNL     1      22.547   1.755  50.942  1.00  0.00     0.160 HD
ENDROOT
BRANCH   8  12
HETATM   12  C9  UNL     1      25.880   5.446  48.808  1.00  0.00     0.153 C 
BRANCH  12  13
HETATM   13  N2  UNL     1      25.368   6.709  49.279  1.00  0.00    -0.358 N 
HETATM   14  C10 UNL     1      26.163   7.643  50.032  1.00  0.00     0.112 A 
HETATM   15  C11 UNL     1      25.342   8.627  50.344  1.00  0.00     0.154 A 
HETATM   16  O3  UNL     1      24.048   8.396  49.840  1.00  0.00    -0.336 OA
HETATM   17  C12 UNL     1      24.014   7.219  49.072  1.00  0.00     0.228 A 
BRANCH  17  18
HETATM   18  C13 UNL     1      22.972   6.241  49.496  1.00  0.00     0.064 C 
BRANCH  18  19
HETATM   19  C14 UNL     1      22.405   6.427  50.854  1.00  0.00     0.114 C 
BRANCH  19  20
HETATM   20  C15 UNL     1      22.838   5.481  51.886  1.00  0.00     0.139 C 
HETATM   21  O4  UNL     1      22.456   4.388  52.412  1.00  0.00    -0.650 OA
BRANCH  20  22
HETATM   22  O5  UNL     1      24.042   5.929  52.456  1.00  0.00    -0.776 OA
HETATM   23  H16 UNL     1      24.728   5.272  52.807  1.00  0.00     0.167 HD
ENDBRANCH  20  22
ENDBRANCH  19  20
ENDBRANCH  18  19
ENDBRANCH  17  18
ENDBRANCH  12  13
ENDBRANCH   8  12
BRANCH   1  24
HETATM   24  S1  UNL     1      28.502   1.071  53.970  1.00  0.00     0.239 S 
HETATM   25  O1  UNL     1      28.172   0.550  55.326  1.00  0.00    -0.206 OA
HETATM   26  O2  UNL     1      29.385   0.043  53.298  1.00  0.00    -0.206 OA
BRANCH  24  27
HETATM   27  N1  UNL     1      29.405   2.547  54.140  1.00  0.00    -0.225 NA
HETATM   28  H1  UNL     1      29.544   2.658  55.181  1.00  0.00     0.136 HD
HETATM   29  H2  UNL     1      28.820   3.352  53.807  1.00  0.00     0.136 HD
ENDBRANCH  24  27
ENDBRANCH   1  24
TORSDOF 8
ENDMDL
