MODEL 1
REMARK VINA RESULT:      -7.4      0.000      0.000
REMARK  6 active torsions:
REMARK  status: ('A' for Active; 'I' for Inactive)
REMARK    1  A    between atoms: O1_2  and  C2_3 
REMARK    2  A    between atoms: C2_3  and  O2_4 
REMARK    3  A    between atoms: O2_4  and  C3_5 
REMARK    4  A    between atoms: C6_8  and  N1_9 
REMARK    5  A    between atoms: N1_9  and  C7_10 
REMARK    6  A    between atoms: C16_24  and  O5_25 
ROOT
HETATM    1  C3  UNL     1      19.824   0.441  51.920  1.00  0.00     0.105 A 
HETATM    2  C4  UNL     1      21.200   0.659  52.070  1.00  0.00     0.057 A 
HETATM    3  C5  UNL     1      21.735  -0.051  53.054  1.00  0.00     0.041 A 
HETATM    4  C6  UNL     1      23.019  -0.049  53.491  1.00  0.00     0.138 A 
HETATM    5  N2  UNL     1      23.432  -0.729  54.472  1.00  0.00    -0.224 NA
HETATM    6  C13 UNL     1      22.945  -1.565  55.333  1.00  0.00     0.235 A 
HETATM    7  N3  UNL     1      21.632  -1.589  54.892  1.00  0.00    -0.241 NA
HETATM    8  C14 UNL     1      21.134  -0.899  53.876  1.00  0.00     0.075 A 
HETATM    9  C15 UNL     1      19.781  -1.250  53.891  1.00  0.00     0.072 A 
HETATM   10  C16 UNL     1      19.144  -0.471  52.786  1.00  0.00     0.103 A 
ENDROOT
BRANCH   4  11
HETATM   11  N1  UNL     1      23.983   0.608  52.695  1.00  0.00    -0.361 N 
HETATM   12  H7  UNL     1      24.991   0.404  52.707  1.00  0.00     0.162 HD
BRANCH  11  13
HETATM   13  C7  UNL     1      24.681   1.601  51.670  1.00  0.00     0.138 A 
HETATM   14  C8  UNL     1      24.947   2.730  52.671  1.00  0.00     0.043 C 
HETATM   15  S1  UNL     1      26.698   0.733  53.576  1.00  0.00    -0.141 SA
HETATM   16  O3  UNL     1      25.659   1.181  52.595  1.00  0.00     0.000 OA
HETATM   17  C10 UNL     1      27.317   0.470  54.182  1.00  0.00     0.004 A 
HETATM   18  C12 UNL     1      26.686   0.738  53.565  1.00  0.00     0.246 A 
HETATM   19  C9  UNL     1      26.649   1.840  51.473  1.00  0.00     0.000 C 
HETATM   20  C11 UNL     1      28.192   0.079  55.016  1.00  0.00     0.212 A 
HETATM   21  O4  UNL     1      28.014  -0.963  53.754  1.00  0.00    -0.375 OA
ENDBRANCH  11  13
ENDBRANCH   4  11
BRANCH   1  22
HETATM   22  O2  UNL     1      19.290   1.196  50.884  1.00  0.00    -0.323 OA
BRANCH  22  23
HETATM   23  C2  UNL     1      19.306   2.593  50.869  1.00  0.00     0.344 C 
BRANCH  23  24
HETATM   24  O1  UNL     1      18.557   3.044  51.940  1.00  0.00    -0.371 OA
HETATM   25  C1  UNL     1      17.278   3.414  51.657  1.00  0.00     0.204 C 
ENDBRANCH  23  24
ENDBRANCH  22  23
ENDBRANCH   1  22
BRANCH  10  26
HETATM   26  O5  UNL     1      17.818  -0.350  52.250  1.00  0.00    -0.353 OA
HETATM   27  C17 UNL     1      16.722  -1.014  52.862  1.00  0.00     0.210 C 
ENDBRANCH  10  26
TORSDOF 6
ENDMDL
MODEL 2
REMARK VINA RESULT:      -7.3      2.434      6.592
REMARK  6 active torsions:
REMARK  status: ('A' for Active; 'I' for Inactive)
REMARK    1  A    between atoms: O1_2  and  C2_3 
REMARK    2  A    between atoms: C2_3  and  O2_4 
REMARK    3  A    between atoms: O2_4  and  C3_5 
REMARK    4  A    between atoms: C6_8  and  N1_9 
REMARK    5  A    between atoms: N1_9  and  C7_10 
REMARK    6  A    between atoms: C16_24  and  O5_25 
ROOT
HETATM    1  C3  UNL     1      26.679   1.444  52.286  1.00  0.00     0.105 A 
HETATM    2  C4  UNL     1      25.337   1.070  52.132  1.00  0.00     0.057 A 
HETATM    3  C5  UNL     1      24.881   0.342  53.142  1.00  0.00     0.041 A 
HETATM    4  C6  UNL     1      23.652  -0.212  53.293  1.00  0.00     0.138 A 
HETATM    5  N2  UNL     1      23.318  -0.934  54.274  1.00  0.00    -0.224 NA
HETATM    6  C13 UNL     1      23.858  -1.386  55.361  1.00  0.00     0.235 A 
HETATM    7  N3  UNL     1      25.115  -0.816  55.230  1.00  0.00    -0.241 NA
HETATM    8  C14 UNL     1      25.530  -0.055  54.227  1.00  0.00     0.075 A 
HETATM    9  C15 UNL     1      26.860   0.210  54.564  1.00  0.00     0.072 A 
HETATM   10  C16 UNL     1      27.408   1.037  53.446  1.00  0.00     0.103 A 
ENDROOT
BRANCH   4  11
HETATM   11  N1  UNL     1      22.637   0.186  52.395  1.00  0.00    -0.361 N 
HETATM   12  H7  UNL     1      22.473   1.154  52.087  1.00  0.00     0.162 HD
BRANCH  11  13
HETATM   13  C7  UNL     1      21.385   0.168  51.417  1.00  0.00     0.138 A 
HETATM   14  C8  UNL     1      20.367   0.716  52.423  1.00  0.00     0.043 C 
HETATM   15  S1  UNL     1      22.016   2.946  51.999  1.00  0.00    -0.141 SA
HETATM   16  O3  UNL     1      21.691   1.515  51.699  1.00  0.00     0.000 OA
HETATM   17  C10 UNL     1      22.210   3.808  52.196  1.00  0.00     0.004 A 
HETATM   18  C12 UNL     1      22.013   2.930  51.995  1.00  0.00     0.246 A 
HETATM   19  C9  UNL     1      20.682   1.752  50.434  1.00  0.00     0.000 C 
HETATM   20  C11 UNL     1      22.498   5.019  52.452  1.00  0.00     0.212 A 
HETATM   21  O4  UNL     1      23.378   4.412  51.199  1.00  0.00    -0.375 OA
ENDBRANCH  11  13
ENDBRANCH   4  11
BRANCH   1  22
HETATM   22  O2  UNL     1      27.130   2.205  51.215  1.00  0.00    -0.323 OA
BRANCH  22  23
HETATM   23  C2  UNL     1      26.291   3.020  50.449  1.00  0.00     0.344 C 
BRANCH  23  24
HETATM   24  O1  UNL     1      27.072   3.706  49.538  1.00  0.00    -0.371 OA
HETATM   25  C1  UNL     1      26.564   4.885  49.088  1.00  0.00     0.204 C 
ENDBRANCH  23  24
ENDBRANCH  22  23
ENDBRANCH   1  22
BRANCH  10  26
HETATM   26  O5  UNL     1      28.673   1.646  53.146  1.00  0.00    -0.353 OA
HETATM   27  C17 UNL     1      29.479   2.195  54.178  1.00  0.00     0.210 C 
ENDBRANCH  10  26
TORSDOF 6
ENDMDL
MODEL 3
REMARK VINA RESULT:      -7.2      2.645      6.561
REMARK  6 active torsions:
REMARK  status: ('A' for Active; 'I' for Inactive)
REMARK    1  A    between atoms: O1_2  and  C2_3 
REMARK    2  A    between atoms: C2_3  and  O2_4 
REMARK    3  A    between atoms: O2_4  and  C3_5 
REMARK    4  A    between atoms: C6_8  and  N1_9 
REMARK    5  A    between atoms: N1_9  and  C7_10 
REMARK    6  A    between atoms: C16_24  and  O5_25 
ROOT
HETATM    1  C3  UNL     1      25.922   1.393  52.189  1.00  0.00     0.105 A 
HETATM    2  C4  UNL     1      24.568   1.748  52.149  1.00  0.00     0.057 A 
HETATM    3  C5  UNL     1      23.803   0.967  52.900  1.00  0.00     0.041 A 
HETATM    4  C6  UNL     1      22.456   1.007  53.056  1.00  0.00     0.138 A 
HETATM    5  N2  UNL     1      21.802   0.188  53.762  1.00  0.00    -0.224 NA
HETATM    6  C13 UNL     1      22.044  -0.842  54.508  1.00  0.00     0.235 A 
HETATM    7  N3  UNL     1      23.423  -0.890  54.370  1.00  0.00    -0.241 NA
HETATM    8  C14 UNL     1      24.166  -0.067  53.645  1.00  0.00     0.075 A 
HETATM    9  C15 UNL     1      25.457  -0.576  53.816  1.00  0.00     0.072 A 
HETATM   10  C16 UNL     1      26.351   0.286  52.985  1.00  0.00     0.103 A 
ENDROOT
BRANCH   4  11
HETATM   11  N1  UNL     1      21.769   2.131  52.548  1.00  0.00    -0.361 N 
HETATM   12  H7  UNL     1      22.079   2.695  51.745  1.00  0.00     0.162 HD
BRANCH  11  13
HETATM   13  C7  UNL     1      20.711   3.301  52.351  1.00  0.00     0.138 A 
HETATM   14  C8  UNL     1      21.714   4.373  51.911  1.00  0.00     0.043 C 
HETATM   15  S1  UNL     1      21.765   2.608  49.731  1.00  0.00    -0.141 SA
HETATM   16  O3  UNL     1      21.223   2.965  51.080  1.00  0.00     0.000 OA
HETATM   17  C10 UNL     1      22.109   2.396  48.920  1.00  0.00     0.004 A 
HETATM   18  C12 UNL     1      21.759   2.611  49.746  1.00  0.00     0.246 A 
HETATM   19  C9  UNL     1      19.941   3.859  50.601  1.00  0.00     0.000 C 
HETATM   20  C11 UNL     1      22.571   2.081  47.780  1.00  0.00     0.212 A 
HETATM   21  O4  UNL     1      21.306   1.129  48.233  1.00  0.00    -0.375 OA
ENDBRANCH  11  13
ENDBRANCH   4  11
BRANCH   1  22
HETATM   22  O2  UNL     1      26.699   2.226  51.394  1.00  0.00    -0.323 OA
BRANCH  22  23
HETATM   23  C2  UNL     1      26.157   3.161  50.507  1.00  0.00     0.344 C 
BRANCH  23  24
HETATM   24  O1  UNL     1      27.172   3.615  49.686  1.00  0.00    -0.371 OA
HETATM   25  C1  UNL     1      26.907   4.751  48.986  1.00  0.00     0.204 C 
ENDBRANCH  23  24
ENDBRANCH  22  23
ENDBRANCH   1  22
BRANCH  10  26
HETATM   26  O5  UNL     1      27.757   0.333  52.704  1.00  0.00    -0.353 OA
HETATM   27  C17 UNL     1      28.712   0.088  53.727  1.00  0.00     0.210 C 
ENDBRANCH  10  26
TORSDOF 6
ENDMDL
MODEL 4
REMARK VINA RESULT:      -6.8      2.958      4.845
REMARK  6 active torsions:
REMARK  status: ('A' for Active; 'I' for Inactive)
REMARK    1  A    between atoms: O1_2  and  C2_3 
REMARK    2  A    between atoms: C2_3  and  O2_4 
REMARK    3  A    between atoms: O2_4  and  C3_5 
REMARK    4  A    between atoms: C6_8  and  N1_9 
REMARK    5  A    between atoms: N1_9  and  C7_10 
REMARK    6  A    between atoms: C16_24  and  O5_25 
ROOT
HETATM    1  C3  UNL     1      22.169   1.329  53.085  1.00  0.00     0.105 A 
HETATM    2  C4  UNL     1      23.080   2.169  52.431  1.00  0.00     0.057 A 
HETATM    3  C5  UNL     1      24.330   1.731  52.495  1.00  0.00     0.041 A 
HETATM    4  C6  UNL     1      25.453   2.316  52.007  1.00  0.00     0.138 A 
HETATM    5  N2  UNL     1      26.616   1.846  52.156  1.00  0.00    -0.224 NA
HETATM    6  C13 UNL     1      27.171   0.816  52.712  1.00  0.00     0.235 A 
HETATM    7  N3  UNL     1      26.033   0.198  53.206  1.00  0.00    -0.241 NA
HETATM    8  C14 UNL     1      24.788   0.639  53.089  1.00  0.00     0.075 A 
HETATM    9  C15 UNL     1      24.049  -0.319  53.789  1.00  0.00     0.072 A 
HETATM   10  C16 UNL     1      22.628   0.139  53.733  1.00  0.00     0.103 A 
ENDROOT
BRANCH   4  11
HETATM   11  N1  UNL     1      25.295   3.414  51.133  1.00  0.00    -0.361 N 
HETATM   12  H7  UNL     1      24.866   3.364  50.199  1.00  0.00     0.162 HD
BRANCH  11  13
HETATM   13  C7  UNL     1      25.355   4.871  50.503  1.00  0.00     0.138 A 
HETATM   14  C8  UNL     1      26.027   4.467  49.187  1.00  0.00     0.043 C 
HETATM   15  S1  UNL     1      23.492   3.297  48.921  1.00  0.00    -0.141 SA
HETATM   16  O3  UNL     1      24.452   4.107  49.735  1.00  0.00     0.000 OA
HETATM   17  C10 UNL     1      22.924   2.795  48.424  1.00  0.00     0.004 A 
HETATM   18  C12 UNL     1      23.502   3.306  48.930  1.00  0.00     0.246 A 
HETATM   19  C9  UNL     1      24.062   5.591  49.168  1.00  0.00     0.000 C 
HETATM   20  C11 UNL     1      22.107   2.101  47.744  1.00  0.00     0.212 A 
HETATM   21  O4  UNL     1      21.402   2.792  49.061  1.00  0.00    -0.375 OA
ENDBRANCH  11  13
ENDBRANCH   4  11
BRANCH   1  22
HETATM   22  O2  UNL     1      20.869   1.810  53.002  1.00  0.00    -0.323 OA
BRANCH  22  23
HETATM   23  C2  UNL     1      20.539   3.015  52.375  1.00  0.00     0.344 C 
BRANCH  23  24
HETATM   24  O1  UNL     1      19.161   3.114  52.331  1.00  0.00    -0.371 OA
HETATM   25  C1  UNL     1      18.648   3.824  51.290  1.00  0.00     0.204 C 
ENDBRANCH  23  24
ENDBRANCH  22  23
ENDBRANCH   1  22
BRANCH  10  26
HETATM   26  O5  UNL     1      21.373  -0.351  54.226  1.00  0.00    -0.353 OA
HETATM   27  C17 UNL     1      21.115  -1.745  54.300  1.00  0.00     0.210 C 
ENDBRANCH  10  26
TORSDOF 6
ENDMDL
MODEL 5
REMARK VINA RESULT:      -6.8      3.182      7.185
REMARK  6 active torsions:
REMARK  status: ('A' for Active; 'I' for Inactive)
REMARK    1  A    between atoms: O1_2  and  C2_3 
REMARK    2  A    between atoms: C2_3  and  O2_4 
REMARK    3  A    between atoms: O2_4  and  C3_5 
REMARK    4  A    between atoms: C6_8  and  N1_9 
REMARK    5  A    between atoms: N1_9  and  C7_10 
REMARK    6  A    between atoms: C16_24  and  O5_25 
ROOT
HETATM    1  C3  UNL     1      25.150   0.420  53.308  1.00  0.00     0.105 A 
HETATM    2  C4  UNL     1      24.250   1.192  52.562  1.00  0.00     0.057 A 
HETATM    3  C5  UNL     1      24.850   2.017  51.714  1.00  0.00     0.041 A 
HETATM    4  C6  UNL     1      24.284   2.923  50.878  1.00  0.00     0.138 A 
HETATM    5  N2  UNL     1      24.941   3.704  50.134  1.00  0.00    -0.224 NA
HETATM    6  C13 UNL     1      26.183   3.958  49.867  1.00  0.00     0.235 A 
HETATM    7  N3  UNL     1      26.778   3.029  50.707  1.00  0.00    -0.241 NA
HETATM    8  C14 UNL     1      26.149   2.185  51.513  1.00  0.00     0.075 A 
HETATM    9  C15 UNL     1      27.199   1.519  52.151  1.00  0.00     0.072 A 
HETATM   10  C16 UNL     1      26.559   0.572  53.114  1.00  0.00     0.103 A 
ENDROOT
BRANCH   4  11
HETATM   11  N1  UNL     1      22.885   2.865  50.697  1.00  0.00    -0.361 N 
HETATM   12  H7  UNL     1      22.336   3.538  50.146  1.00  0.00     0.162 HD
BRANCH  11  13
HETATM   13  C7  UNL     1      21.360   2.427  50.792  1.00  0.00     0.138 A 
HETATM   14  C8  UNL     1      21.111   2.964  52.205  1.00  0.00     0.043 C 
HETATM   15  S1  UNL     1      21.448   5.333  50.740  1.00  0.00    -0.141 SA
HETATM   16  O3  UNL     1      21.403   3.836  50.767  1.00  0.00     0.000 OA
HETATM   17  C10 UNL     1      21.484   6.238  50.738  1.00  0.00     0.004 A 
HETATM   18  C12 UNL     1      21.447   5.316  50.740  1.00  0.00     0.246 A 
HETATM   19  C9  UNL     1      19.806   3.633  50.480  1.00  0.00     0.000 C 
HETATM   20  C11 UNL     1      21.533   7.507  50.708  1.00  0.00     0.212 A 
HETATM   21  O4  UNL     1      21.542   6.839  49.203  1.00  0.00    -0.375 OA
ENDBRANCH  11  13
ENDBRANCH   4  11
BRANCH   1  22
HETATM   22  O2  UNL     1      24.496  -0.434  54.186  1.00  0.00    -0.323 OA
BRANCH  22  23
HETATM   23  C2  UNL     1      23.256  -1.015  53.905  1.00  0.00     0.344 C 
BRANCH  23  24
HETATM   24  O1  UNL     1      22.424  -0.799  54.988  1.00  0.00    -0.371 OA
HETATM   25  C1  UNL     1      21.278  -0.111  54.731  1.00  0.00     0.204 C 
ENDBRANCH  23  24
ENDBRANCH  22  23
ENDBRANCH   1  22
BRANCH  10  26
HETATM   26  O5  UNL     1      27.026  -0.395  54.065  1.00  0.00    -0.353 OA
HETATM   27  C17 UNL     1      28.149  -0.120  54.890  1.00  0.00     0.210 C 
ENDBRANCH  10  26
TORSDOF 6
ENDMDL
MODEL 6
REMARK VINA RESULT:      -6.5      2.452      7.026
REMARK  6 active torsions:
REMARK  status: ('A' for Active; 'I' for Inactive)
REMARK    1  A    between atoms: O1_2  and  C2_3 
REMARK    2  A    between atoms: C2_3  and  O2_4 
REMARK    3  A    between atoms: O2_4  and  C3_5 
REMARK    4  A    between atoms: C6_8  and  N1_9 
REMARK    5  A    between atoms: N1_9  and  C7_10 
REMARK    6  A    between atoms: C16_24  and  O5_25 
ROOT
HETATM    1  C3  UNL     1      25.090   1.630  52.366  1.00  0.00     0.105 A 
HETATM    2  C4  UNL     1      23.706   1.849  52.356  1.00  0.00     0.057 A 
HETATM    3  C5  UNL     1      23.025   0.901  52.986  1.00  0.00     0.041 A 
HETATM    4  C6  UNL     1      21.680   0.785  53.128  1.00  0.00     0.138 A 
HETATM    5  N2  UNL     1      21.114  -0.183  53.710  1.00  0.00    -0.224 NA
HETATM    6  C13 UNL     1      21.459  -1.275  54.315  1.00  0.00     0.235 A 
HETATM    7  N3  UNL     1      22.835  -1.165  54.190  1.00  0.00    -0.241 NA
HETATM    8  C14 UNL     1      23.491  -0.181  53.591  1.00  0.00     0.075 A 
HETATM    9  C15 UNL     1      24.827  -0.577  53.709  1.00  0.00     0.072 A 
HETATM   10  C16 UNL     1      25.629   0.475  53.013  1.00  0.00     0.103 A 
ENDROOT
BRANCH   4  11
HETATM   11  N1  UNL     1      20.883   1.892  52.765  1.00  0.00    -0.361 N 
HETATM   12  H7  UNL     1      19.858   1.929  52.849  1.00  0.00     0.162 HD
BRANCH  11  13
HETATM   13  C7  UNL     1      20.412   3.307  52.217  1.00  0.00     0.138 A 
HETATM   14  C8  UNL     1      20.674   3.019  50.736  1.00  0.00     0.043 C 
HETATM   15  S1  UNL     1      18.512   1.316  51.279  1.00  0.00    -0.141 SA
HETATM   16  O3  UNL     1      19.491   2.341  51.762  1.00  0.00     0.000 OA
HETATM   17  C10 UNL     1      17.933   0.688  50.979  1.00  0.00     0.004 A 
HETATM   18  C12 UNL     1      18.523   1.327  51.285  1.00  0.00     0.246 A 
HETATM   19  C9  UNL     1      18.624   3.686  51.425  1.00  0.00     0.000 C 
HETATM   20  C11 UNL     1      17.105  -0.189  50.579  1.00  0.00     0.212 A 
HETATM   21  O4  UNL     1      16.752   0.372  52.086  1.00  0.00    -0.375 OA
ENDBRANCH  11  13
ENDBRANCH   4  11
BRANCH   1  22
HETATM   22  O2  UNL     1      25.778   2.636  51.700  1.00  0.00    -0.323 OA
BRANCH  22  23
HETATM   23  C2  UNL     1      25.625   2.891  50.334  1.00  0.00     0.344 C 
BRANCH  23  24
HETATM   24  O1  UNL     1      26.856   3.263  49.826  1.00  0.00    -0.371 OA
HETATM   25  C1  UNL     1      26.884   4.433  49.130  1.00  0.00     0.204 C 
ENDBRANCH  23  24
ENDBRANCH  22  23
ENDBRANCH   1  22
BRANCH  10  26
HETATM   26  O5  UNL     1      27.023   0.700  52.759  1.00  0.00    -0.353 OA
HETATM   27  C17 UNL     1      27.981   0.572  53.799  1.00  0.00     0.210 C 
ENDBRANCH  10  26
TORSDOF 6
ENDMDL
MODEL 7
REMARK VINA RESULT:      -6.3      5.249      9.279
REMARK  6 active torsions:
REMARK  status: ('A' for Active; 'I' for Inactive)
REMARK    1  A    between atoms: O1_2  and  C2_3 
REMARK    2  A    between atoms: C2_3  and  O2_4 
REMARK    3  A    between atoms: O2_4  and  C3_5 
REMARK    4  A    between atoms: C6_8  and  N1_9 
REMARK    5  A    between atoms: N1_9  and  C7_10 
REMARK    6  A    between atoms: C16_24  and  O5_25 
ROOT
HETATM    1  C3  UNL     1      26.917   4.863  48.931  1.00  0.00     0.105 A 
HETATM    2  C4  UNL     1      25.555   5.145  49.092  1.00  0.00     0.057 A 
HETATM    3  C5  UNL     1      25.224   6.365  48.691  1.00  0.00     0.041 A 
HETATM    4  C6  UNL     1      24.010   6.968  48.742  1.00  0.00     0.138 A 
HETATM    5  N2  UNL     1      23.796   8.158  48.376  1.00  0.00    -0.224 NA
HETATM    6  C13 UNL     1      24.473   9.147  47.884  1.00  0.00     0.235 A 
HETATM    7  N3  UNL     1      25.718   8.542  47.813  1.00  0.00    -0.241 NA
HETATM    8  C14 UNL     1      26.010   7.303  48.182  1.00  0.00     0.075 A 
HETATM    9  C15 UNL     1      27.385   7.220  47.945  1.00  0.00     0.072 A 
HETATM   10  C16 UNL     1      27.794   5.851  48.382  1.00  0.00     0.103 A 
ENDROOT
BRANCH   4  11
HETATM   11  N1  UNL     1      22.890   6.165  49.052  1.00  0.00    -0.361 N 
HETATM   12  H7  UNL     1      22.927   5.292  49.595  1.00  0.00     0.162 HD
BRANCH  11  13
HETATM   13  C7  UNL     1      21.411   5.590  49.130  1.00  0.00     0.138 A 
HETATM   14  C8  UNL     1      21.768   4.139  48.794  1.00  0.00     0.043 C 
HETATM   15  S1  UNL     1      22.923   4.444  51.332  1.00  0.00    -0.141 SA
HETATM   16  O3  UNL     1      22.145   5.034  50.197  1.00  0.00     0.000 OA
HETATM   17  C10 UNL     1      23.405   4.079  52.007  1.00  0.00     0.004 A 
HETATM   18  C12 UNL     1      22.915   4.451  51.319  1.00  0.00     0.246 A 
HETATM   19  C9  UNL     1      20.640   4.629  50.695  1.00  0.00     0.000 C 
HETATM   20  C11 UNL     1      24.073   3.589  52.969  1.00  0.00     0.212 A 
HETATM   21  O4  UNL     1      23.429   5.060  53.333  1.00  0.00    -0.375 OA
ENDBRANCH  11  13
ENDBRANCH   4  11
BRANCH   1  22
HETATM   22  O2  UNL     1      27.235   3.581  49.358  1.00  0.00    -0.323 OA
BRANCH  22  23
HETATM   23  C2  UNL     1      26.419   2.836  50.214  1.00  0.00     0.344 C 
BRANCH  23  24
HETATM   24  O1  UNL     1      27.157   2.508  51.337  1.00  0.00    -0.371 OA
HETATM   25  C1  UNL     1      26.798   1.358  51.969  1.00  0.00     0.204 C 
ENDBRANCH  23  24
ENDBRANCH  22  23
ENDBRANCH   1  22
BRANCH  10  26
HETATM   26  O5  UNL     1      29.023   5.111  48.418  1.00  0.00    -0.353 OA
HETATM   27  C17 UNL     1      30.272   5.770  48.271  1.00  0.00     0.210 C 
ENDBRANCH  10  26
TORSDOF 6
ENDMDL
MODEL 8
REMARK VINA RESULT:      -6.3      4.232      7.490
REMARK  6 active torsions:
REMARK  status: ('A' for Active; 'I' for Inactive)
REMARK    1  A    between atoms: O1_2  and  C2_3 
REMARK    2  A    between atoms: C2_3  and  O2_4 
REMARK    3  A    between atoms: O2_4  and  C3_5 
REMARK    4  A    between atoms: C6_8  and  N1_9 
REMARK    5  A    between atoms: N1_9  and  C7_10 
REMARK    6  A    between atoms: C16_24  and  O5_25 
ROOT
HETATM    1  C3  UNL     1      25.905   5.587  48.930  1.00  0.00     0.105 A 
HETATM    2  C4  UNL     1      25.793   4.473  49.773  1.00  0.00     0.057 A 
HETATM    3  C5  UNL     1      24.546   4.233  50.155  1.00  0.00     0.041 A 
HETATM    4  C6  UNL     1      24.094   3.267  50.994  1.00  0.00     0.138 A 
HETATM    5  N2  UNL     1      22.886   3.141  51.340  1.00  0.00    -0.224 NA
HETATM    6  C13 UNL     1      21.755   3.731  51.112  1.00  0.00     0.235 A 
HETATM    7  N3  UNL     1      22.198   4.717  50.243  1.00  0.00    -0.241 NA
HETATM    8  C14 UNL     1      23.447   4.906  49.844  1.00  0.00     0.075 A 
HETATM    9  C15 UNL     1      23.348   6.035  49.026  1.00  0.00     0.072 A 
HETATM   10  C16 UNL     1      24.740   6.334  48.570  1.00  0.00     0.103 A 
ENDROOT
BRANCH   4  11
HETATM   11  N1  UNL     1      24.992   2.239  51.357  1.00  0.00    -0.361 N 
HETATM   12  H7  UNL     1      24.717   1.340  51.773  1.00  0.00     0.162 HD
BRANCH  11  13
HETATM   13  C7  UNL     1      26.322   1.412  51.624  1.00  0.00     0.138 A 
HETATM   14  C8  UNL     1      26.489   1.816  53.093  1.00  0.00     0.043 C 
HETATM   15  S1  UNL     1      24.195   0.204  53.196  1.00  0.00    -0.141 SA
HETATM   16  O3  UNL     1      25.291   0.827  52.387  1.00  0.00     0.000 OA
HETATM   17  C10 UNL     1      23.531  -0.157  53.694  1.00  0.00     0.004 A 
HETATM   18  C12 UNL     1      24.207   0.211  53.187  1.00  0.00     0.246 A 
HETATM   19  C9  UNL     1      26.398  -0.370  52.512  1.00  0.00     0.000 C 
HETATM   20  C11 UNL     1      22.594  -0.682  54.372  1.00  0.00     0.212 A 
HETATM   21  O4  UNL     1      22.651  -1.252  52.829  1.00  0.00    -0.375 OA
ENDBRANCH  11  13
ENDBRANCH   4  11
BRANCH   1  22
HETATM   22  O2  UNL     1      27.219   5.815  48.545  1.00  0.00    -0.323 OA
BRANCH  22  23
HETATM   23  C2  UNL     1      28.187   4.807  48.495  1.00  0.00     0.344 C 
BRANCH  23  24
HETATM   24  O1  UNL     1      29.430   5.407  48.417  1.00  0.00    -0.371 OA
HETATM   25  C1  UNL     1      29.429   6.760  48.270  1.00  0.00     0.204 C 
ENDBRANCH  23  24
ENDBRANCH  22  23
ENDBRANCH   1  22
BRANCH  10  26
HETATM   26  O5  UNL     1      25.353   7.323  47.731  1.00  0.00    -0.353 OA
HETATM   27  C17 UNL     1      25.007   8.695  47.854  1.00  0.00     0.210 C 
ENDBRANCH  10  26
TORSDOF 6
ENDMDL
MODEL 9
REMARK VINA RESULT:      -6.3     10.839     13.940
REMARK  6 active torsions:
REMARK  status: ('A' for Active; 'I' for Inactive)
REMARK    1  A    between atoms: O1_2  and  C2_3 
REMARK    2  A    between atoms: C2_3  and  O2_4 
REMARK    3  A    between atoms: O2_4  and  C3_5 
REMARK    4  A    between atoms: C6_8  and  N1_9 
REMARK    5  A    between atoms: N1_9  and  C7_10 
REMARK    6  A    between atoms: C16_24  and  O5_25 
ROOT
HETATM    1  C3  UNL     1      32.059   8.881  47.652  1.00  0.00     0.105 A 
HETATM    2  C4  UNL     1      32.171   7.485  47.678  1.00  0.00     0.057 A 
HETATM    3  C5  UNL     1      31.007   6.873  47.856  1.00  0.00     0.041 A 
HETATM    4  C6  UNL     1      30.764   5.543  47.968  1.00  0.00     0.138 A 
HETATM    5  N2  UNL     1      29.621   5.050  48.183  1.00  0.00    -0.224 NA
HETATM    6  C13 UNL     1      28.410   5.474  48.355  1.00  0.00     0.235 A 
HETATM    7  N3  UNL     1      28.638   6.835  48.230  1.00  0.00    -0.241 NA
HETATM    8  C14 UNL     1      29.809   7.417  48.009  1.00  0.00     0.075 A 
HETATM    9  C15 UNL     1      29.489   8.777  48.014  1.00  0.00     0.072 A 
HETATM   10  C16 UNL     1      30.781   9.502  47.810  1.00  0.00     0.103 A 
ENDROOT
BRANCH   4  11
HETATM   11  N1  UNL     1      31.814   4.654  47.648  1.00  0.00    -0.361 N 
HETATM   12  H7  UNL     1      32.402   4.719  46.807  1.00  0.00     0.162 HD
BRANCH  11  13
HETATM   13  C7  UNL     1      32.837   3.439  47.689  1.00  0.00     0.138 A 
HETATM   14  C8  UNL     1      32.119   2.569  46.651  1.00  0.00     0.043 C 
HETATM   15  S1  UNL     1      33.053   4.694  45.075  1.00  0.00    -0.141 SA
HETATM   16  O3  UNL     1      32.941   4.047  46.421  1.00  0.00     0.000 OA
HETATM   17  C10 UNL     1      33.104   5.081  44.258  1.00  0.00     0.004 A 
HETATM   18  C12 UNL     1      33.052   4.687  45.090  1.00  0.00     0.246 A 
HETATM   19  C9  UNL     1      34.294   3.130  46.366  1.00  0.00     0.000 C 
HETATM   20  C11 UNL     1      33.196   5.641  43.122  1.00  0.00     0.212 A 
HETATM   21  O4  UNL     1      34.142   6.364  44.259  1.00  0.00    -0.375 OA
ENDBRANCH  11  13
ENDBRANCH   4  11
BRANCH   1  22
HETATM   22  O2  UNL     1      33.290   9.495  47.465  1.00  0.00    -0.323 OA
BRANCH  22  23
HETATM   23  C2  UNL     1      34.288   8.971  46.637  1.00  0.00     0.344 C 
BRANCH  23  24
HETATM   24  O1  UNL     1      34.363   9.758  45.502  1.00  0.00    -0.371 OA
HETATM   25  C1  UNL     1      35.507   9.644  44.775  1.00  0.00     0.204 C 
ENDBRANCH  23  24
ENDBRANCH  22  23
ENDBRANCH   1  22
BRANCH  10  26
HETATM   26  O5  UNL     1      31.181  10.876  47.711  1.00  0.00    -0.353 OA
HETATM   27  C17 UNL     1      30.925  11.786  48.771  1.00  0.00     0.210 C 
ENDBRANCH  10  26
TORSDOF 6
ENDMDL
