MODEL 1
REMARK VINA RESULT:      -7.4      0.000      0.000
REMARK  10 active torsions:
REMARK  status: ('A' for Active; 'I' for Inactive)
REMARK    1  A    between atoms: C2_2  and  N1_3 
REMARK    2  A    between atoms: C2_2  and  N4_23 
REMARK    3  A    between atoms: N1_3  and  C3_4 
REMARK    4  A    between atoms: C3_4  and  C4_5 
REMARK    5  A    between atoms: C4_5  and  C5_6 
REMARK    6  A    between atoms: C4_5  and  C7_9 
REMARK    7  A    between atoms: C5_6  and  C6_7 
REMARK    8  A    between atoms: C11_15  and  O2_16 
REMARK    9  A    between atoms: C13_18  and  O3_19 
REMARK   10  A    between atoms: N4_23  and  C17_24 
ROOT
HETATM    1  C4  UNL     1      25.585   0.279  52.754  1.00  0.00     0.059 C 
ENDROOT
BRANCH   1   2
HETATM    2  C3  UNL     1      26.196   1.559  53.174  1.00  0.00     0.132 C 
BRANCH   2   3
HETATM    3  N1  UNL     1      26.597   2.459  52.147  1.00  0.00    -0.377 N 
HETATM    4  H3  UNL     1      27.574   2.816  51.989  1.00  0.00     0.161 HD
BRANCH   3   5
HETATM    5  C2  UNL     1      25.956   3.138  51.093  1.00  0.00     0.087 C 
HETATM    6  C1  UNL     1      26.410   3.178  49.855  1.00  0.00     0.063 C 
BRANCH   5   7
HETATM    7  N4  UNL     1      24.732   3.867  51.297  1.00  0.00    -0.365 N 
HETATM    8  H19 UNL     1      24.481   3.724  50.273  1.00  0.00     0.162 HD
BRANCH   7   9
HETATM    9  C17 UNL     1      23.724   4.630  52.047  1.00  0.00     0.134 A 
HETATM   10  C18 UNL     1      22.465   3.987  52.243  1.00  0.00     0.040 A 
HETATM   11  C19 UNL     1      21.691   4.687  51.507  1.00  0.00     0.167 A 
HETATM   12  S1  UNL     1      22.919   5.785  50.949  1.00  0.00    -0.214 SA
ENDBRANCH   7   9
ENDBRANCH   5   7
ENDBRANCH   3   5
ENDBRANCH   2   3
ENDBRANCH   1   2
BRANCH   1  13
HETATM   13  C5  UNL     1      26.590  -0.813  52.382  1.00  0.00     0.049 C 
BRANCH  13  14
HETATM   14  C6  UNL     1      27.836  -0.710  53.159  1.00  0.00     0.391 C 
HETATM   15  O1  UNL     1      28.538  -0.844  54.147  1.00  0.00    -0.430 OA
ENDBRANCH  13  14
ENDBRANCH   1  13
BRANCH   1  16
HETATM   16  C7  UNL     1      24.689  -0.326  53.765  1.00  0.00     0.054 A 
HETATM   17  N2  UNL     1      25.131  -0.909  54.896  1.00  0.00    -0.245 NA
HETATM   18  C8  UNL     1      24.322  -1.465  55.829  1.00  0.00     0.234 A 
HETATM   19  N3  UNL     1      22.981  -1.450  55.642  1.00  0.00    -0.241 NA
HETATM   20  C9  UNL     1      22.457  -0.889  54.537  1.00  0.00     0.073 A 
HETATM   21  C10 UNL     1      21.091  -0.855  54.325  1.00  0.00     0.072 A 
HETATM   22  C16 UNL     1      23.297  -0.322  53.589  1.00  0.00     0.021 A 
HETATM   23  C11 UNL     1      20.510  -0.285  53.213  1.00  0.00     0.103 A 
HETATM   24  C13 UNL     1      21.352   0.288  52.252  1.00  0.00     0.102 A 
HETATM   25  C15 UNL     1      22.707   0.244  52.483  1.00  0.00     0.055 A 
BRANCH  23  26
HETATM   26  O2  UNL     1      19.144  -0.231  52.959  1.00  0.00    -0.353 OA
HETATM   27  C12 UNL     1      18.326  -1.358  53.242  1.00  0.00     0.210 C 
ENDBRANCH  23  26
BRANCH  24  28
HETATM   28  O3  UNL     1      20.815   0.873  51.113  1.00  0.00    -0.353 OA
HETATM   29  C14 UNL     1      21.695   1.053  50.000  1.00  0.00     0.210 C 
ENDBRANCH  24  28
ENDBRANCH   1  16
TORSDOF 10
ENDMDL
MODEL 2
REMARK VINA RESULT:      -7.4      1.026      2.002
REMARK  10 active torsions:
REMARK  status: ('A' for Active; 'I' for Inactive)
REMARK    1  A    between atoms: C2_2  and  N1_3 
REMARK    2  A    between atoms: C2_2  and  N4_23 
REMARK    3  A    between atoms: N1_3  and  C3_4 
REMARK    4  A    between atoms: C3_4  and  C4_5 
REMARK    5  A    between atoms: C4_5  and  C5_6 
REMARK    6  A    between atoms: C4_5  and  C7_9 
REMARK    7  A    between atoms: C5_6  and  C6_7 
REMARK    8  A    between atoms: C11_15  and  O2_16 
REMARK    9  A    between atoms: C13_18  and  O3_19 
REMARK   10  A    between atoms: N4_23  and  C17_24 
ROOT
HETATM    1  C4  UNL     1      25.437   0.325  53.041  1.00  0.00     0.059 C 
ENDROOT
BRANCH   1   2
HETATM    2  C3  UNL     1      26.017   1.540  53.652  1.00  0.00     0.132 C 
BRANCH   2   3
HETATM    3  N1  UNL     1      25.289   2.755  53.506  1.00  0.00    -0.377 N 
HETATM    4  H3  UNL     1      25.036   3.417  54.284  1.00  0.00     0.161 HD
BRANCH   3   5
HETATM    5  C2  UNL     1      24.699   3.456  52.438  1.00  0.00     0.087 C 
HETATM    6  C1  UNL     1      23.496   3.997  52.485  1.00  0.00     0.063 C 
BRANCH   5   7
HETATM    7  N4  UNL     1      25.376   3.630  51.181  1.00  0.00    -0.365 N 
HETATM    8  H19 UNL     1      26.313   3.520  51.675  1.00  0.00     0.162 HD
BRANCH   7   9
HETATM    9  C17 UNL     1      25.499   3.857  49.734  1.00  0.00     0.134 A 
HETATM   10  C18 UNL     1      26.829   3.983  49.228  1.00  0.00     0.040 A 
HETATM   11  C19 UNL     1      26.871   5.217  48.898  1.00  0.00     0.167 A 
HETATM   12  S1  UNL     1      25.243   5.589  49.383  1.00  0.00    -0.214 SA
ENDBRANCH   7   9
ENDBRANCH   5   7
ENDBRANCH   3   5
ENDBRANCH   2   3
ENDBRANCH   1   2
BRANCH   1  13
HETATM   13  C5  UNL     1      26.450  -0.779  52.736  1.00  0.00     0.049 C 
BRANCH  13  14
HETATM   14  C6  UNL     1      27.733  -0.563  53.424  1.00  0.00     0.391 C 
HETATM   15  O1  UNL     1      28.627  -0.833  54.208  1.00  0.00    -0.430 OA
ENDBRANCH  13  14
ENDBRANCH   1  13
BRANCH   1  16
HETATM   16  C7  UNL     1      24.377  -0.314  53.854  1.00  0.00     0.054 A 
HETATM   17  N2  UNL     1      24.617  -0.973  55.004  1.00  0.00    -0.245 NA
HETATM   18  C8  UNL     1      23.657  -1.560  55.757  1.00  0.00     0.234 A 
HETATM   19  N3  UNL     1      22.366  -1.501  55.355  1.00  0.00    -0.241 NA
HETATM   20  C9  UNL     1      22.039  -0.862  54.216  1.00  0.00     0.073 A 
HETATM   21  C10 UNL     1      20.727  -0.781  53.786  1.00  0.00     0.072 A 
HETATM   22  C16 UNL     1      23.032  -0.263  53.454  1.00  0.00     0.021 A 
HETATM   23  C11 UNL     1      20.346  -0.133  52.631  1.00  0.00     0.103 A 
HETATM   24  C13 UNL     1      21.344   0.473  51.858  1.00  0.00     0.102 A 
HETATM   25  C15 UNL     1      22.641   0.381  52.303  1.00  0.00     0.055 A 
BRANCH  23  26
HETATM   26  O2  UNL     1      19.042  -0.029  52.162  1.00  0.00    -0.353 OA
HETATM   27  C12 UNL     1      18.026  -0.865  52.700  1.00  0.00     0.210 C 
ENDBRANCH  23  26
BRANCH  24  28
HETATM   28  O3  UNL     1      21.011   1.137  50.685  1.00  0.00    -0.353 OA
HETATM   29  C14 UNL     1      22.092   1.644  49.897  1.00  0.00     0.210 C 
ENDBRANCH  24  28
ENDBRANCH   1  16
TORSDOF 10
ENDMDL
MODEL 3
REMARK VINA RESULT:      -6.9      2.634      5.653
REMARK  10 active torsions:
REMARK  status: ('A' for Active; 'I' for Inactive)
REMARK    1  A    between atoms: C2_2  and  N1_3 
REMARK    2  A    between atoms: C2_2  and  N4_23 
REMARK    3  A    between atoms: N1_3  and  C3_4 
REMARK    4  A    between atoms: C3_4  and  C4_5 
REMARK    5  A    between atoms: C4_5  and  C5_6 
REMARK    6  A    between atoms: C4_5  and  C7_9 
REMARK    7  A    between atoms: C5_6  and  C6_7 
REMARK    8  A    between atoms: C11_15  and  O2_16 
REMARK    9  A    between atoms: C13_18  and  O3_19 
REMARK   10  A    between atoms: N4_23  and  C17_24 
ROOT
HETATM    1  C4  UNL     1      23.505   2.925  51.561  1.00  0.00     0.059 C 
ENDROOT
BRANCH   1   2
HETATM    2  C3  UNL     1      23.294   2.790  50.104  1.00  0.00     0.132 C 
BRANCH   2   3
HETATM    3  N1  UNL     1      24.358   3.198  49.250  1.00  0.00    -0.377 N 
HETATM    4  H3  UNL     1      24.575   2.794  48.303  1.00  0.00     0.161 HD
BRANCH   3   5
HETATM    5  C2  UNL     1      25.392   4.150  49.310  1.00  0.00     0.087 C 
HETATM    6  C1  UNL     1      26.646   3.861  49.601  1.00  0.00     0.063 C 
BRANCH   5   7
HETATM    7  N4  UNL     1      25.150   5.546  49.063  1.00  0.00    -0.365 N 
HETATM    8  H19 UNL     1      24.154   5.434  49.420  1.00  0.00     0.162 HD
BRANCH   7   9
HETATM    9  C17 UNL     1      25.467   6.916  48.632  1.00  0.00     0.134 A 
HETATM   10  C18 UNL     1      26.731   7.098  47.991  1.00  0.00     0.040 A 
HETATM   11  C19 UNL     1      27.373   7.779  48.860  1.00  0.00     0.167 A 
HETATM   12  S1  UNL     1      26.084   7.847  50.025  1.00  0.00    -0.214 SA
ENDBRANCH   7   9
ENDBRANCH   5   7
ENDBRANCH   3   5
ENDBRANCH   2   3
ENDBRANCH   1   2
BRANCH   1  13
HETATM   13  C5  UNL     1      22.524   3.867  52.261  1.00  0.00     0.049 C 
BRANCH  13  14
HETATM   14  C6  UNL     1      22.414   5.165  51.575  1.00  0.00     0.391 C 
HETATM   15  O1  UNL     1      22.815   6.249  51.189  1.00  0.00    -0.430 OA
ENDBRANCH  13  14
ENDBRANCH   1  13
BRANCH   1  16
HETATM   16  C7  UNL     1      23.437   1.647  52.305  1.00  0.00     0.054 A 
HETATM   17  N2  UNL     1      22.282   1.014  52.589  1.00  0.00    -0.245 NA
HETATM   18  C8  UNL     1      22.206  -0.155  53.268  1.00  0.00     0.234 A 
HETATM   19  N3  UNL     1      23.342  -0.750  53.701  1.00  0.00    -0.241 NA
HETATM   20  C9  UNL     1      24.539  -0.183  53.461  1.00  0.00     0.073 A 
HETATM   21  C10 UNL     1      25.715  -0.772  53.886  1.00  0.00     0.072 A 
HETATM   22  C16 UNL     1      24.603   1.016  52.763  1.00  0.00     0.021 A 
HETATM   23  C11 UNL     1      26.961  -0.230  53.657  1.00  0.00     0.103 A 
HETATM   24  C13 UNL     1      27.033   0.979  52.954  1.00  0.00     0.102 A 
HETATM   25  C15 UNL     1      25.852   1.548  52.539  1.00  0.00     0.055 A 
BRANCH  23  26
HETATM   26  O2  UNL     1      28.166  -0.787  54.068  1.00  0.00    -0.353 OA
HETATM   27  C12 UNL     1      28.824  -1.741  53.246  1.00  0.00     0.210 C 
ENDBRANCH  23  26
BRANCH  24  28
HETATM   28  O3  UNL     1      28.265   1.566  52.699  1.00  0.00    -0.353 OA
HETATM   29  C14 UNL     1      28.727   2.539  53.640  1.00  0.00     0.210 C 
ENDBRANCH  24  28
ENDBRANCH   1  16
TORSDOF 10
ENDMDL
MODEL 4
REMARK VINA RESULT:      -6.9      2.806      5.871
REMARK  10 active torsions:
REMARK  status: ('A' for Active; 'I' for Inactive)
REMARK    1  A    between atoms: C2_2  and  N1_3 
REMARK    2  A    between atoms: C2_2  and  N4_23 
REMARK    3  A    between atoms: N1_3  and  C3_4 
REMARK    4  A    between atoms: C3_4  and  C4_5 
REMARK    5  A    between atoms: C4_5  and  C5_6 
REMARK    6  A    between atoms: C4_5  and  C7_9 
REMARK    7  A    between atoms: C5_6  and  C6_7 
REMARK    8  A    between atoms: C11_15  and  O2_16 
REMARK    9  A    between atoms: C13_18  and  O3_19 
REMARK   10  A    between atoms: N4_23  and  C17_24 
ROOT
HETATM    1  C4  UNL     1      22.992   3.700  51.470  1.00  0.00     0.059 C 
ENDROOT
BRANCH   1   2
HETATM    2  C3  UNL     1      22.853   4.906  52.315  1.00  0.00     0.132 C 
BRANCH   2   3
HETATM    3  N1  UNL     1      23.821   5.935  52.146  1.00  0.00    -0.377 N 
HETATM    4  H3  UNL     1      24.659   6.098  52.762  1.00  0.00     0.161 HD
BRANCH   3   5
HETATM    5  C2  UNL     1      24.023   6.993  51.240  1.00  0.00     0.087 C 
HETATM    6  C1  UNL     1      23.047   7.665  50.659  1.00  0.00     0.063 C 
BRANCH   5   7
HETATM    7  N4  UNL     1      25.343   7.424  50.862  1.00  0.00    -0.365 N 
HETATM    8  H19 UNL     1      25.589   7.556  51.889  1.00  0.00     0.162 HD
BRANCH   7   9
HETATM    9  C17 UNL     1      26.443   7.759  49.947  1.00  0.00     0.134 A 
HETATM   10  C18 UNL     1      27.090   9.012  50.172  1.00  0.00     0.040 A 
HETATM   11  C19 UNL     1      26.727   9.686  49.150  1.00  0.00     0.167 A 
HETATM   12  S1  UNL     1      25.771   8.423  48.432  1.00  0.00    -0.214 SA
ENDBRANCH   7   9
ENDBRANCH   5   7
ENDBRANCH   3   5
ENDBRANCH   2   3
ENDBRANCH   1   2
BRANCH   1  13
HETATM   13  C5  UNL     1      22.320   3.803  50.100  1.00  0.00     0.049 C 
BRANCH  13  14
HETATM   14  C6  UNL     1      21.949   2.484  49.562  1.00  0.00     0.391 C 
HETATM   15  O1  UNL     1      21.866   1.268  49.575  1.00  0.00    -0.430 OA
ENDBRANCH  13  14
ENDBRANCH   1  13
BRANCH   1  16
HETATM   16  C7  UNL     1      24.394   3.306  51.203  1.00  0.00     0.054 A 
HETATM   17  N2  UNL     1      25.239   4.034  50.446  1.00  0.00    -0.245 NA
HETATM   18  C8  UNL     1      26.523   3.686  50.194  1.00  0.00     0.234 A 
HETATM   19  N3  UNL     1      27.018   2.541  50.720  1.00  0.00    -0.241 NA
HETATM   20  C9  UNL     1      26.241   1.755  51.487  1.00  0.00     0.073 A 
HETATM   21  C10 UNL     1      26.724   0.585  52.042  1.00  0.00     0.072 A 
HETATM   22  C16 UNL     1      24.927   2.124  51.738  1.00  0.00     0.021 A 
HETATM   23  C11 UNL     1      25.966  -0.246  52.838  1.00  0.00     0.103 A 
HETATM   24  C13 UNL     1      24.640   0.119  53.096  1.00  0.00     0.102 A 
HETATM   25  C15 UNL     1      24.179   1.287  52.534  1.00  0.00     0.055 A 
BRANCH  23  26
HETATM   26  O2  UNL     1      26.411  -1.431  53.414  1.00  0.00    -0.353 OA
HETATM   27  C12 UNL     1      27.256  -2.304  52.676  1.00  0.00     0.210 C 
ENDBRANCH  23  26
BRANCH  24  28
HETATM   28  O3  UNL     1      23.835  -0.686  53.890  1.00  0.00    -0.353 OA
HETATM   29  C14 UNL     1      22.585  -1.105  53.334  1.00  0.00     0.210 C 
ENDBRANCH  24  28
ENDBRANCH   1  16
TORSDOF 10
ENDMDL
MODEL 5
REMARK VINA RESULT:      -6.8      2.671      5.990
REMARK  10 active torsions:
REMARK  status: ('A' for Active; 'I' for Inactive)
REMARK    1  A    between atoms: C2_2  and  N1_3 
REMARK    2  A    between atoms: C2_2  and  N4_23 
REMARK    3  A    between atoms: N1_3  and  C3_4 
REMARK    4  A    between atoms: C3_4  and  C4_5 
REMARK    5  A    between atoms: C4_5  and  C5_6 
REMARK    6  A    between atoms: C4_5  and  C7_9 
REMARK    7  A    between atoms: C5_6  and  C6_7 
REMARK    8  A    between atoms: C11_15  and  O2_16 
REMARK    9  A    between atoms: C13_18  and  O3_19 
REMARK   10  A    between atoms: N4_23  and  C17_24 
ROOT
HETATM    1  C4  UNL     1      22.858   1.844  51.886  1.00  0.00     0.059 C 
ENDROOT
BRANCH   1   2
HETATM    2  C3  UNL     1      22.089   3.069  52.194  1.00  0.00     0.132 C 
BRANCH   2   3
HETATM    3  N1  UNL     1      22.820   4.284  52.318  1.00  0.00    -0.377 N 
HETATM    4  H3  UNL     1      23.523   4.504  53.069  1.00  0.00     0.161 HD
BRANCH   3   5
HETATM    5  C2  UNL     1      22.890   5.497  51.608  1.00  0.00     0.087 C 
HETATM    6  C1  UNL     1      21.837   6.150  51.155  1.00  0.00     0.063 C 
BRANCH   5   7
HETATM    7  N4  UNL     1      24.149   6.126  51.308  1.00  0.00    -0.365 N 
HETATM    8  H19 UNL     1      24.472   5.947  52.306  1.00  0.00     0.162 HD
BRANCH   7   9
HETATM    9  C17 UNL     1      25.150   6.817  50.482  1.00  0.00     0.134 A 
HETATM   10  C18 UNL     1      24.914   8.203  50.235  1.00  0.00     0.040 A 
HETATM   11  C19 UNL     1      24.643   8.208  48.987  1.00  0.00     0.167 A 
HETATM   12  S1  UNL     1      24.820   6.493  48.758  1.00  0.00    -0.214 SA
ENDBRANCH   7   9
ENDBRANCH   5   7
ENDBRANCH   3   5
ENDBRANCH   2   3
ENDBRANCH   1   2
BRANCH   1  13
HETATM   13  C5  UNL     1      22.305   1.023  50.720  1.00  0.00     0.049 C 
BRANCH  13  14
HETATM   14  C6  UNL     1      21.277   1.754  49.962  1.00  0.00     0.391 C 
HETATM   15  O1  UNL     1      20.420   1.887  49.106  1.00  0.00    -0.430 OA
ENDBRANCH  13  14
ENDBRANCH   1  13
BRANCH   1  16
HETATM   16  C7  UNL     1      24.283   2.087  51.568  1.00  0.00     0.054 A 
HETATM   17  N2  UNL     1      24.695   2.905  50.580  1.00  0.00    -0.245 NA
HETATM   18  C8  UNL     1      25.994   3.137  50.279  1.00  0.00     0.234 A 
HETATM   19  N3  UNL     1      26.964   2.523  50.997  1.00  0.00    -0.241 NA
HETATM   20  C9  UNL     1      26.639   1.689  52.001  1.00  0.00     0.073 A 
HETATM   21  C10 UNL     1      27.609   1.054  52.754  1.00  0.00     0.072 A 
HETATM   22  C16 UNL     1      25.303   1.460  52.300  1.00  0.00     0.021 A 
HETATM   23  C11 UNL     1      27.323   0.197  53.795  1.00  0.00     0.103 A 
HETATM   24  C13 UNL     1      25.977  -0.038  54.101  1.00  0.00     0.102 A 
HETATM   25  C15 UNL     1      25.028   0.603  53.340  1.00  0.00     0.055 A 
BRANCH  23  26
HETATM   26  O2  UNL     1      28.266  -0.462  54.575  1.00  0.00    -0.353 OA
HETATM   27  C12 UNL     1      29.503  -0.864  54.003  1.00  0.00     0.210 C 
ENDBRANCH  23  26
BRANCH  24  28
HETATM   28  O3  UNL     1      25.636  -0.894  55.139  1.00  0.00    -0.353 OA
HETATM   29  C14 UNL     1      24.250  -1.212  55.290  1.00  0.00     0.210 C 
ENDBRANCH  24  28
ENDBRANCH   1  16
TORSDOF 10
ENDMDL
MODEL 6
REMARK VINA RESULT:      -6.7      1.768      2.212
REMARK  10 active torsions:
REMARK  status: ('A' for Active; 'I' for Inactive)
REMARK    1  A    between atoms: C2_2  and  N1_3 
REMARK    2  A    between atoms: C2_2  and  N4_23 
REMARK    3  A    between atoms: N1_3  and  C3_4 
REMARK    4  A    between atoms: C3_4  and  C4_5 
REMARK    5  A    between atoms: C4_5  and  C5_6 
REMARK    6  A    between atoms: C4_5  and  C7_9 
REMARK    7  A    between atoms: C5_6  and  C6_7 
REMARK    8  A    between atoms: C11_15  and  O2_16 
REMARK    9  A    between atoms: C13_18  and  O3_19 
REMARK   10  A    between atoms: N4_23  and  C17_24 
ROOT
HETATM    1  C4  UNL     1      24.640   0.963  52.748  1.00  0.00     0.059 C 
ENDROOT
BRANCH   1   2
HETATM    2  C3  UNL     1      24.788   2.335  53.279  1.00  0.00     0.132 C 
BRANCH   2   3
HETATM    3  N1  UNL     1      24.705   3.408  52.347  1.00  0.00    -0.377 N 
HETATM    4  H3  UNL     1      25.461   3.699  51.676  1.00  0.00     0.161 HD
BRANCH   3   5
HETATM    5  C2  UNL     1      23.738   4.369  51.997  1.00  0.00     0.087 C 
HETATM    6  C1  UNL     1      22.442   4.220  52.196  1.00  0.00     0.063 C 
BRANCH   5   7
HETATM    7  N4  UNL     1      24.100   5.613  51.372  1.00  0.00    -0.365 N 
HETATM    8  H19 UNL     1      24.178   5.115  50.435  1.00  0.00     0.162 HD
BRANCH   7   9
HETATM    9  C17 UNL     1      24.401   7.050  51.299  1.00  0.00     0.134 A 
HETATM   10  C18 UNL     1      23.477   7.849  50.559  1.00  0.00     0.040 A 
HETATM   11  C19 UNL     1      24.172   8.183  49.540  1.00  0.00     0.167 A 
HETATM   12  S1  UNL     1      25.614   7.337  50.021  1.00  0.00    -0.214 SA
ENDBRANCH   7   9
ENDBRANCH   5   7
ENDBRANCH   3   5
ENDBRANCH   2   3
ENDBRANCH   1   2
BRANCH   1  13
HETATM   13  C5  UNL     1      25.961   0.226  52.514  1.00  0.00     0.049 C 
BRANCH  13  14
HETATM   14  C6  UNL     1      27.103   1.149  52.417  1.00  0.00     0.391 C 
HETATM   15  O1  UNL     1      27.661   2.190  52.115  1.00  0.00    -0.430 OA
ENDBRANCH  13  14
ENDBRANCH   1  13
BRANCH   1  16
HETATM   16  C7  UNL     1      23.825   0.067  53.600  1.00  0.00     0.054 A 
HETATM   17  N2  UNL     1      24.330  -0.645  54.625  1.00  0.00    -0.245 NA
HETATM   18  C8  UNL     1      23.596  -1.467  55.413  1.00  0.00     0.234 A 
HETATM   19  N3  UNL     1      22.269  -1.602  55.179  1.00  0.00    -0.241 NA
HETATM   20  C9  UNL     1      21.685  -0.926  54.173  1.00  0.00     0.073 A 
HETATM   21  C10 UNL     1      20.331  -1.041  53.917  1.00  0.00     0.072 A 
HETATM   22  C16 UNL     1      22.449  -0.087  53.374  1.00  0.00     0.021 A 
HETATM   23  C11 UNL     1      19.690  -0.364  52.903  1.00  0.00     0.103 A 
HETATM   24  C13 UNL     1      20.455   0.484  52.093  1.00  0.00     0.102 A 
HETATM   25  C15 UNL     1      21.799   0.584  52.364  1.00  0.00     0.055 A 
BRANCH  23  26
HETATM   26  O2  UNL     1      18.334  -0.452  52.610  1.00  0.00    -0.353 OA
HETATM   27  C12 UNL     1      17.532  -1.433  53.254  1.00  0.00     0.210 C 
ENDBRANCH  23  26
BRANCH  24  28
HETATM   28  O3  UNL     1      19.856   1.187  51.056  1.00  0.00    -0.353 OA
HETATM   29  C14 UNL     1      20.524   1.172  49.791  1.00  0.00     0.210 C 
ENDBRANCH  24  28
ENDBRANCH   1  16
TORSDOF 10
ENDMDL
MODEL 7
REMARK VINA RESULT:      -6.7      2.191      5.262
REMARK  10 active torsions:
REMARK  status: ('A' for Active; 'I' for Inactive)
REMARK    1  A    between atoms: C2_2  and  N1_3 
REMARK    2  A    between atoms: C2_2  and  N4_23 
REMARK    3  A    between atoms: N1_3  and  C3_4 
REMARK    4  A    between atoms: C3_4  and  C4_5 
REMARK    5  A    between atoms: C4_5  and  C5_6 
REMARK    6  A    between atoms: C4_5  and  C7_9 
REMARK    7  A    between atoms: C5_6  and  C6_7 
REMARK    8  A    between atoms: C11_15  and  O2_16 
REMARK    9  A    between atoms: C13_18  and  O3_19 
REMARK   10  A    between atoms: N4_23  and  C17_24 
ROOT
HETATM    1  C4  UNL     1      21.773   1.688  51.992  1.00  0.00     0.059 C 
ENDROOT
BRANCH   1   2
HETATM    2  C3  UNL     1      21.472   1.102  50.668  1.00  0.00     0.132 C 
BRANCH   2   3
HETATM    3  N1  UNL     1      22.310   1.480  49.581  1.00  0.00    -0.377 N 
HETATM    4  H3  UNL     1      23.049   0.878  49.136  1.00  0.00     0.161 HD
BRANCH   3   5
HETATM    5  C2  UNL     1      22.475   2.630  48.786  1.00  0.00     0.087 C 
HETATM    6  C1  UNL     1      22.242   2.671  47.488  1.00  0.00     0.063 C 
BRANCH   5   7
HETATM    7  N4  UNL     1      22.931   3.876  49.343  1.00  0.00    -0.365 N 
HETATM    8  H19 UNL     1      22.930   3.437  50.313  1.00  0.00     0.162 HD
BRANCH   7   9
HETATM    9  C17 UNL     1      23.355   5.284  49.336  1.00  0.00     0.134 A 
HETATM   10  C18 UNL     1      24.702   5.533  48.934  1.00  0.00     0.040 A 
HETATM   11  C19 UNL     1      25.238   5.919  50.027  1.00  0.00     0.167 A 
HETATM   12  S1  UNL     1      23.799   5.777  50.993  1.00  0.00    -0.214 SA
ENDBRANCH   7   9
ENDBRANCH   5   7
ENDBRANCH   3   5
ENDBRANCH   2   3
ENDBRANCH   1   2
BRANCH   1  13
HETATM   13  C5  UNL     1      20.605   2.435  52.637  1.00  0.00     0.049 C 
BRANCH  13  14
HETATM   14  C6  UNL     1      20.305   3.701  51.948  1.00  0.00     0.391 C 
HETATM   15  O1  UNL     1      20.347   4.492  51.022  1.00  0.00    -0.430 OA
ENDBRANCH  13  14
ENDBRANCH   1  13
BRANCH   1  16
HETATM   16  C7  UNL     1      22.228   0.704  53.000  1.00  0.00     0.054 A 
HETATM   17  N2  UNL     1      21.389   0.017  53.800  1.00  0.00    -0.245 NA
HETATM   18  C8  UNL     1      21.792  -0.886  54.725  1.00  0.00     0.234 A 
HETATM   19  N3  UNL     1      23.114  -1.135  54.881  1.00  0.00    -0.241 NA
HETATM   20  C9  UNL     1      24.020  -0.490  54.123  1.00  0.00     0.073 A 
HETATM   21  C10 UNL     1      25.375  -0.731  54.257  1.00  0.00     0.072 A 
HETATM   22  C16 UNL     1      23.593   0.432  53.178  1.00  0.00     0.021 A 
HETATM   23  C11 UNL     1      26.336  -0.099  53.499  1.00  0.00     0.103 A 
HETATM   24  C13 UNL     1      25.913   0.832  52.544  1.00  0.00     0.102 A 
HETATM   25  C15 UNL     1      24.561   1.057  52.426  1.00  0.00     0.055 A 
BRANCH  23  26
HETATM   26  O2  UNL     1      27.707  -0.310  53.603  1.00  0.00    -0.353 OA
HETATM   27  C12 UNL     1      28.393   0.065  54.789  1.00  0.00     0.210 C 
ENDBRANCH  23  26
BRANCH  24  28
HETATM   28  O3  UNL     1      26.843   1.497  51.756  1.00  0.00    -0.353 OA
HETATM   29  C14 UNL     1      26.347   2.520  50.889  1.00  0.00     0.210 C 
ENDBRANCH  24  28
ENDBRANCH   1  16
TORSDOF 10
ENDMDL
MODEL 8
REMARK VINA RESULT:      -6.6      2.474      5.932
REMARK  10 active torsions:
REMARK  status: ('A' for Active; 'I' for Inactive)
REMARK    1  A    between atoms: C2_2  and  N1_3 
REMARK    2  A    between atoms: C2_2  and  N4_23 
REMARK    3  A    between atoms: N1_3  and  C3_4 
REMARK    4  A    between atoms: C3_4  and  C4_5 
REMARK    5  A    between atoms: C4_5  and  C5_6 
REMARK    6  A    between atoms: C4_5  and  C7_9 
REMARK    7  A    between atoms: C5_6  and  C6_7 
REMARK    8  A    between atoms: C11_15  and  O2_16 
REMARK    9  A    between atoms: C13_18  and  O3_19 
REMARK   10  A    between atoms: N4_23  and  C17_24 
ROOT
HETATM    1  C4  UNL     1      22.923   2.221  52.376  1.00  0.00     0.059 C 
ENDROOT
BRANCH   1   2
HETATM    2  C3  UNL     1      22.204   3.506  52.520  1.00  0.00     0.132 C 
BRANCH   2   3
HETATM    3  N1  UNL     1      21.587   4.042  51.355  1.00  0.00    -0.377 N 
HETATM    4  H3  UNL     1      20.731   3.656  50.880  1.00  0.00     0.161 HD
BRANCH   3   5
HETATM    5  C2  UNL     1      21.828   5.129  50.493  1.00  0.00     0.087 C 
HETATM    6  C1  UNL     1      21.417   6.361  50.724  1.00  0.00     0.063 C 
BRANCH   5   7
HETATM    7  N4  UNL     1      22.553   4.970  49.261  1.00  0.00    -0.365 N 
HETATM    8  H19 UNL     1      23.283   5.663  49.604  1.00  0.00     0.162 HD
BRANCH   7   9
HETATM    9  C17 UNL     1      22.831   4.443  47.916  1.00  0.00     0.134 A 
HETATM   10  C18 UNL     1      21.836   4.695  46.924  1.00  0.00     0.040 A 
HETATM   11  C19 UNL     1      21.365   3.525  46.717  1.00  0.00     0.167 A 
HETATM   12  S1  UNL     1      22.397   2.712  47.857  1.00  0.00    -0.214 SA
ENDBRANCH   7   9
ENDBRANCH   5   7
ENDBRANCH   3   5
ENDBRANCH   2   3
ENDBRANCH   1   2
BRANCH   1  13
HETATM   13  C5  UNL     1      22.265   1.230  51.415  1.00  0.00     0.049 C 
BRANCH  13  14
HETATM   14  C6  UNL     1      21.795   0.016  52.103  1.00  0.00     0.391 C 
HETATM   15  O1  UNL     1      21.766  -0.801  53.006  1.00  0.00    -0.430 OA
ENDBRANCH  13  14
ENDBRANCH   1  13
BRANCH   1  16
HETATM   16  C7  UNL     1      24.323   2.359  51.916  1.00  0.00     0.054 A 
HETATM   17  N2  UNL     1      24.698   3.170  50.907  1.00  0.00    -0.245 NA
HETATM   18  C8  UNL     1      25.975   3.305  50.477  1.00  0.00     0.234 A 
HETATM   19  N3  UNL     1      26.959   2.595  51.078  1.00  0.00    -0.241 NA
HETATM   20  C9  UNL     1      26.670   1.761  52.093  1.00  0.00     0.073 A 
HETATM   21  C10 UNL     1      27.657   1.030  52.728  1.00  0.00     0.072 A 
HETATM   22  C16 UNL     1      25.357   1.632  52.525  1.00  0.00     0.021 A 
HETATM   23  C11 UNL     1      27.408   0.169  53.775  1.00  0.00     0.103 A 
HETATM   24  C13 UNL     1      26.086   0.034  54.215  1.00  0.00     0.102 A 
HETATM   25  C15 UNL     1      25.120   0.770  53.571  1.00  0.00     0.055 A 
BRANCH  23  26
HETATM   26  O2  UNL     1      28.368  -0.586  54.439  1.00  0.00    -0.353 OA
HETATM   27  C12 UNL     1      29.611  -0.865  53.810  1.00  0.00     0.210 C 
ENDBRANCH  23  26
BRANCH  24  28
HETATM   28  O3  UNL     1      25.783  -0.822  55.266  1.00  0.00    -0.353 OA
HETATM   29  C14 UNL     1      24.412  -1.199  55.422  1.00  0.00     0.210 C 
ENDBRANCH  24  28
ENDBRANCH   1  16
TORSDOF 10
ENDMDL
MODEL 9
REMARK VINA RESULT:      -6.4      3.533      5.416
REMARK  10 active torsions:
REMARK  status: ('A' for Active; 'I' for Inactive)
REMARK    1  A    between atoms: C2_2  and  N1_3 
REMARK    2  A    between atoms: C2_2  and  N4_23 
REMARK    3  A    between atoms: N1_3  and  C3_4 
REMARK    4  A    between atoms: C3_4  and  C4_5 
REMARK    5  A    between atoms: C4_5  and  C5_6 
REMARK    6  A    between atoms: C4_5  and  C7_9 
REMARK    7  A    between atoms: C5_6  and  C6_7 
REMARK    8  A    between atoms: C11_15  and  O2_16 
REMARK    9  A    between atoms: C13_18  and  O3_19 
REMARK   10  A    between atoms: N4_23  and  C17_24 
ROOT
HETATM    1  C4  UNL     1      23.674   4.009  50.603  1.00  0.00     0.059 C 
ENDROOT
BRANCH   1   2
HETATM    2  C3  UNL     1      24.055   5.387  50.984  1.00  0.00     0.132 C 
BRANCH   2   3
HETATM    3  N1  UNL     1      25.376   5.809  50.663  1.00  0.00    -0.377 N 
HETATM    4  H3  UNL     1      26.254   5.514  51.163  1.00  0.00     0.161 HD
BRANCH   3   5
HETATM    5  C2  UNL     1      25.960   6.662  49.707  1.00  0.00     0.087 C 
HETATM    6  C1  UNL     1      25.801   6.529  48.404  1.00  0.00     0.063 C 
BRANCH   5   7
HETATM    7  N4  UNL     1      26.803   7.763  50.090  1.00  0.00    -0.365 N 
HETATM    8  H19 UNL     1      27.457   7.085  50.585  1.00  0.00     0.162 HD
BRANCH   7   9
HETATM    9  C17 UNL     1      27.232   9.166  50.182  1.00  0.00     0.134 A 
HETATM   10  C18 UNL     1      26.673  10.060  49.219  1.00  0.00     0.040 A 
HETATM   11  C19 UNL     1      27.687  10.340  48.495  1.00  0.00     0.167 A 
HETATM   12  S1  UNL     1      28.816   9.354  49.378  1.00  0.00    -0.214 SA
ENDBRANCH   7   9
ENDBRANCH   5   7
ENDBRANCH   3   5
ENDBRANCH   2   3
ENDBRANCH   1   2
BRANCH   1  13
HETATM   13  C5  UNL     1      23.581   3.769  49.095  1.00  0.00     0.049 C 
BRANCH  13  14
HETATM   14  C6  UNL     1      22.621   4.677  48.446  1.00  0.00     0.391 C 
HETATM   15  O1  UNL     1      22.244   5.740  47.984  1.00  0.00    -0.430 OA
ENDBRANCH  13  14
ENDBRANCH   1  13
BRANCH   1  16
HETATM   16  C7  UNL     1      24.585   2.964  51.122  1.00  0.00     0.054 A 
HETATM   17  N2  UNL     1      25.915   2.964  50.907  1.00  0.00    -0.245 NA
HETATM   18  C8  UNL     1      26.759   2.014  51.377  1.00  0.00     0.234 A 
HETATM   19  N3  UNL     1      26.266   0.988  52.109  1.00  0.00    -0.241 NA
HETATM   20  C9  UNL     1      24.948   0.911  52.369  1.00  0.00     0.073 A 
HETATM   21  C10 UNL     1      24.419  -0.122  53.120  1.00  0.00     0.072 A 
HETATM   22  C16 UNL     1      24.094   1.892  51.882  1.00  0.00     0.021 A 
HETATM   23  C11 UNL     1      23.078  -0.237  53.415  1.00  0.00     0.103 A 
HETATM   24  C13 UNL     1      22.211   0.748  52.928  1.00  0.00     0.102 A 
HETATM   25  C15 UNL     1      22.757   1.768  52.183  1.00  0.00     0.055 A 
BRANCH  23  26
HETATM   26  O2  UNL     1      22.506  -1.259  54.163  1.00  0.00    -0.353 OA
HETATM   27  C12 UNL     1      22.946  -1.496  55.493  1.00  0.00     0.210 C 
ENDBRANCH  23  26
BRANCH  24  28
HETATM   28  O3  UNL     1      20.851   0.677  53.196  1.00  0.00    -0.353 OA
HETATM   29  C14 UNL     1      19.976   0.513  52.076  1.00  0.00     0.210 C 
ENDBRANCH  24  28
ENDBRANCH   1  16
TORSDOF 10
ENDMDL
