MODEL 1
REMARK VINA RESULT:      -8.2      0.000      0.000
REMARK  8 active torsions:
REMARK  status: ('A' for Active; 'I' for Inactive)
REMARK    1  A    between atoms: C3_3  and  C5_5 
REMARK    2  A    between atoms: C5_5  and  C6_6 
REMARK    3  A    between atoms: C6_6  and  C7_7 
REMARK    4  A    between atoms: C7_7  and  C8_8 
REMARK    5  A    between atoms: C8_8  and  N1_10 
REMARK    6  A    between atoms: N1_10  and  C10_11 
REMARK    7  A    between atoms: N2_14  and  C13_15 
REMARK    8  A    between atoms: C16_19  and  C17_20 
ROOT
HETATM    1  C1  UNL     1      27.089   8.286  46.555  1.00  0.00     0.097 C 
HETATM    2  C2  UNL     1      27.998   7.698  47.294  1.00  0.00    -0.148 C 
HETATM    3  C3  UNL     1      28.842   7.081  48.094  1.00  0.00    -0.021 C 
HETATM    4  C4  UNL     1      29.901   7.969  48.604  1.00  0.00     0.057 C 
ENDROOT
BRANCH   3   5
HETATM    5  C5  UNL     1      28.579   5.685  48.312  1.00  0.00     0.011 C 
BRANCH   5   6
HETATM    6  C6  UNL     1      27.539   4.919  48.586  1.00  0.00    -0.020 C 
BRANCH   6   7
HETATM    7  C7  UNL     1      26.342   4.806  49.428  1.00  0.00     0.083 C 
BRANCH   7   8
HETATM    8  C8  UNL     1      25.349   5.890  49.220  1.00  0.00    -0.001 C 
HETATM    9  C9  UNL     1      25.048   7.167  49.372  1.00  0.00     0.038 C 
BRANCH   8  10
HETATM   10  N1  UNL     1      24.184   5.391  48.575  1.00  0.00    -0.382 N 
HETATM   11  H12 UNL     1      24.348   5.532  47.557  1.00  0.00     0.160 HD
BRANCH  10  12
HETATM   12  C10 UNL     1      22.978   4.793  49.158  1.00  0.00     0.131 A 
HETATM   13  C11 UNL     1      22.997   3.363  48.770  1.00  0.00     0.020 A 
HETATM   14  C12 UNL     1      23.155   2.301  49.538  1.00  0.00     0.113 A 
HETATM   15  N2  UNL     1      23.330   2.570  50.921  1.00  0.00    -0.159 N 
HETATM   16  C22 UNL     1      23.341   3.875  51.485  1.00  0.00     0.028 A 
HETATM   17  C23 UNL     1      23.525   4.135  52.935  1.00  0.00     0.069 C 
HETATM   18  C24 UNL     1      23.174   4.872  50.629  1.00  0.00     0.027 A 
BRANCH  15  19
HETATM   19  C13 UNL     1      23.506   1.477  51.804  1.00  0.00     0.733 A 
HETATM   20  N3  UNL     1      22.462   0.724  52.184  1.00  0.00    -0.074 NA
HETATM   21  C14 UNL     1      22.674  -0.305  53.023  1.00  0.00     0.139 A 
HETATM   22  C15 UNL     1      23.960  -0.558  53.473  1.00  0.00     0.053 A 
HETATM   23  C16 UNL     1      25.030   0.218  53.081  1.00  0.00     0.089 A 
HETATM   24  N5  UNL     1      24.754   1.231  52.240  1.00  0.00    -0.062 NA
BRANCH  23  25
HETATM   25  C17 UNL     1      26.408   0.015  53.509  1.00  0.00     0.011 A 
HETATM   26  C18 UNL     1      27.161  -0.897  52.799  1.00  0.00     0.017 A 
HETATM   27  C19 UNL     1      28.466  -1.081  53.213  1.00  0.00     0.020 A 
HETATM   28  C20 UNL     1      29.035  -0.411  54.276  1.00  0.00     0.116 A 
HETATM   29  N4  UNL     1      28.245   0.474  54.937  1.00  0.00    -0.272 NA
HETATM   30  C21 UNL     1      26.968   0.689  54.573  1.00  0.00     0.130 A 
ENDBRANCH  23  25
ENDBRANCH  15  19
ENDBRANCH  10  12
ENDBRANCH   8  10
ENDBRANCH   7   8
ENDBRANCH   6   7
ENDBRANCH   5   6
ENDBRANCH   3   5
TORSDOF 8
ENDMDL
MODEL 2
REMARK VINA RESULT:      -7.5      2.188      8.113
REMARK  8 active torsions:
REMARK  status: ('A' for Active; 'I' for Inactive)
REMARK    1  A    between atoms: C3_3  and  C5_5 
REMARK    2  A    between atoms: C5_5  and  C6_6 
REMARK    3  A    between atoms: C6_6  and  C7_7 
REMARK    4  A    between atoms: C7_7  and  C8_8 
REMARK    5  A    between atoms: C8_8  and  N1_10 
REMARK    6  A    between atoms: N1_10  and  C10_11 
REMARK    7  A    between atoms: N2_14  and  C13_15 
REMARK    8  A    between atoms: C16_19  and  C17_20 
ROOT
HETATM    1  C1  UNL     1      20.702   1.219  52.705  1.00  0.00     0.097 C 
HETATM    2  C2  UNL     1      21.525   0.333  53.210  1.00  0.00    -0.148 C 
HETATM    3  C3  UNL     1      22.370  -0.585  53.631  1.00  0.00    -0.021 C 
HETATM    4  C4  UNL     1      21.759  -1.537  54.574  1.00  0.00     0.057 C 
ENDROOT
BRANCH   3   5
HETATM    5  C5  UNL     1      23.703  -0.485  53.103  1.00  0.00     0.011 C 
BRANCH   5   6
HETATM    6  C6  UNL     1      24.933  -0.757  53.499  1.00  0.00    -0.020 C 
BRANCH   6   7
HETATM    7  C7  UNL     1      26.257  -1.189  53.035  1.00  0.00     0.083 C 
BRANCH   7   8
HETATM    8  C8  UNL     1      27.387  -0.447  53.649  1.00  0.00    -0.001 C 
HETATM    9  C9  UNL     1      28.672  -0.430  53.952  1.00  0.00     0.038 C 
BRANCH   8  10
HETATM   10  N1  UNL     1      26.952   0.810  54.153  1.00  0.00    -0.382 N 
HETATM   11  H12 UNL     1      26.564   0.611  55.099  1.00  0.00     0.160 HD
BRANCH  10  12
HETATM   12  C10 UNL     1      27.009   2.136  53.528  1.00  0.00     0.131 A 
HETATM   13  C11 UNL     1      27.218   1.902  52.080  1.00  0.00     0.020 A 
HETATM   14  C12 UNL     1      26.393   2.137  51.077  1.00  0.00     0.113 A 
HETATM   15  N2  UNL     1      25.137   2.690  51.440  1.00  0.00    -0.159 N 
HETATM   16  C22 UNL     1      24.751   2.986  52.776  1.00  0.00     0.028 A 
HETATM   17  C23 UNL     1      23.431   3.565  53.134  1.00  0.00     0.069 C 
HETATM   18  C24 UNL     1      25.651   2.712  53.708  1.00  0.00     0.027 A 
BRANCH  15  19
HETATM   19  C13 UNL     1      24.200   2.969  50.414  1.00  0.00     0.733 A 
HETATM   20  N3  UNL     1      23.226   2.096  50.116  1.00  0.00    -0.074 NA
HETATM   21  C14 UNL     1      22.358   2.401  49.135  1.00  0.00     0.139 A 
HETATM   22  C15 UNL     1      22.494   3.604  48.460  1.00  0.00     0.053 A 
HETATM   23  C16 UNL     1      23.497   4.498  48.769  1.00  0.00     0.089 A 
HETATM   24  N5  UNL     1      24.332   4.137  49.759  1.00  0.00    -0.062 NA
BRANCH  23  25
HETATM   25  C17 UNL     1      23.704   5.780  48.107  1.00  0.00     0.011 A 
HETATM   26  C18 UNL     1      22.760   6.172  47.182  1.00  0.00     0.017 A 
HETATM   27  C19 UNL     1      22.965   7.388  46.560  1.00  0.00     0.020 A 
HETATM   28  C20 UNL     1      24.045   8.208  46.818  1.00  0.00     0.116 A 
HETATM   29  N4  UNL     1      24.942   7.769  47.739  1.00  0.00    -0.272 NA
HETATM   30  C21 UNL     1      24.786   6.592  48.372  1.00  0.00     0.130 A 
ENDBRANCH  23  25
ENDBRANCH  15  19
ENDBRANCH  10  12
ENDBRANCH   8  10
ENDBRANCH   7   8
ENDBRANCH   6   7
ENDBRANCH   5   6
ENDBRANCH   3   5
TORSDOF 8
ENDMDL
MODEL 3
REMARK VINA RESULT:      -7.4      1.382      2.400
REMARK  8 active torsions:
REMARK  status: ('A' for Active; 'I' for Inactive)
REMARK    1  A    between atoms: C3_3  and  C5_5 
REMARK    2  A    between atoms: C5_5  and  C6_6 
REMARK    3  A    between atoms: C6_6  and  C7_7 
REMARK    4  A    between atoms: C7_7  and  C8_8 
REMARK    5  A    between atoms: C8_8  and  N1_10 
REMARK    6  A    between atoms: N1_10  and  C10_11 
REMARK    7  A    between atoms: N2_14  and  C13_15 
REMARK    8  A    between atoms: C16_19  and  C17_20 
ROOT
HETATM    1  C1  UNL     1      28.316   5.406  48.535  1.00  0.00     0.097 C 
HETATM    2  C2  UNL     1      28.058   6.574  47.997  1.00  0.00    -0.148 C 
HETATM    3  C3  UNL     1      27.718   7.711  47.427  1.00  0.00    -0.021 C 
HETATM    4  C4  UNL     1      28.702   8.169  46.431  1.00  0.00     0.057 C 
ENDROOT
BRANCH   3   5
HETATM    5  C5  UNL     1      26.478   8.281  47.877  1.00  0.00     0.011 C 
BRANCH   5   6
HETATM    6  C6  UNL     1      25.205   7.934  47.928  1.00  0.00    -0.020 C 
BRANCH   6   7
HETATM    7  C7  UNL     1      23.977   8.054  48.722  1.00  0.00     0.083 C 
BRANCH   7   8
HETATM    8  C8  UNL     1      22.960   7.014  48.429  1.00  0.00    -0.001 C 
HETATM    9  C9  UNL     1      21.884   6.672  47.744  1.00  0.00     0.038 C 
BRANCH   8  10
HETATM   10  N1  UNL     1      23.198   5.842  49.201  1.00  0.00    -0.382 N 
HETATM   11  H12 UNL     1      22.640   5.965  50.071  1.00  0.00     0.160 HD
BRANCH  10  12
HETATM   12  C10 UNL     1      24.036   4.678  48.895  1.00  0.00     0.131 A 
HETATM   13  C11 UNL     1      25.002   4.559  50.013  1.00  0.00     0.020 A 
HETATM   14  C12 UNL     1      25.090   3.616  50.932  1.00  0.00     0.113 A 
HETATM   15  N2  UNL     1      24.128   2.576  50.832  1.00  0.00    -0.159 N 
HETATM   16  C22 UNL     1      23.122   2.515  49.830  1.00  0.00     0.028 A 
HETATM   17  C23 UNL     1      22.125   1.418  49.742  1.00  0.00     0.069 C 
HETATM   18  C24 UNL     1      23.119   3.510  48.955  1.00  0.00     0.027 A 
BRANCH  15  19
HETATM   19  C13 UNL     1      24.164   1.530  51.786  1.00  0.00     0.733 A 
HETATM   20  N3  UNL     1      23.062   1.184  52.469  1.00  0.00    -0.074 NA
HETATM   21  C14 UNL     1      23.141   0.184  53.365  1.00  0.00     0.139 A 
HETATM   22  C15 UNL     1      24.353  -0.458  53.558  1.00  0.00     0.053 A 
HETATM   23  C16 UNL     1      25.483  -0.100  52.855  1.00  0.00     0.089 A 
HETATM   24  N5  UNL     1      25.341   0.906  51.973  1.00  0.00    -0.062 NA
BRANCH  23  25
HETATM   25  C17 UNL     1      26.791  -0.727  53.002  1.00  0.00     0.011 A 
HETATM   26  C18 UNL     1      27.859   0.100  53.281  1.00  0.00     0.017 A 
HETATM   27  C19 UNL     1      29.093  -0.505  53.419  1.00  0.00     0.020 A 
HETATM   28  C20 UNL     1      29.299  -1.863  53.294  1.00  0.00     0.116 A 
HETATM   29  N4  UNL     1      28.210  -2.626  53.018  1.00  0.00    -0.272 NA
HETATM   30  C21 UNL     1      26.986  -2.085  52.875  1.00  0.00     0.130 A 
ENDBRANCH  23  25
ENDBRANCH  15  19
ENDBRANCH  10  12
ENDBRANCH   8  10
ENDBRANCH   7   8
ENDBRANCH   6   7
ENDBRANCH   5   6
ENDBRANCH   3   5
TORSDOF 8
ENDMDL
MODEL 4
REMARK VINA RESULT:      -7.4      1.979      8.158
REMARK  8 active torsions:
REMARK  status: ('A' for Active; 'I' for Inactive)
REMARK    1  A    between atoms: C3_3  and  C5_5 
REMARK    2  A    between atoms: C5_5  and  C6_6 
REMARK    3  A    between atoms: C6_6  and  C7_7 
REMARK    4  A    between atoms: C7_7  and  C8_8 
REMARK    5  A    between atoms: C8_8  and  N1_10 
REMARK    6  A    between atoms: N1_10  and  C10_11 
REMARK    7  A    between atoms: N2_14  and  C13_15 
REMARK    8  A    between atoms: C16_19  and  C17_20 
ROOT
HETATM    1  C1  UNL     1      26.782  -1.953  52.036  1.00  0.00     0.097 C 
HETATM    2  C2  UNL     1      26.464  -1.137  53.012  1.00  0.00    -0.148 C 
HETATM    3  C3  UNL     1      26.106  -0.262  53.928  1.00  0.00    -0.021 C 
HETATM    4  C4  UNL     1      27.244   0.240  54.717  1.00  0.00     0.057 C 
ENDROOT
BRANCH   3   5
HETATM    5  C5  UNL     1      24.700   0.031  53.986  1.00  0.00     0.011 C 
BRANCH   5   6
HETATM    6  C6  UNL     1      23.574  -0.496  53.542  1.00  0.00    -0.020 C 
BRANCH   6   7
HETATM    7  C7  UNL     1      22.229  -0.923  53.945  1.00  0.00     0.083 C 
BRANCH   7   8
HETATM    8  C8  UNL     1      21.136  -0.341  53.127  1.00  0.00    -0.001 C 
HETATM    9  C9  UNL     1      19.836  -0.203  52.945  1.00  0.00     0.038 C 
BRANCH   8  10
HETATM   10  N1  UNL     1      21.664   0.413  52.042  1.00  0.00    -0.382 N 
HETATM   11  H12 UNL     1      22.266  -0.249  51.511  1.00  0.00     0.160 HD
BRANCH  10  12
HETATM   12  C10 UNL     1      21.446   1.820  51.691  1.00  0.00     0.131 A 
HETATM   13  C11 UNL     1      22.484   2.592  52.414  1.00  0.00     0.020 A 
HETATM   14  C12 UNL     1      23.509   3.261  51.921  1.00  0.00     0.113 A 
HETATM   15  N2  UNL     1      23.629   3.236  50.507  1.00  0.00    -0.159 N 
HETATM   16  C22 UNL     1      22.733   2.551  49.642  1.00  0.00     0.028 A 
HETATM   17  C23 UNL     1      22.876   2.538  48.164  1.00  0.00     0.069 C 
HETATM   18  C24 UNL     1      21.737   1.910  50.236  1.00  0.00     0.027 A 
BRANCH  15  19
HETATM   19  C13 UNL     1      24.707   3.934  49.909  1.00  0.00     0.733 A 
HETATM   20  N3  UNL     1      25.923   3.374  49.817  1.00  0.00    -0.074 NA
HETATM   21  C14 UNL     1      26.918   4.072  49.241  1.00  0.00     0.139 A 
HETATM   22  C15 UNL     1      26.662   5.346  48.761  1.00  0.00     0.053 A 
HETATM   23  C16 UNL     1      25.411   5.918  48.858  1.00  0.00     0.089 A 
HETATM   24  N5  UNL     1      24.459   5.171  49.442  1.00  0.00    -0.062 NA
BRANCH  23  25
HETATM   25  C17 UNL     1      25.065   7.250  48.377  1.00  0.00     0.011 A 
HETATM   26  C18 UNL     1      26.094   8.039  47.909  1.00  0.00     0.017 A 
HETATM   27  C19 UNL     1      25.754   9.299  47.455  1.00  0.00     0.020 A 
HETATM   28  C20 UNL     1      24.465   9.789  47.448  1.00  0.00     0.116 A 
HETATM   29  N4  UNL     1      23.493   8.966  47.921  1.00  0.00    -0.272 NA
HETATM   30  C21 UNL     1      23.773   7.731  48.374  1.00  0.00     0.130 A 
ENDBRANCH  23  25
ENDBRANCH  15  19
ENDBRANCH  10  12
ENDBRANCH   8  10
ENDBRANCH   7   8
ENDBRANCH   6   7
ENDBRANCH   5   6
ENDBRANCH   3   5
TORSDOF 8
ENDMDL
MODEL 5
REMARK VINA RESULT:      -7.3      2.411      3.295
REMARK  8 active torsions:
REMARK  status: ('A' for Active; 'I' for Inactive)
REMARK    1  A    between atoms: C3_3  and  C5_5 
REMARK    2  A    between atoms: C5_5  and  C6_6 
REMARK    3  A    between atoms: C6_6  and  C7_7 
REMARK    4  A    between atoms: C7_7  and  C8_8 
REMARK    5  A    between atoms: C8_8  and  N1_10 
REMARK    6  A    between atoms: N1_10  and  C10_11 
REMARK    7  A    between atoms: N2_14  and  C13_15 
REMARK    8  A    between atoms: C16_19  and  C17_20 
ROOT
HETATM    1  C1  UNL     1      21.633   7.343  50.791  1.00  0.00     0.097 C 
HETATM    2  C2  UNL     1      22.847   7.319  50.296  1.00  0.00    -0.148 C 
HETATM    3  C3  UNL     1      24.046   7.211  49.762  1.00  0.00    -0.021 C 
HETATM    4  C4  UNL     1      25.127   7.301  50.758  1.00  0.00     0.057 C 
ENDROOT
BRANCH   3   5
HETATM    5  C5  UNL     1      24.072   7.033  48.336  1.00  0.00     0.011 C 
BRANCH   5   6
HETATM    6  C6  UNL     1      23.378   6.383  47.420  1.00  0.00    -0.020 C 
BRANCH   6   7
HETATM    7  C7  UNL     1      22.017   6.048  46.986  1.00  0.00     0.083 C 
BRANCH   7   8
HETATM    8  C8  UNL     1      21.868   4.665  46.467  1.00  0.00    -0.001 C 
HETATM    9  C9  UNL     1      21.606   3.887  45.433  1.00  0.00     0.038 C 
BRANCH   8  10
HETATM   10  N1  UNL     1      22.100   3.712  47.497  1.00  0.00    -0.382 N 
HETATM   11  H12 UNL     1      23.086   3.402  47.373  1.00  0.00     0.160 HD
BRANCH  10  12
HETATM   12  C10 UNL     1      21.190   3.227  48.541  1.00  0.00     0.131 A 
HETATM   13  C11 UNL     1      21.366   1.756  48.591  1.00  0.00     0.020 A 
HETATM   14  C12 UNL     1      21.885   1.019  49.555  1.00  0.00     0.113 A 
HETATM   15  N2  UNL     1      22.333   1.736  50.696  1.00  0.00    -0.159 N 
HETATM   16  C22 UNL     1      22.249   3.148  50.834  1.00  0.00     0.028 A 
HETATM   17  C23 UNL     1      22.723   3.879  52.037  1.00  0.00     0.069 C 
HETATM   18  C24 UNL     1      21.712   3.795  49.811  1.00  0.00     0.027 A 
BRANCH  15  19
HETATM   19  C13 UNL     1      22.902   1.008  51.770  1.00  0.00     0.733 A 
HETATM   20  N3  UNL     1      22.134   0.258  52.576  1.00  0.00    -0.074 NA
HETATM   21  C14 UNL     1      22.716  -0.417  53.583  1.00  0.00     0.139 A 
HETATM   22  C15 UNL     1      24.086  -0.319  53.762  1.00  0.00     0.053 A 
HETATM   23  C16 UNL     1      24.871   0.453  52.932  1.00  0.00     0.089 A 
HETATM   24  N5  UNL     1      24.232   1.102  51.943  1.00  0.00    -0.062 NA
BRANCH  23  25
HETATM   25  C17 UNL     1      26.316   0.605  53.055  1.00  0.00     0.011 A 
HETATM   26  C18 UNL     1      27.043  -0.521  53.377  1.00  0.00     0.017 A 
HETATM   27  C19 UNL     1      28.411  -0.366  53.491  1.00  0.00     0.020 A 
HETATM   28  C20 UNL     1      29.065   0.834  53.300  1.00  0.00     0.116 A 
HETATM   29  N4  UNL     1      28.296   1.908  52.985  1.00  0.00    -0.272 NA
HETATM   30  C21 UNL     1      26.960   1.809  52.863  1.00  0.00     0.130 A 
ENDBRANCH  23  25
ENDBRANCH  15  19
ENDBRANCH  10  12
ENDBRANCH   8  10
ENDBRANCH   7   8
ENDBRANCH   6   7
ENDBRANCH   5   6
ENDBRANCH   3   5
TORSDOF 8
ENDMDL
MODEL 6
REMARK VINA RESULT:      -7.2      2.303      7.960
REMARK  8 active torsions:
REMARK  status: ('A' for Active; 'I' for Inactive)
REMARK    1  A    between atoms: C3_3  and  C5_5 
REMARK    2  A    between atoms: C5_5  and  C6_6 
REMARK    3  A    between atoms: C6_6  and  C7_7 
REMARK    4  A    between atoms: C7_7  and  C8_8 
REMARK    5  A    between atoms: C8_8  and  N1_10 
REMARK    6  A    between atoms: N1_10  and  C10_11 
REMARK    7  A    between atoms: N2_14  and  C13_15 
REMARK    8  A    between atoms: C16_19  and  C17_20 
ROOT
HETATM    1  C1  UNL     1      27.760  -2.539  52.633  1.00  0.00     0.097 C 
HETATM    2  C2  UNL     1      28.366  -1.564  53.267  1.00  0.00    -0.148 C 
HETATM    3  C3  UNL     1      28.915  -0.527  53.862  1.00  0.00    -0.021 C 
HETATM    4  C4  UNL     1      30.357  -0.406  53.588  1.00  0.00     0.057 C 
ENDROOT
BRANCH   3   5
HETATM    5  C5  UNL     1      28.022   0.275  54.653  1.00  0.00     0.011 C 
BRANCH   5   6
HETATM    6  C6  UNL     1      26.731   0.550  54.692  1.00  0.00    -0.020 C 
BRANCH   6   7
HETATM    7  C7  UNL     1      25.583   0.954  53.872  1.00  0.00     0.083 C 
BRANCH   7   8
HETATM    8  C8  UNL     1      25.951   1.541  52.559  1.00  0.00    -0.001 C 
HETATM    9  C9  UNL     1      26.861   2.167  51.837  1.00  0.00     0.038 C 
BRANCH   8  10
HETATM   10  N1  UNL     1      24.888   1.393  51.625  1.00  0.00    -0.382 N 
HETATM   11  H12 UNL     1      25.269   0.793  50.864  1.00  0.00     0.160 HD
BRANCH  10  12
HETATM   12  C10 UNL     1      23.528   1.940  51.664  1.00  0.00     0.131 A 
HETATM   13  C11 UNL     1      23.585   3.126  52.551  1.00  0.00     0.020 A 
HETATM   14  C12 UNL     1      23.432   4.399  52.239  1.00  0.00     0.113 A 
HETATM   15  N2  UNL     1      23.178   4.663  50.867  1.00  0.00    -0.159 N 
HETATM   16  C22 UNL     1      23.087   3.659  49.865  1.00  0.00     0.028 A 
HETATM   17  C23 UNL     1      22.820   3.956  48.435  1.00  0.00     0.069 C 
HETATM   18  C24 UNL     1      23.255   2.413  50.283  1.00  0.00     0.027 A 
BRANCH  15  19
HETATM   19  C13 UNL     1      23.004   6.008  50.460  1.00  0.00     0.733 A 
HETATM   20  N3  UNL     1      21.776   6.533  50.327  1.00  0.00    -0.074 NA
HETATM   21  C14 UNL     1      21.656   7.815  49.939  1.00  0.00     0.139 A 
HETATM   22  C15 UNL     1      22.800   8.556  49.686  1.00  0.00     0.053 A 
HETATM   23  C16 UNL     1      24.059   8.013  49.823  1.00  0.00     0.089 A 
HETATM   24  N5  UNL     1      24.114   6.728  50.215  1.00  0.00    -0.062 NA
BRANCH  23  25
HETATM   25  C17 UNL     1      25.306   8.726  49.576  1.00  0.00     0.011 A 
HETATM   26  C18 UNL     1      25.269   9.768  48.674  1.00  0.00     0.017 A 
HETATM   27  C19 UNL     1      26.456  10.438  48.448  1.00  0.00     0.020 A 
HETATM   28  C20 UNL     1      27.645  10.120  49.070  1.00  0.00     0.116 A 
HETATM   29  N4  UNL     1      27.620   9.085  49.949  1.00  0.00    -0.272 NA
HETATM   30  C21 UNL     1      26.490   8.401  50.203  1.00  0.00     0.130 A 
ENDBRANCH  23  25
ENDBRANCH  15  19
ENDBRANCH  10  12
ENDBRANCH   8  10
ENDBRANCH   7   8
ENDBRANCH   6   7
ENDBRANCH   5   6
ENDBRANCH   3   5
TORSDOF 8
ENDMDL
MODEL 7
REMARK VINA RESULT:      -7.1      3.055      7.467
REMARK  8 active torsions:
REMARK  status: ('A' for Active; 'I' for Inactive)
REMARK    1  A    between atoms: C3_3  and  C5_5 
REMARK    2  A    between atoms: C5_5  and  C6_6 
REMARK    3  A    between atoms: C6_6  and  C7_7 
REMARK    4  A    between atoms: C7_7  and  C8_8 
REMARK    5  A    between atoms: C8_8  and  N1_10 
REMARK    6  A    between atoms: N1_10  and  C10_11 
REMARK    7  A    between atoms: N2_14  and  C13_15 
REMARK    8  A    between atoms: C16_19  and  C17_20 
ROOT
HETATM    1  C1  UNL     1      24.947   3.393  49.930  1.00  0.00     0.097 C 
HETATM    2  C2  UNL     1      24.578   3.429  51.187  1.00  0.00    -0.148 C 
HETATM    3  C3  UNL     1      24.159   3.387  52.434  1.00  0.00    -0.021 C 
HETATM    4  C4  UNL     1      23.443   4.609  52.839  1.00  0.00     0.057 C 
ENDROOT
BRANCH   3   5
HETATM    5  C5  UNL     1      24.474   2.182  53.152  1.00  0.00     0.011 C 
BRANCH   5   6
HETATM    6  C6  UNL     1      24.618   0.897  52.886  1.00  0.00    -0.020 C 
BRANCH   6   7
HETATM    7  C7  UNL     1      24.031  -0.430  53.111  1.00  0.00     0.083 C 
BRANCH   7   8
HETATM    8  C8  UNL     1      22.775  -0.412  53.901  1.00  0.00    -0.001 C 
HETATM    9  C9  UNL     1      22.037  -0.991  54.830  1.00  0.00     0.038 C 
BRANCH   8  10
HETATM   10  N1  UNL     1      21.966   0.700  53.537  1.00  0.00    -0.382 N 
HETATM   11  H12 UNL     1      22.371   1.516  54.042  1.00  0.00     0.160 HD
BRANCH  10  12
HETATM   12  C10 UNL     1      20.800   0.756  52.649  1.00  0.00     0.131 A 
HETATM   13  C11 UNL     1      20.202   2.100  52.834  1.00  0.00     0.020 A 
HETATM   14  C12 UNL     1      20.139   3.101  51.977  1.00  0.00     0.113 A 
HETATM   15  N2  UNL     1      20.722   2.852  50.706  1.00  0.00    -0.159 N 
HETATM   16  C22 UNL     1      21.342   1.627  50.339  1.00  0.00     0.028 A 
HETATM   17  C23 UNL     1      21.946   1.387  49.004  1.00  0.00     0.069 C 
HETATM   18  C24 UNL     1      21.354   0.686  51.272  1.00  0.00     0.027 A 
BRANCH  15  19
HETATM   19  C13 UNL     1      20.690   3.884  49.736  1.00  0.00     0.733 A 
HETATM   20  N3  UNL     1      19.718   3.929  48.812  1.00  0.00    -0.074 NA
HETATM   21  C14 UNL     1      19.725   4.926  47.910  1.00  0.00     0.139 A 
HETATM   22  C15 UNL     1      20.734   5.875  47.958  1.00  0.00     0.053 A 
HETATM   23  C16 UNL     1      21.731   5.825  48.908  1.00  0.00     0.089 A 
HETATM   24  N5  UNL     1      21.668   4.805  49.782  1.00  0.00    -0.062 NA
BRANCH  23  25
HETATM   25  C17 UNL     1      22.822   6.784  49.023  1.00  0.00     0.011 A 
HETATM   26  C18 UNL     1      23.102   7.274  50.281  1.00  0.00     0.017 A 
HETATM   27  C19 UNL     1      24.138   8.182  50.379  1.00  0.00     0.020 A 
HETATM   28  C20 UNL     1      24.888   8.608  49.302  1.00  0.00     0.116 A 
HETATM   29  N4  UNL     1      24.566   8.091  48.088  1.00  0.00    -0.272 NA
HETATM   30  C21 UNL     1      23.566   7.204  47.940  1.00  0.00     0.130 A 
ENDBRANCH  23  25
ENDBRANCH  15  19
ENDBRANCH  10  12
ENDBRANCH   8  10
ENDBRANCH   7   8
ENDBRANCH   6   7
ENDBRANCH   5   6
ENDBRANCH   3   5
TORSDOF 8
ENDMDL
MODEL 8
REMARK VINA RESULT:      -7.0      2.719      9.513
REMARK  8 active torsions:
REMARK  status: ('A' for Active; 'I' for Inactive)
REMARK    1  A    between atoms: C3_3  and  C5_5 
REMARK    2  A    between atoms: C5_5  and  C6_6 
REMARK    3  A    between atoms: C6_6  and  C7_7 
REMARK    4  A    between atoms: C7_7  and  C8_8 
REMARK    5  A    between atoms: C8_8  and  N1_10 
REMARK    6  A    between atoms: N1_10  and  C10_11 
REMARK    7  A    between atoms: N2_14  and  C13_15 
REMARK    8  A    between atoms: C16_19  and  C17_20 
ROOT
HETATM    1  C1  UNL     1      26.968  -2.191  52.374  1.00  0.00     0.097 C 
HETATM    2  C2  UNL     1      27.785  -1.449  53.080  1.00  0.00    -0.148 C 
HETATM    3  C3  UNL     1      28.572  -0.630  53.746  1.00  0.00    -0.021 C 
HETATM    4  C4  UNL     1      30.000  -0.959  53.597  1.00  0.00     0.057 C 
ENDROOT
BRANCH   3   5
HETATM    5  C5  UNL     1      27.903   0.409  54.480  1.00  0.00     0.011 C 
BRANCH   5   6
HETATM    6  C6  UNL     1      26.987   1.332  54.251  1.00  0.00    -0.020 C 
BRANCH   6   7
HETATM    7  C7  UNL     1      26.640   2.463  53.382  1.00  0.00     0.083 C 
BRANCH   7   8
HETATM    8  C8  UNL     1      26.510   2.108  51.947  1.00  0.00    -0.001 C 
HETATM    9  C9  UNL     1      26.333   1.158  51.048  1.00  0.00     0.038 C 
BRANCH   8  10
HETATM   10  N1  UNL     1      26.615   3.267  51.128  1.00  0.00    -0.382 N 
HETATM   11  H12 UNL     1      27.062   3.991  51.728  1.00  0.00     0.160 HD
BRANCH  10  12
HETATM   12  C10 UNL     1      26.203   3.466  49.734  1.00  0.00     0.131 A 
HETATM   13  C11 UNL     1      24.943   4.245  49.783  1.00  0.00     0.020 A 
HETATM   14  C12 UNL     1      24.723   5.484  49.385  1.00  0.00     0.113 A 
HETATM   15  N2  UNL     1      25.847   6.157  48.836  1.00  0.00    -0.159 N 
HETATM   16  C22 UNL     1      27.138   5.577  48.706  1.00  0.00     0.028 A 
HETATM   17  C23 UNL     1      28.301   6.298  48.129  1.00  0.00     0.069 C 
HETATM   18  C24 UNL     1      27.254   4.329  49.135  1.00  0.00     0.027 A 
BRANCH  15  19
HETATM   19  C13 UNL     1      25.682   7.490  48.388  1.00  0.00     0.733 A 
HETATM   20  N3  UNL     1      25.777   8.520  49.243  1.00  0.00    -0.074 NA
HETATM   21  C14 UNL     1      25.615   9.770  48.775  1.00  0.00     0.139 A 
HETATM   22  C15 UNL     1      25.354   9.960  47.427  1.00  0.00     0.053 A 
HETATM   23  C16 UNL     1      25.256   8.899  46.552  1.00  0.00     0.089 A 
HETATM   24  N5  UNL     1      25.429   7.675  47.080  1.00  0.00    -0.062 NA
BRANCH  23  25
HETATM   25  C17 UNL     1      24.985   9.018  45.125  1.00  0.00     0.011 A 
HETATM   26  C18 UNL     1      24.265   8.003  44.533  1.00  0.00     0.017 A 
HETATM   27  C19 UNL     1      24.013   8.126  43.180  1.00  0.00     0.020 A 
HETATM   28  C20 UNL     1      24.438   9.192  42.416  1.00  0.00     0.116 A 
HETATM   29  N4  UNL     1      25.143  10.162  43.054  1.00  0.00    -0.272 NA
HETATM   30  C21 UNL     1      25.414  10.089  44.369  1.00  0.00     0.130 A 
ENDBRANCH  23  25
ENDBRANCH  15  19
ENDBRANCH  10  12
ENDBRANCH   8  10
ENDBRANCH   7   8
ENDBRANCH   6   7
ENDBRANCH   5   6
ENDBRANCH   3   5
TORSDOF 8
ENDMDL
MODEL 9
REMARK VINA RESULT:      -7.0      2.456      7.633
REMARK  8 active torsions:
REMARK  status: ('A' for Active; 'I' for Inactive)
REMARK    1  A    between atoms: C3_3  and  C5_5 
REMARK    2  A    between atoms: C5_5  and  C6_6 
REMARK    3  A    between atoms: C6_6  and  C7_7 
REMARK    4  A    between atoms: C7_7  and  C8_8 
REMARK    5  A    between atoms: C8_8  and  N1_10 
REMARK    6  A    between atoms: N1_10  and  C10_11 
REMARK    7  A    between atoms: N2_14  and  C13_15 
REMARK    8  A    between atoms: C16_19  and  C17_20 
ROOT
HETATM    1  C1  UNL     1      19.751   3.754  49.321  1.00  0.00     0.097 C 
HETATM    2  C2  UNL     1      20.551   2.724  49.197  1.00  0.00    -0.148 C 
HETATM    3  C3  UNL     1      21.386   1.706  49.157  1.00  0.00    -0.021 C 
HETATM    4  C4  UNL     1      22.333   1.785  48.033  1.00  0.00     0.057 C 
ENDROOT
BRANCH   3   5
HETATM    5  C5  UNL     1      21.216   0.728  50.197  1.00  0.00     0.011 C 
BRANCH   5   6
HETATM    6  C6  UNL     1      20.566   0.623  51.342  1.00  0.00    -0.020 C 
BRANCH   6   7
HETATM    7  C7  UNL     1      20.741   0.486  52.793  1.00  0.00     0.083 C 
BRANCH   7   8
HETATM    8  C8  UNL     1      22.092   0.027  53.201  1.00  0.00    -0.001 C 
HETATM    9  C9  UNL     1      22.813  -0.724  54.012  1.00  0.00     0.038 C 
BRANCH   8  10
HETATM   10  N1  UNL     1      23.096   0.633  52.396  1.00  0.00    -0.382 N 
HETATM   11  H12 UNL     1      23.097   0.097  51.503  1.00  0.00     0.160 HD
BRANCH  10  12
HETATM   12  C10 UNL     1      23.975   1.769  52.697  1.00  0.00     0.131 A 
HETATM   13  C11 UNL     1      24.955   1.839  51.587  1.00  0.00     0.020 A 
HETATM   14  C12 UNL     1      25.087   2.768  50.660  1.00  0.00     0.113 A 
HETATM   15  N2  UNL     1      24.164   3.844  50.740  1.00  0.00    -0.159 N 
HETATM   16  C22 UNL     1      23.152   3.954  51.732  1.00  0.00     0.028 A 
HETATM   17  C23 UNL     1      22.196   5.089  51.799  1.00  0.00     0.069 C 
HETATM   18  C24 UNL     1      23.104   2.969  52.616  1.00  0.00     0.027 A 
BRANCH  15  19
HETATM   19  C13 UNL     1      24.247   4.878  49.775  1.00  0.00     0.733 A 
HETATM   20  N3  UNL     1      23.311   5.008  48.823  1.00  0.00    -0.074 NA
HETATM   21  C14 UNL     1      23.429   6.004  47.928  1.00  0.00     0.139 A 
HETATM   22  C15 UNL     1      24.511   6.866  48.012  1.00  0.00     0.053 A 
HETATM   23  C16 UNL     1      25.471   6.728  48.991  1.00  0.00     0.089 A 
HETATM   24  N5  UNL     1      25.298   5.714  49.857  1.00  0.00    -0.062 NA
BRANCH  23  25
HETATM   25  C17 UNL     1      26.635   7.593  49.145  1.00  0.00     0.011 A 
HETATM   26  C18 UNL     1      26.554   8.599  50.084  1.00  0.00     0.017 A 
HETATM   27  C19 UNL     1      27.662   9.412  50.222  1.00  0.00     0.020 A 
HETATM   28  C20 UNL     1      28.817   9.265  49.482  1.00  0.00     0.116 A 
HETATM   29  N4  UNL     1      28.839   8.256  48.572  1.00  0.00    -0.272 NA
HETATM   30  C21 UNL     1      27.785   7.438  48.401  1.00  0.00     0.130 A 
ENDBRANCH  23  25
ENDBRANCH  15  19
ENDBRANCH  10  12
ENDBRANCH   8  10
ENDBRANCH   7   8
ENDBRANCH   6   7
ENDBRANCH   5   6
ENDBRANCH   3   5
TORSDOF 8
ENDMDL
