MODEL 1
REMARK VINA RESULT:      -7.7      0.000      0.000
REMARK  3 active torsions:
REMARK  status: ('A' for Active; 'I' for Inactive)
REMARK    1  A    between atoms: C2_3  and  C3_4 
REMARK    2  A    between atoms: C3_4  and  N2_5 
REMARK    3  A    between atoms: N2_5  and  C4_6 
ROOT
HETATM    1  N1  UNL     1      20.068   0.455  52.965  1.00  0.00    -0.197 NA
HETATM    2  C1  UNL     1      20.495  -0.449  53.515  1.00  0.00     0.060 C 
HETATM    3  C2  UNL     1      21.035  -1.626  54.225  1.00  0.00     0.143 C 
ENDROOT
BRANCH   3   4
HETATM    4  C3  UNL     1      22.366  -1.226  54.825  1.00  0.00     0.134 C 
BRANCH   4   5
HETATM    5  N2  UNL     1      23.127  -0.582  53.761  1.00  0.00    -0.392 N 
HETATM    6  H5  UNL     1      22.725  -0.405  52.789  1.00  0.00     0.159 HD
BRANCH   5   7
HETATM    7  C4  UNL     1      24.431  -0.091  53.759  1.00  0.00     0.014 C 
HETATM    8  C5  UNL     1      25.312  -0.673  54.677  1.00  0.00     0.020 C 
HETATM    9  C6  UNL     1      26.643  -0.213  54.728  1.00  0.00     0.179 C 
HETATM   10  N3  UNL     1      27.960  -0.028  54.734  1.00  0.00    -0.279 NA
HETATM   11  C7  UNL     1      28.450   1.006  54.072  1.00  0.00     0.228 C 
HETATM   12  N4  UNL     1      27.439   1.849  53.384  1.00  0.00    -0.237 NA
HETATM   13  C8  UNL     1      27.145   1.446  52.179  1.00  0.00     0.216 C 
HETATM   14  N5  UNL     1      26.212   2.218  51.540  1.00  0.00    -0.307 N 
HETATM   15  C9  UNL     1      24.931   1.661  51.876  1.00  0.00     0.041 A 
HETATM   16  C16 UNL     1      25.575   3.161  50.781  1.00  0.00     0.053 A 
HETATM   17  C10 UNL     1      24.181   0.821  52.650  1.00  0.00     0.102 C 
HETATM   18  C11 UNL     1      24.294   2.725  51.015  1.00  0.00     0.015 A 
HETATM   19  C12 UNL     1      23.385   3.514  50.355  1.00  0.00     0.017 A 
HETATM   20  C13 UNL     1      23.736   4.598  49.564  1.00  0.00     0.020 A 
HETATM   21  C14 UNL     1      25.083   4.956  49.394  1.00  0.00     0.013 A 
HETATM   22 BR1  UNL     1      25.507   6.461  48.307  1.00  0.00    -0.051 Br
HETATM   23  C15 UNL     1      26.060   4.179  50.049  1.00  0.00     0.050 A 
ENDBRANCH   5   7
ENDBRANCH   4   5
ENDBRANCH   3   4
TORSDOF 3
ENDMDL
MODEL 2
REMARK VINA RESULT:      -7.6      1.477      1.951
REMARK  3 active torsions:
REMARK  status: ('A' for Active; 'I' for Inactive)
REMARK    1  A    between atoms: C2_3  and  C3_4 
REMARK    2  A    between atoms: C3_4  and  N2_5 
REMARK    3  A    between atoms: N2_5  and  C4_6 
ROOT
HETATM    1  N1  UNL     1      19.283   1.526  50.899  1.00  0.00    -0.197 NA
HETATM    2  C1  UNL     1      19.099   0.644  51.600  1.00  0.00     0.060 C 
HETATM    3  C2  UNL     1      18.850  -0.499  52.501  1.00  0.00     0.143 C 
ENDROOT
BRANCH   3   4
HETATM    4  C3  UNL     1      19.985  -0.549  53.501  1.00  0.00     0.134 C 
BRANCH   4   5
HETATM    5  N2  UNL     1      21.154   0.011  52.834  1.00  0.00    -0.392 N 
HETATM    6  H5  UNL     1      21.098   0.505  51.890  1.00  0.00     0.159 HD
BRANCH   5   7
HETATM    7  C4  UNL     1      22.490   0.034  53.229  1.00  0.00     0.014 C 
HETATM    8  C5  UNL     1      22.823  -0.763  54.330  1.00  0.00     0.020 C 
HETATM    9  C6  UNL     1      24.157  -0.775  54.782  1.00  0.00     0.179 C 
HETATM   10  N3  UNL     1      25.400  -1.043  55.174  1.00  0.00    -0.279 NA
HETATM   11  C7  UNL     1      26.375  -0.269  54.733  1.00  0.00     0.228 C 
HETATM   12  N4  UNL     1      25.948   0.830  53.829  1.00  0.00    -0.237 NA
HETATM   13  C8  UNL     1      25.893   0.489  52.571  1.00  0.00     0.216 C 
HETATM   14  N5  UNL     1      25.498   1.497  51.732  1.00  0.00    -0.307 N 
HETATM   15  C9  UNL     1      24.065   1.420  51.660  1.00  0.00     0.041 A 
HETATM   16  C16 UNL     1      25.459   2.560  50.872  1.00  0.00     0.053 A 
HETATM   17  C10 UNL     1      22.888   0.921  52.144  1.00  0.00     0.102 C 
HETATM   18  C11 UNL     1      24.097   2.592  50.709  1.00  0.00     0.015 A 
HETATM   19  C12 UNL     1      23.734   3.606  49.858  1.00  0.00     0.017 A 
HETATM   20  C13 UNL     1      24.639   4.469  49.256  1.00  0.00     0.020 A 
HETATM   21  C14 UNL     1      26.016   4.344  49.497  1.00  0.00     0.013 A 
HETATM   22 BR1  UNL     1      27.214   5.563  48.655  1.00  0.00    -0.051 Br
HETATM   23  C15 UNL     1      26.446   3.318  50.363  1.00  0.00     0.050 A 
ENDBRANCH   5   7
ENDBRANCH   4   5
ENDBRANCH   3   4
TORSDOF 3
ENDMDL
MODEL 3
REMARK VINA RESULT:      -7.3      2.940      6.016
REMARK  3 active torsions:
REMARK  status: ('A' for Active; 'I' for Inactive)
REMARK    1  A    between atoms: C2_3  and  C3_4 
REMARK    2  A    between atoms: C3_4  and  N2_5 
REMARK    3  A    between atoms: N2_5  and  C4_6 
ROOT
HETATM    1  N1  UNL     1      24.538   7.111  50.987  1.00  0.00    -0.197 NA
HETATM    2  C1  UNL     1      23.749   6.291  50.893  1.00  0.00     0.060 C 
HETATM    3  C2  UNL     1      22.727   5.234  50.758  1.00  0.00     0.143 C 
ENDROOT
BRANCH   3   4
HETATM    4  C3  UNL     1      22.530   4.612  52.124  1.00  0.00     0.134 C 
BRANCH   4   5
HETATM    5  N2  UNL     1      21.655   3.461  51.935  1.00  0.00    -0.392 N 
HETATM    6  H5  UNL     1      20.838   3.463  51.250  1.00  0.00     0.159 HD
BRANCH   5   7
HETATM    7  C4  UNL     1      21.676   2.207  52.543  1.00  0.00     0.014 C 
HETATM    8  C5  UNL     1      20.435   1.682  52.921  1.00  0.00     0.020 C 
HETATM    9  C6  UNL     1      20.393   0.421  53.547  1.00  0.00     0.179 C 
HETATM   10  N3  UNL     1      20.191  -0.832  53.946  1.00  0.00    -0.279 NA
HETATM   11  C7  UNL     1      21.236  -1.541  54.334  1.00  0.00     0.228 C 
HETATM   12  N4  UNL     1      22.539  -0.829  54.271  1.00  0.00    -0.237 NA
HETATM   13  C8  UNL     1      23.135  -0.918  53.115  1.00  0.00     0.216 C 
HETATM   14  N5  UNL     1      24.336  -0.262  53.050  1.00  0.00    -0.307 N 
HETATM   15  C9  UNL     1      24.039   1.078  52.624  1.00  0.00     0.041 A 
HETATM   16  C16 UNL     1      25.662   0.070  53.084  1.00  0.00     0.053 A 
HETATM   17  C10 UNL     1      23.118   2.062  52.397  1.00  0.00     0.102 C 
HETATM   18  C11 UNL     1      25.518   1.373  52.677  1.00  0.00     0.015 A 
HETATM   19  C12 UNL     1      26.738   1.999  52.614  1.00  0.00     0.017 A 
HETATM   20  C13 UNL     1      27.940   1.379  52.925  1.00  0.00     0.020 A 
HETATM   21  C14 UNL     1      27.969   0.037  53.333  1.00  0.00     0.013 A 
HETATM   22 BR1  UNL     1      29.646  -0.762  53.759  1.00  0.00    -0.051 Br
HETATM   23  C15 UNL     1      26.744  -0.657  53.415  1.00  0.00     0.050 A 
ENDBRANCH   5   7
ENDBRANCH   4   5
ENDBRANCH   3   4
TORSDOF 3
ENDMDL
MODEL 4
REMARK VINA RESULT:      -7.1      3.106      5.785
REMARK  3 active torsions:
REMARK  status: ('A' for Active; 'I' for Inactive)
REMARK    1  A    between atoms: C2_3  and  C3_4 
REMARK    2  A    between atoms: C3_4  and  N2_5 
REMARK    3  A    between atoms: N2_5  and  C4_6 
ROOT
HETATM    1  N1  UNL     1      21.291   3.919  48.272  1.00  0.00    -0.197 NA
HETATM    2  C1  UNL     1      20.677   4.183  49.197  1.00  0.00     0.060 C 
HETATM    3  C2  UNL     1      19.871   4.528  50.385  1.00  0.00     0.143 C 
ENDROOT
BRANCH   3   4
HETATM    4  C3  UNL     1      20.771   4.414  51.597  1.00  0.00     0.134 C 
BRANCH   4   5
HETATM    5  N2  UNL     1      21.554   3.196  51.421  1.00  0.00    -0.392 N 
HETATM    6  H5  UNL     1      22.244   3.064  50.619  1.00  0.00     0.159 HD
BRANCH   5   7
HETATM    7  C4  UNL     1      21.586   2.030  52.184  1.00  0.00     0.014 C 
HETATM    8  C5  UNL     1      20.349   1.544  52.622  1.00  0.00     0.020 C 
HETATM    9  C6  UNL     1      20.318   0.372  53.404  1.00  0.00     0.179 C 
HETATM   10  N3  UNL     1      20.128  -0.822  53.959  1.00  0.00    -0.279 NA
HETATM   11  C7  UNL     1      21.179  -1.463  54.437  1.00  0.00     0.228 C 
HETATM   12  N4  UNL     1      22.473  -0.751  54.288  1.00  0.00    -0.237 NA
HETATM   13  C8  UNL     1      23.077  -0.980  53.154  1.00  0.00     0.216 C 
HETATM   14  N5  UNL     1      24.270  -0.324  53.010  1.00  0.00    -0.307 N 
HETATM   15  C9  UNL     1      23.960   0.947  52.416  1.00  0.00     0.041 A 
HETATM   16  C16 UNL     1      25.592   0.024  53.006  1.00  0.00     0.053 A 
HETATM   17  C10 UNL     1      23.031   1.884  52.063  1.00  0.00     0.102 C 
HETATM   18  C11 UNL     1      25.436   1.263  52.436  1.00  0.00     0.015 A 
HETATM   19  C12 UNL     1      26.650   1.890  52.297  1.00  0.00     0.017 A 
HETATM   20  C13 UNL     1      27.857   1.328  52.688  1.00  0.00     0.020 A 
HETATM   21  C14 UNL     1      27.899   0.049  53.264  1.00  0.00     0.013 A 
HETATM   22 BR1  UNL     1      29.582  -0.670  53.794  1.00  0.00    -0.051 Br
HETATM   23  C15 UNL     1      26.681  -0.642  53.430  1.00  0.00     0.050 A 
ENDBRANCH   5   7
ENDBRANCH   4   5
ENDBRANCH   3   4
TORSDOF 3
ENDMDL
MODEL 5
REMARK VINA RESULT:      -7.0      2.995      5.801
REMARK  3 active torsions:
REMARK  status: ('A' for Active; 'I' for Inactive)
REMARK    1  A    between atoms: C2_3  and  C3_4 
REMARK    2  A    between atoms: C3_4  and  N2_5 
REMARK    3  A    between atoms: N2_5  and  C4_6 
ROOT
HETATM    1  N1  UNL     1      24.843   6.755  50.896  1.00  0.00    -0.197 NA
HETATM    2  C1  UNL     1      25.180   6.062  50.054  1.00  0.00     0.060 C 
HETATM    3  C2  UNL     1      25.606   5.171  48.956  1.00  0.00     0.143 C 
ENDROOT
BRANCH   3   4
HETATM    4  C3  UNL     1      26.486   4.096  49.556  1.00  0.00     0.134 C 
BRANCH   4   5
HETATM    5  N2  UNL     1      25.943   3.800  50.876  1.00  0.00    -0.392 N 
HETATM    6  H5  UNL     1      25.461   4.535  51.480  1.00  0.00     0.159 HD
BRANCH   5   7
HETATM    7  C4  UNL     1      25.924   2.606  51.594  1.00  0.00     0.014 C 
HETATM    8  C5  UNL     1      27.167   2.107  51.998  1.00  0.00     0.020 C 
HETATM    9  C6  UNL     1      27.213   0.898  52.720  1.00  0.00     0.179 C 
HETATM   10  N3  UNL     1      27.383  -0.103  53.579  1.00  0.00    -0.279 NA
HETATM   11  C7  UNL     1      26.359  -0.902  53.819  1.00  0.00     0.228 C 
HETATM   12  N4  UNL     1      25.113  -0.569  53.082  1.00  0.00    -0.237 NA
HETATM   13  C8  UNL     1      24.351   0.295  53.694  1.00  0.00     0.216 C 
HETATM   14  N5  UNL     1      23.202   0.608  53.018  1.00  0.00    -0.307 N 
HETATM   15  C9  UNL     1      23.526   1.722  52.169  1.00  0.00     0.041 A 
HETATM   16  C16 UNL     1      21.920   0.651  52.543  1.00  0.00     0.053 A 
HETATM   17  C10 UNL     1      24.469   2.527  51.596  1.00  0.00     0.102 C 
HETATM   18  C11 UNL     1      22.093   1.715  51.694  1.00  0.00     0.015 A 
HETATM   19  C12 UNL     1      20.923   2.009  51.040  1.00  0.00     0.017 A 
HETATM   20  C13 UNL     1      19.738   1.310  51.226  1.00  0.00     0.020 A 
HETATM   21  C14 UNL     1      19.677   0.232  52.123  1.00  0.00     0.013 A 
HETATM   22 BR1  UNL     1      18.028  -0.700  52.333  1.00  0.00    -0.051 Br
HETATM   23  C15 UNL     1      20.850  -0.113  52.824  1.00  0.00     0.050 A 
ENDBRANCH   5   7
ENDBRANCH   4   5
ENDBRANCH   3   4
TORSDOF 3
ENDMDL
MODEL 6
REMARK VINA RESULT:      -6.9      3.954      8.040
REMARK  3 active torsions:
REMARK  status: ('A' for Active; 'I' for Inactive)
REMARK    1  A    between atoms: C2_3  and  C3_4 
REMARK    2  A    between atoms: C3_4  and  N2_5 
REMARK    3  A    between atoms: N2_5  and  C4_6 
ROOT
HETATM    1  N1  UNL     1      27.876   8.504  47.639  1.00  0.00    -0.197 NA
HETATM    2  C1  UNL     1      28.203   7.428  47.834  1.00  0.00     0.060 C 
HETATM    3  C2  UNL     1      28.637   6.038  48.080  1.00  0.00     0.143 C 
ENDROOT
BRANCH   3   4
HETATM    4  C3  UNL     1      27.446   5.276  48.620  1.00  0.00     0.134 C 
BRANCH   4   5
HETATM    5  N2  UNL     1      26.802   6.147  49.596  1.00  0.00    -0.392 N 
HETATM    6  H5  UNL     1      27.342   6.848  50.190  1.00  0.00     0.159 HD
BRANCH   5   7
HETATM    7  C4  UNL     1      25.458   6.261  49.949  1.00  0.00     0.014 C 
HETATM    8  C5  UNL     1      24.862   7.506  49.719  1.00  0.00     0.020 C 
HETATM    9  C6  UNL     1      23.508   7.684  50.063  1.00  0.00     0.179 C 
HETATM   10  N3  UNL     1      22.201   7.923  50.140  1.00  0.00    -0.279 NA
HETATM   11  C7  UNL     1      21.444   7.054  50.786  1.00  0.00     0.228 C 
HETATM   12  N4  UNL     1      22.168   5.890  51.357  1.00  0.00    -0.237 NA
HETATM   13  C8  UNL     1      22.296   4.889  50.530  1.00  0.00     0.216 C 
HETATM   14  N5  UNL     1      22.964   3.813  51.050  1.00  0.00    -0.307 N 
HETATM   15  C9  UNL     1      24.356   4.029  50.767  1.00  0.00     0.041 A 
HETATM   16  C16 UNL     1      23.297   2.633  51.656  1.00  0.00     0.053 A 
HETATM   17  C10 UNL     1      25.356   4.867  50.361  1.00  0.00     0.102 C 
HETATM   18  C11 UNL     1      24.650   2.713  51.444  1.00  0.00     0.015 A 
HETATM   19  C12 UNL     1      25.289   1.617  51.968  1.00  0.00     0.017 A 
HETATM   20  C13 UNL     1      24.635   0.581  52.620  1.00  0.00     0.020 A 
HETATM   21  C14 UNL     1      23.241   0.604  52.782  1.00  0.00     0.013 A 
HETATM   22 BR1  UNL     1      22.394  -0.838  53.695  1.00  0.00    -0.051 Br
HETATM   23  C15 UNL     1      22.533   1.707  52.261  1.00  0.00     0.050 A 
ENDBRANCH   5   7
ENDBRANCH   4   5
ENDBRANCH   3   4
TORSDOF 3
ENDMDL
MODEL 7
REMARK VINA RESULT:      -6.8      3.272      6.189
REMARK  3 active torsions:
REMARK  status: ('A' for Active; 'I' for Inactive)
REMARK    1  A    between atoms: C2_3  and  C3_4 
REMARK    2  A    between atoms: C3_4  and  N2_5 
REMARK    3  A    between atoms: N2_5  and  C4_6 
ROOT
HETATM    1  N1  UNL     1      23.972   4.210  49.371  1.00  0.00    -0.197 NA
HETATM    2  C1  UNL     1      24.975   3.924  49.836  1.00  0.00     0.060 C 
HETATM    3  C2  UNL     1      26.277   3.568  50.434  1.00  0.00     0.143 C 
ENDROOT
BRANCH   3   4
HETATM    4  C3  UNL     1      26.215   2.107  50.828  1.00  0.00     0.134 C 
BRANCH   4   5
HETATM    5  N2  UNL     1      24.904   1.894  51.431  1.00  0.00    -0.392 N 
HETATM    6  H5  UNL     1      24.036   2.435  51.131  1.00  0.00     0.159 HD
BRANCH   5   7
HETATM    7  C4  UNL     1      24.512   1.018  52.441  1.00  0.00     0.014 C 
HETATM    8  C5  UNL     1      25.524   0.563  53.293  1.00  0.00     0.020 C 
HETATM    9  C6  UNL     1      25.190  -0.331  54.329  1.00  0.00     0.179 C 
HETATM   10  N3  UNL     1      24.983  -0.997  55.462  1.00  0.00    -0.279 NA
HETATM   11  C7  UNL     1      23.804  -1.564  55.648  1.00  0.00     0.228 C 
HETATM   12  N4  UNL     1      22.833  -1.376  54.539  1.00  0.00    -0.237 NA
HETATM   13  C8  UNL     1      22.123  -0.286  54.636  1.00  0.00     0.216 C 
HETATM   14  N5  UNL     1      21.227  -0.106  53.616  1.00  0.00    -0.307 N 
HETATM   15  C9  UNL     1      21.927   0.620  52.591  1.00  0.00     0.041 A 
HETATM   16  C16 UNL     1      20.112  -0.099  52.824  1.00  0.00     0.053 A 
HETATM   17  C10 UNL     1      23.102   1.088  52.077  1.00  0.00     0.102 C 
HETATM   18  C11 UNL     1      20.657   0.596  51.774  1.00  0.00     0.015 A 
HETATM   19  C12 UNL     1      19.733   0.766  50.773  1.00  0.00     0.017 A 
HETATM   20  C13 UNL     1      18.431   0.292  50.837  1.00  0.00     0.020 A 
HETATM   21  C14 UNL     1      17.979  -0.411  51.965  1.00  0.00     0.013 A 
HETATM   22 BR1  UNL     1      16.184  -1.051  51.995  1.00  0.00    -0.051 Br
HETATM   23  C15 UNL     1      18.886  -0.615  53.025  1.00  0.00     0.050 A 
ENDBRANCH   5   7
ENDBRANCH   4   5
ENDBRANCH   3   4
TORSDOF 3
ENDMDL
MODEL 8
REMARK VINA RESULT:      -6.6      3.052      5.407
REMARK  3 active torsions:
REMARK  status: ('A' for Active; 'I' for Inactive)
REMARK    1  A    between atoms: C2_3  and  C3_4 
REMARK    2  A    between atoms: C3_4  and  N2_5 
REMARK    3  A    between atoms: N2_5  and  C4_6 
ROOT
HETATM    1  N1  UNL     1      19.766   3.583  52.310  1.00  0.00    -0.197 NA
HETATM    2  C1  UNL     1      19.581   2.500  51.998  1.00  0.00     0.060 C 
HETATM    3  C2  UNL     1      19.327   1.102  51.598  1.00  0.00     0.143 C 
ENDROOT
BRANCH   3   4
HETATM    4  C3  UNL     1      20.666   0.458  51.311  1.00  0.00     0.134 C 
BRANCH   4   5
HETATM    5  N2  UNL     1      21.142   1.029  50.056  1.00  0.00    -0.392 N 
HETATM    6  H5  UNL     1      20.779   0.714  49.104  1.00  0.00     0.159 HD
BRANCH   5   7
HETATM    7  C4  UNL     1      22.090   2.024  49.823  1.00  0.00     0.014 C 
HETATM    8  C5  UNL     1      21.730   3.019  48.908  1.00  0.00     0.020 C 
HETATM    9  C6  UNL     1      22.650   4.047  48.626  1.00  0.00     0.179 C 
HETATM   10  N3  UNL     1      23.326   5.177  48.431  1.00  0.00    -0.279 NA
HETATM   11  C7  UNL     1      24.574   5.240  48.859  1.00  0.00     0.228 C 
HETATM   12  N4  UNL     1      25.075   4.010  49.523  1.00  0.00    -0.237 NA
HETATM   13  C8  UNL     1      24.830   3.962  50.803  1.00  0.00     0.216 C 
HETATM   14  N5  UNL     1      25.288   2.829  51.421  1.00  0.00    -0.307 N 
HETATM   15  C9  UNL     1      24.225   1.866  51.333  1.00  0.00     0.041 A 
HETATM   16  C16 UNL     1      26.037   1.903  52.094  1.00  0.00     0.053 A 
HETATM   17  C10 UNL     1      23.029   1.481  50.797  1.00  0.00     0.102 C 
HETATM   18  C11 UNL     1      25.104   0.897  52.087  1.00  0.00     0.015 A 
HETATM   19  C12 UNL     1      25.590  -0.220  52.720  1.00  0.00     0.017 A 
HETATM   20  C13 UNL     1      26.856  -0.298  53.284  1.00  0.00     0.020 A 
HETATM   21  C14 UNL     1      27.732   0.798  53.231  1.00  0.00     0.013 A 
HETATM   22 BR1  UNL     1      29.463   0.633  54.009  1.00  0.00    -0.051 Br
HETATM   23  C15 UNL     1      27.284   1.973  52.592  1.00  0.00     0.050 A 
ENDBRANCH   5   7
ENDBRANCH   4   5
ENDBRANCH   3   4
TORSDOF 3
ENDMDL
MODEL 9
REMARK VINA RESULT:      -6.3      2.763      4.647
REMARK  3 active torsions:
REMARK  status: ('A' for Active; 'I' for Inactive)
REMARK    1  A    between atoms: C2_3  and  C3_4 
REMARK    2  A    between atoms: C3_4  and  N2_5 
REMARK    3  A    between atoms: N2_5  and  C4_6 
ROOT
HETATM    1  N1  UNL     1      16.012  -1.114  48.597  1.00  0.00    -0.197 NA
HETATM    2  C1  UNL     1      16.094  -0.484  49.546  1.00  0.00     0.060 C 
HETATM    3  C2  UNL     1      16.193   0.341  50.766  1.00  0.00     0.143 C 
ENDROOT
BRANCH   3   4
HETATM    4  C3  UNL     1      17.043  -0.417  51.763  1.00  0.00     0.134 C 
BRANCH   4   5
HETATM    5  N2  UNL     1      18.426  -0.029  51.512  1.00  0.00    -0.392 N 
HETATM    6  H5  UNL     1      18.734   0.463  50.618  1.00  0.00     0.159 HD
BRANCH   5   7
HETATM    7  C4  UNL     1      19.562  -0.192  52.303  1.00  0.00     0.014 C 
HETATM    8  C5  UNL     1      19.413  -0.987  53.444  1.00  0.00     0.020 C 
HETATM    9  C6  UNL     1      20.526  -1.182  54.286  1.00  0.00     0.179 C 
HETATM   10  N3  UNL     1      21.531  -1.617  55.041  1.00  0.00    -0.279 NA
HETATM   11  C7  UNL     1      22.701  -1.015  54.932  1.00  0.00     0.228 C 
HETATM   12  N4  UNL     1      22.747   0.100  53.952  1.00  0.00    -0.237 NA
HETATM   13  C8  UNL     1      23.030  -0.276  52.735  1.00  0.00     0.216 C 
HETATM   14  N5  UNL     1      23.072   0.748  51.826  1.00  0.00    -0.307 N 
HETATM   15  C9  UNL     1      21.737   0.883  51.313  1.00  0.00     0.041 A 
HETATM   16  C16 UNL     1      23.464   1.771  51.007  1.00  0.00     0.053 A 
HETATM   17  C10 UNL     1      20.407   0.584  51.403  1.00  0.00     0.102 C 
HETATM   18  C11 UNL     1      22.240   2.000  50.431  1.00  0.00     0.015 A 
HETATM   19  C12 UNL     1      22.317   3.024  49.520  1.00  0.00     0.017 A 
HETATM   20  C13 UNL     1      23.485   3.719  49.237  1.00  0.00     0.020 A 
HETATM   21  C14 UNL     1      24.685   3.398  49.891  1.00  0.00     0.013 A 
HETATM   22 BR1  UNL     1      26.256   4.392  49.474  1.00  0.00    -0.051 Br
HETATM   23  C15 UNL     1      24.664   2.353  50.837  1.00  0.00     0.050 A 
ENDBRANCH   5   7
ENDBRANCH   4   5
ENDBRANCH   3   4
TORSDOF 3
ENDMDL
