MODEL 1
REMARK VINA RESULT:      -9.8      0.000      0.000
REMARK  4 active torsions:
REMARK  status: ('A' for Active; 'I' for Inactive)
REMARK    1  A    between atoms: O1_2  and  C2_3 
REMARK    2  A    between atoms: C6_9  and  N3_10 
REMARK    3  A    between atoms: N3_10  and  C7_11 
REMARK    4  A    between atoms: C7_11  and  C8_12 
ROOT
HETATM    1  C2  UNL     1      21.666   3.848  50.371  1.00  0.00     0.259 C 
HETATM    2  C3  UNL     1      22.829   3.221  50.404  1.00  0.00     0.121 C 
HETATM    3  C4  UNL     1      24.235   3.002  50.725  1.00  0.00     0.046 A 
HETATM    4  N1  UNL     1      25.044   3.369  49.723  1.00  0.00    -0.248 NA
HETATM    5  C5  UNL     1      26.368   3.298  49.744  1.00  0.00     0.235 A 
HETATM    6  N2  UNL     1      26.867   2.819  50.881  1.00  0.00    -0.227 NA
HETATM    7  C6  UNL     1      26.120   2.435  51.922  1.00  0.00     0.121 A 
HETATM    8  C14 UNL     1      24.747   2.497  51.917  1.00  0.00     0.103 A 
HETATM    9  C15 UNL     1      24.055   2.031  53.091  1.00  0.00     0.006 A 
HETATM   10  C16 UNL     1      23.624   0.773  53.035  1.00  0.00    -0.054 A 
HETATM   11  O2  UNL     1      24.259   1.045  51.843  1.00  0.00     0.000 OA
HETATM   12  C17 UNL     1      22.863  -0.092  54.025  1.00  0.00     0.039 C 
HETATM   13  C18 UNL     1      21.561  -0.491  53.298  1.00  0.00     0.005 C 
HETATM   14  C19 UNL     1      20.611  -1.216  54.137  1.00  0.00     0.000 C 
HETATM   15  C20 UNL     1      19.318  -1.581  53.426  1.00  0.00     0.000 C 
HETATM   16  C21 UNL     1      18.734  -0.346  52.802  1.00  0.00     0.009 C 
HETATM   17  C22 UNL     1      19.302   0.034  51.484  1.00  0.00     0.105 C 
HETATM   18  C23 UNL     1      19.071   1.514  51.295  1.00  0.00     0.241 C 
HETATM   19  O3  UNL     1      18.811   2.725  51.197  1.00  0.00    -0.271 OA
HETATM   20  N4  UNL     1      20.060   2.080  50.401  1.00  0.00    -0.231 N 
HETATM   21  O4  UNL     1      20.649   3.149  49.703  1.00  0.00    -0.231 OA
HETATM   22  H15 UNL     1      24.179   0.372  51.095  1.00  0.00     0.000 HD
HETATM   23  H28 UNL     1      20.822   1.516  49.915  1.00  0.00     0.197 HD
ENDROOT
BRANCH   7  24
HETATM   24  N3  UNL     1      26.652   1.946  53.154  1.00  0.00    -0.373 N 
HETATM   25  H6  UNL     1      26.227   1.883  54.072  1.00  0.00     0.161 HD
BRANCH  24  26
HETATM   26  C7  UNL     1      28.014   1.465  53.090  1.00  0.00     0.159 C 
BRANCH  26  27
HETATM   27  C8  UNL     1      28.129  -0.003  53.042  1.00  0.00    -0.041 A 
HETATM   28  C9  UNL     1      29.347  -0.543  53.425  1.00  0.00     0.009 A 
HETATM   29  C10 UNL     1      29.505  -1.910  53.399  1.00  0.00     0.001 A 
HETATM   30  C11 UNL     1      28.509  -2.773  53.007  1.00  0.00     0.000 A 
HETATM   31  C12 UNL     1      27.284  -2.232  52.621  1.00  0.00     0.001 A 
HETATM   32  C13 UNL     1      27.125  -0.864  52.648  1.00  0.00     0.009 A 
ENDBRANCH  26  27
ENDBRANCH  24  26
ENDBRANCH   7  24
BRANCH   1  33
HETATM   33  O1  UNL     1      20.625   4.758  50.519  1.00  0.00    -0.353 OA
HETATM   34  C1  UNL     1      20.211   5.608  49.468  1.00  0.00     0.206 C 
ENDBRANCH   1  33
TORSDOF 4
ENDMDL
MODEL 2
REMARK VINA RESULT:      -9.3      3.518      6.757
REMARK  4 active torsions:
REMARK  status: ('A' for Active; 'I' for Inactive)
REMARK    1  A    between atoms: O1_2  and  C2_3 
REMARK    2  A    between atoms: C6_9  and  N3_10 
REMARK    3  A    between atoms: N3_10  and  C7_11 
REMARK    4  A    between atoms: C7_11  and  C8_12 
ROOT
HETATM    1  C2  UNL     1      22.749   5.631  48.133  1.00  0.00     0.259 C 
HETATM    2  C3  UNL     1      23.358   5.265  49.248  1.00  0.00     0.121 C 
HETATM    3  C4  UNL     1      23.879   4.358  50.264  1.00  0.00     0.046 A 
HETATM    4  N1  UNL     1      23.026   4.201  51.285  1.00  0.00    -0.248 NA
HETATM    5  C5  UNL     1      23.232   3.422  52.339  1.00  0.00     0.235 A 
HETATM    6  N2  UNL     1      24.393   2.774  52.316  1.00  0.00    -0.227 NA
HETATM    7  C6  UNL     1      25.291   2.882  51.330  1.00  0.00     0.121 A 
HETATM    8  C14 UNL     1      25.098   3.687  50.233  1.00  0.00     0.103 A 
HETATM    9  C15 UNL     1      26.151   3.736  49.251  1.00  0.00     0.006 A 
HETATM   10  C16 UNL     1      27.000   4.753  49.379  1.00  0.00    -0.054 A 
HETATM   11  O2  UNL     1      26.073   4.860  50.393  1.00  0.00     0.000 OA
HETATM   12  C17 UNL     1      28.218   5.174  48.575  1.00  0.00     0.039 C 
HETATM   13  C18 UNL     1      27.895   6.595  48.063  1.00  0.00     0.005 C 
HETATM   14  C19 UNL     1      28.890   7.133  47.139  1.00  0.00     0.000 C 
HETATM   15  C20 UNL     1      28.552   8.519  46.614  1.00  0.00     0.000 C 
HETATM   16  C21 UNL     1      27.163   8.505  46.045  1.00  0.00     0.009 C 
HETATM   17  C22 UNL     1      26.066   8.660  47.033  1.00  0.00     0.105 C 
HETATM   18  C23 UNL     1      24.820   8.052  46.433  1.00  0.00     0.241 C 
HETATM   19  O3  UNL     1      23.831   7.567  45.858  1.00  0.00    -0.271 OA
HETATM   20  N4  UNL     1      23.911   7.611  47.471  1.00  0.00    -0.231 N 
HETATM   21  O4  UNL     1      22.717   7.018  47.918  1.00  0.00    -0.231 OA
HETATM   22  H15 UNL     1      26.066   5.703  50.946  1.00  0.00     0.000 HD
HETATM   23  H28 UNL     1      24.086   7.736  48.514  1.00  0.00     0.197 HD
ENDROOT
BRANCH   7  24
HETATM   24  N3  UNL     1      26.526   2.167  51.288  1.00  0.00    -0.373 N 
HETATM   25  H6  UNL     1      26.963   1.658  50.528  1.00  0.00     0.161 HD
BRANCH  24  26
HETATM   26  C7  UNL     1      27.278   2.162  52.523  1.00  0.00     0.159 C 
BRANCH  26  27
HETATM   27  C8  UNL     1      27.891   0.862  52.847  1.00  0.00    -0.041 A 
HETATM   28  C9  UNL     1      27.148  -0.268  52.542  1.00  0.00     0.009 A 
HETATM   29  C10 UNL     1      27.677  -1.507  52.824  1.00  0.00     0.001 A 
HETATM   30  C11 UNL     1      28.913  -1.682  53.400  1.00  0.00     0.000 A 
HETATM   31  C12 UNL     1      29.661  -0.547  53.709  1.00  0.00     0.001 A 
HETATM   32  C13 UNL     1      29.133   0.694  53.425  1.00  0.00     0.009 A 
ENDBRANCH  26  27
ENDBRANCH  24  26
ENDBRANCH   7  24
BRANCH   1  33
HETATM   33  O1  UNL     1      22.065   5.661  46.923  1.00  0.00    -0.353 OA
HETATM   34  C1  UNL     1      21.969   4.528  46.082  1.00  0.00     0.206 C 
ENDBRANCH   1  33
TORSDOF 4
ENDMDL
MODEL 3
REMARK VINA RESULT:      -9.2      2.157      4.905
REMARK  4 active torsions:
REMARK  status: ('A' for Active; 'I' for Inactive)
REMARK    1  A    between atoms: O1_2  and  C2_3 
REMARK    2  A    between atoms: C6_9  and  N3_10 
REMARK    3  A    between atoms: N3_10  and  C7_11 
REMARK    4  A    between atoms: C7_11  and  C8_12 
ROOT
HETATM    1  C2  UNL     1      19.632   1.999  51.719  1.00  0.00     0.259 C 
HETATM    2  C3  UNL     1      20.575   1.638  52.571  1.00  0.00     0.121 C 
HETATM    3  C4  UNL     1      21.573   0.775  53.192  1.00  0.00     0.046 A 
HETATM    4  N1  UNL     1      21.083   0.116  54.250  1.00  0.00    -0.248 NA
HETATM    5  C5  UNL     1      21.760  -0.749  54.993  1.00  0.00     0.235 A 
HETATM    6  N2  UNL     1      23.019  -0.932  54.601  1.00  0.00    -0.227 NA
HETATM    7  C6  UNL     1      23.574  -0.309  53.555  1.00  0.00     0.121 A 
HETATM    8  C14 UNL     1      22.889   0.592  52.776  1.00  0.00     0.103 A 
HETATM    9  C15 UNL     1      23.606   1.214  51.692  1.00  0.00     0.006 A 
HETATM   10  C16 UNL     1      24.122   2.411  51.964  1.00  0.00    -0.054 A 
HETATM   11  O2  UNL     1      23.484   1.968  53.102  1.00  0.00     0.000 OA
HETATM   12  C17 UNL     1      24.925   3.391  51.128  1.00  0.00     0.039 C 
HETATM   13  C18 UNL     1      24.083   4.685  51.098  1.00  0.00     0.005 C 
HETATM   14  C19 UNL     1      24.616   5.720  50.216  1.00  0.00     0.000 C 
HETATM   15  C20 UNL     1      23.767   6.980  50.166  1.00  0.00     0.000 C 
HETATM   16  C21 UNL     1      22.349   6.606  49.849  1.00  0.00     0.009 C 
HETATM   17  C22 UNL     1      21.532   6.153  51.002  1.00  0.00     0.105 C 
HETATM   18  C23 UNL     1      20.414   5.294  50.464  1.00  0.00     0.241 C 
HETATM   19  O3  UNL     1      19.502   4.630  49.942  1.00  0.00    -0.271 OA
HETATM   20  N4  UNL     1      19.959   4.353  51.466  1.00  0.00    -0.231 N 
HETATM   21  O4  UNL     1      19.141   3.300  51.913  1.00  0.00    -0.231 OA
HETATM   22  H15 UNL     1      23.365   2.617  53.865  1.00  0.00     0.000 HD
HETATM   23  H28 UNL     1      20.339   4.304  52.460  1.00  0.00     0.197 HD
ENDROOT
BRANCH   7  24
HETATM   24  N3  UNL     1      24.915  -0.523  53.114  1.00  0.00    -0.373 N 
HETATM   25  H6  UNL     1      25.293  -0.594  52.176  1.00  0.00     0.161 HD
BRANCH  24  26
HETATM   26  C7  UNL     1      25.896  -0.663  54.167  1.00  0.00     0.159 C 
BRANCH  26  27
HETATM   27  C8  UNL     1      27.032   0.268  54.054  1.00  0.00    -0.041 A 
HETATM   28  C9  UNL     1      28.288  -0.250  54.330  1.00  0.00     0.009 A 
HETATM   29  C10 UNL     1      29.383   0.579  54.238  1.00  0.00     0.001 A 
HETATM   30  C11 UNL     1      29.294   1.905  53.886  1.00  0.00     0.000 A 
HETATM   31  C12 UNL     1      28.032   2.427  53.609  1.00  0.00     0.001 A 
HETATM   32  C13 UNL     1      26.935   1.598  53.699  1.00  0.00     0.009 A 
ENDBRANCH  26  27
ENDBRANCH  24  26
ENDBRANCH   7  24
BRANCH   1  33
HETATM   33  O1  UNL     1      18.694   2.048  50.693  1.00  0.00    -0.353 OA
HETATM   34  C1  UNL     1      18.172   0.879  50.092  1.00  0.00     0.206 C 
ENDBRANCH   1  33
TORSDOF 4
ENDMDL
MODEL 4
REMARK VINA RESULT:      -9.1      1.277      1.869
REMARK  4 active torsions:
REMARK  status: ('A' for Active; 'I' for Inactive)
REMARK    1  A    between atoms: O1_2  and  C2_3 
REMARK    2  A    between atoms: C6_9  and  N3_10 
REMARK    3  A    between atoms: N3_10  and  C7_11 
REMARK    4  A    between atoms: C7_11  and  C8_12 
ROOT
HETATM    1  C2  UNL     1      22.016   4.885  49.631  1.00  0.00     0.259 C 
HETATM    2  C3  UNL     1      22.968   3.974  49.738  1.00  0.00     0.121 C 
HETATM    3  C4  UNL     1      24.193   3.355  50.232  1.00  0.00     0.046 A 
HETATM    4  N1  UNL     1      25.244   3.618  49.446  1.00  0.00    -0.248 NA
HETATM    5  C5  UNL     1      26.484   3.199  49.661  1.00  0.00     0.235 A 
HETATM    6  N2  UNL     1      26.625   2.467  50.763  1.00  0.00    -0.227 NA
HETATM    7  C6  UNL     1      25.620   2.165  51.594  1.00  0.00     0.121 A 
HETATM    8  C14 UNL     1      24.329   2.587  51.385  1.00  0.00     0.103 A 
HETATM    9  C15 UNL     1      23.332   2.175  52.340  1.00  0.00     0.006 A 
HETATM   10  C16 UNL     1      22.635   1.093  52.003  1.00  0.00    -0.054 A 
HETATM   11  O2  UNL     1      23.536   1.335  50.989  1.00  0.00     0.000 OA
HETATM   12  C17 UNL     1      21.514   0.342  52.700  1.00  0.00     0.039 C 
HETATM   13  C18 UNL     1      20.321   0.394  51.721  1.00  0.00     0.005 C 
HETATM   14  C19 UNL     1      19.082  -0.155  52.266  1.00  0.00     0.000 C 
HETATM   15  C20 UNL     1      17.903  -0.074  51.310  1.00  0.00     0.000 C 
HETATM   16  C21 UNL     1      17.761   1.339  50.822  1.00  0.00     0.009 C 
HETATM   17  C22 UNL     1      18.647   1.719  49.694  1.00  0.00     0.105 C 
HETATM   18  C23 UNL     1      18.813   3.219  49.726  1.00  0.00     0.241 C 
HETATM   19  O3  UNL     1      18.872   4.458  49.797  1.00  0.00    -0.271 OA
HETATM   20  N4  UNL     1      20.063   3.612  49.107  1.00  0.00    -0.231 N 
HETATM   21  O4  UNL     1      21.012   4.568  48.703  1.00  0.00    -0.231 OA
HETATM   22  H15 UNL     1      23.446   0.807  50.134  1.00  0.00     0.000 HD
HETATM   23  H28 UNL     1      20.749   2.933  48.658  1.00  0.00     0.197 HD
ENDROOT
BRANCH   7  24
HETATM   24  N3  UNL     1      25.772   1.403  52.792  1.00  0.00    -0.373 N 
HETATM   25  H6  UNL     1      25.658   1.676  53.761  1.00  0.00     0.161 HD
BRANCH  24  26
HETATM   26  C7  UNL     1      26.150   0.021  52.600  1.00  0.00     0.159 C 
BRANCH  26  27
HETATM   27  C8  UNL     1      27.539  -0.280  52.990  1.00  0.00    -0.041 A 
HETATM   28  C9  UNL     1      27.914  -1.615  52.970  1.00  0.00     0.009 A 
HETATM   29  C10 UNL     1      29.201  -1.949  53.324  1.00  0.00     0.001 A 
HETATM   30  C11 UNL     1      30.141  -1.018  53.702  1.00  0.00     0.000 A 
HETATM   31  C12 UNL     1      29.766   0.323  53.723  1.00  0.00     0.001 A 
HETATM   32  C13 UNL     1      28.477   0.658  53.367  1.00  0.00     0.009 A 
ENDBRANCH  26  27
ENDBRANCH  24  26
ENDBRANCH   7  24
BRANCH   1  33
HETATM   33  O1  UNL     1      21.212   6.010  49.768  1.00  0.00    -0.353 OA
HETATM   34  C1  UNL     1      21.394   6.945  50.814  1.00  0.00     0.206 C 
ENDBRANCH   1  33
TORSDOF 4
ENDMDL
MODEL 5
REMARK VINA RESULT:      -9.0      2.780      6.232
REMARK  4 active torsions:
REMARK  status: ('A' for Active; 'I' for Inactive)
REMARK    1  A    between atoms: O1_2  and  C2_3 
REMARK    2  A    between atoms: C6_9  and  N3_10 
REMARK    3  A    between atoms: N3_10  and  C7_11 
REMARK    4  A    between atoms: C7_11  and  C8_12 
ROOT
HETATM    1  C2  UNL     1      21.636   6.034  48.474  1.00  0.00     0.259 C 
HETATM    2  C3  UNL     1      21.842   5.356  49.590  1.00  0.00     0.121 C 
HETATM    3  C4  UNL     1      21.783   4.229  50.513  1.00  0.00     0.046 A 
HETATM    4  N1  UNL     1      20.761   4.333  51.372  1.00  0.00    -0.248 NA
HETATM    5  C5  UNL     1      20.457   3.445  52.309  1.00  0.00     0.235 A 
HETATM    6  N2  UNL     1      21.269   2.392  52.343  1.00  0.00    -0.227 NA
HETATM    7  C6  UNL     1      22.308   2.222  51.516  1.00  0.00     0.121 A 
HETATM    8  C14 UNL     1      22.640   3.133  50.542  1.00  0.00     0.103 A 
HETATM    9  C15 UNL     1      23.796   2.847  49.732  1.00  0.00     0.006 A 
HETATM   10  C16 UNL     1      24.927   3.425  50.130  1.00  0.00    -0.054 A 
HETATM   11  O2  UNL     1      23.939   3.799  51.014  1.00  0.00     0.000 OA
HETATM   12  C17 UNL     1      26.340   3.396  49.575  1.00  0.00     0.039 C 
HETATM   13  C18 UNL     1      26.680   4.868  49.252  1.00  0.00     0.005 C 
HETATM   14  C19 UNL     1      27.957   5.045  48.567  1.00  0.00     0.000 C 
HETATM   15  C20 UNL     1      28.273   6.493  48.224  1.00  0.00     0.000 C 
HETATM   16  C21 UNL     1      27.113   7.086  47.478  1.00  0.00     0.009 C 
HETATM   17  C22 UNL     1      25.993   7.574  48.320  1.00  0.00     0.105 C 
HETATM   18  C23 UNL     1      24.745   7.571  47.470  1.00  0.00     0.241 C 
HETATM   19  O3  UNL     1      23.771   7.576  46.697  1.00  0.00    -0.271 OA
HETATM   20  N4  UNL     1      23.561   7.438  48.293  1.00  0.00    -0.231 N 
HETATM   21  O4  UNL     1      22.171   7.332  48.476  1.00  0.00    -0.231 OA
HETATM   22  H15 UNL     1      24.149   4.521  51.687  1.00  0.00     0.000 HD
HETATM   23  H28 UNL     1      23.572   7.387  49.357  1.00  0.00     0.197 HD
ENDROOT
BRANCH   7  24
HETATM   24  N3  UNL     1      23.165   1.080  51.530  1.00  0.00    -0.373 N 
HETATM   25  H6  UNL     1      23.471   0.481  50.772  1.00  0.00     0.161 HD
BRANCH  24  26
HETATM   26  C7  UNL     1      23.683   0.714  52.829  1.00  0.00     0.159 C 
BRANCH  26  27
HETATM   27  C8  UNL     1      25.153   0.768  52.926  1.00  0.00    -0.041 A 
HETATM   28  C9  UNL     1      25.700   1.938  53.429  1.00  0.00     0.009 A 
HETATM   29  C10 UNL     1      27.068   2.038  53.540  1.00  0.00     0.001 A 
HETATM   30  C11 UNL     1      27.926   1.028  53.173  1.00  0.00     0.000 A 
HETATM   31  C12 UNL     1      27.378  -0.149  52.667  1.00  0.00     0.001 A 
HETATM   32  C13 UNL     1      26.008  -0.250  52.556  1.00  0.00     0.009 A 
ENDBRANCH  26  27
ENDBRANCH  24  26
ENDBRANCH   7  24
BRANCH   1  33
HETATM   33  O1  UNL     1      21.251   6.445  47.202  1.00  0.00    -0.353 OA
HETATM   34  C1  UNL     1      20.176   7.338  46.990  1.00  0.00     0.206 C 
ENDBRANCH   1  33
TORSDOF 4
ENDMDL
MODEL 6
REMARK VINA RESULT:      -8.9      2.335      7.404
REMARK  4 active torsions:
REMARK  status: ('A' for Active; 'I' for Inactive)
REMARK    1  A    between atoms: O1_2  and  C2_3 
REMARK    2  A    between atoms: C6_9  and  N3_10 
REMARK    3  A    between atoms: N3_10  and  C7_11 
REMARK    4  A    between atoms: C7_11  and  C8_12 
ROOT
HETATM    1  C2  UNL     1      23.081   3.791  50.242  1.00  0.00     0.259 C 
HETATM    2  C3  UNL     1      22.043   3.394  50.956  1.00  0.00     0.121 C 
HETATM    3  C4  UNL     1      20.746   2.785  51.227  1.00  0.00     0.046 A 
HETATM    4  N1  UNL     1      19.756   3.688  51.237  1.00  0.00    -0.248 NA
HETATM    5  C5  UNL     1      18.474   3.414  51.440  1.00  0.00     0.235 A 
HETATM    6  N2  UNL     1      18.220   2.123  51.639  1.00  0.00    -0.227 NA
HETATM    7  C6  UNL     1      19.157   1.169  51.642  1.00  0.00     0.121 A 
HETATM    8  C14 UNL     1      20.490   1.433  51.438  1.00  0.00     0.103 A 
HETATM    9  C15 UNL     1      21.404   0.321  51.488  1.00  0.00     0.006 A 
HETATM   10  C16 UNL     1      22.006   0.133  52.660  1.00  0.00    -0.054 A 
HETATM   11  O2  UNL     1      21.174   1.222  52.795  1.00  0.00     0.000 OA
HETATM   12  C17 UNL     1      23.021  -0.893  53.134  1.00  0.00     0.039 C 
HETATM   13  C18 UNL     1      24.252  -0.071  53.577  1.00  0.00     0.005 C 
HETATM   14  C19 UNL     1      25.410  -0.885  53.938  1.00  0.00     0.000 C 
HETATM   15  C20 UNL     1      26.628  -0.071  54.344  1.00  0.00     0.000 C 
HETATM   16  C21 UNL     1      26.925   0.938  53.273  1.00  0.00     0.009 C 
HETATM   17  C22 UNL     1      26.125   2.187  53.331  1.00  0.00     0.105 C 
HETATM   18  C23 UNL     1      26.103   2.782  51.944  1.00  0.00     0.241 C 
HETATM   19  O3  UNL     1      26.161   3.228  50.785  1.00  0.00    -0.271 OA
HETATM   20  N4  UNL     1      24.923   3.600  51.753  1.00  0.00    -0.231 N 
HETATM   21  O4  UNL     1      24.087   4.430  50.984  1.00  0.00    -0.231 OA
HETATM   22  H15 UNL     1      21.247   1.778  53.633  1.00  0.00     0.000 HD
HETATM   23  H28 UNL     1      24.192   3.784  52.506  1.00  0.00     0.197 HD
ENDROOT
BRANCH   7  24
HETATM   24  N3  UNL     1      18.885  -0.221  51.828  1.00  0.00    -0.373 N 
HETATM   25  H6  UNL     1      19.031  -1.006  51.204  1.00  0.00     0.161 HD
BRANCH  24  26
HETATM   26  C7  UNL     1      18.310  -0.571  53.107  1.00  0.00     0.159 C 
BRANCH  26  27
HETATM   27  C8  UNL     1      17.455  -1.770  53.073  1.00  0.00    -0.041 A 
HETATM   28  C9  UNL     1      16.255  -1.658  52.387  1.00  0.00     0.009 A 
HETATM   29  C10 UNL     1      15.421  -2.751  52.325  1.00  0.00     0.001 A 
HETATM   30  C11 UNL     1      15.719  -3.957  52.914  1.00  0.00     0.000 A 
HETATM   31  C12 UNL     1      16.925  -4.072  53.604  1.00  0.00     0.001 A 
HETATM   32  C13 UNL     1      17.761  -2.978  53.666  1.00  0.00     0.009 A 
ENDBRANCH  26  27
ENDBRANCH  24  26
ENDBRANCH   7  24
BRANCH   1  33
HETATM   33  O1  UNL     1      23.985   4.064  49.220  1.00  0.00    -0.353 OA
HETATM   34  C1  UNL     1      24.166   5.368  48.703  1.00  0.00     0.206 C 
ENDBRANCH   1  33
TORSDOF 4
ENDMDL
MODEL 7
REMARK VINA RESULT:      -8.6      5.735      9.366
REMARK  4 active torsions:
REMARK  status: ('A' for Active; 'I' for Inactive)
REMARK    1  A    between atoms: O1_2  and  C2_3 
REMARK    2  A    between atoms: C6_9  and  N3_10 
REMARK    3  A    between atoms: N3_10  and  C7_11 
REMARK    4  A    between atoms: C7_11  and  C8_12 
ROOT
HETATM    1  C2  UNL     1      26.736  10.430  48.837  1.00  0.00     0.259 C 
HETATM    2  C3  UNL     1      26.237   9.357  49.425  1.00  0.00     0.121 C 
HETATM    3  C4  UNL     1      25.340   8.224  49.629  1.00  0.00     0.046 A 
HETATM    4  N1  UNL     1      24.338   8.519  50.467  1.00  0.00    -0.248 NA
HETATM    5  C5  UNL     1      23.367   7.688  50.819  1.00  0.00     0.235 A 
HETATM    6  N2  UNL     1      23.453   6.484  50.259  1.00  0.00    -0.227 NA
HETATM    7  C6  UNL     1      24.425   6.121  49.413  1.00  0.00     0.121 A 
HETATM    8  C14 UNL     1      25.441   6.968  49.040  1.00  0.00     0.103 A 
HETATM    9  C15 UNL     1      26.441   6.450  48.142  1.00  0.00     0.006 A 
HETATM   10  C16 UNL     1      27.545   5.989  48.725  1.00  0.00    -0.054 A 
HETATM   11  O2  UNL     1      26.707   6.434  49.723  1.00  0.00     0.000 OA
HETATM   12  C17 UNL     1      28.818   5.378  48.164  1.00  0.00     0.039 C 
HETATM   13  C18 UNL     1      29.957   6.307  48.638  1.00  0.00     0.005 C 
HETATM   14  C19 UNL     1      31.265   5.973  48.081  1.00  0.00     0.000 C 
HETATM   15  C20 UNL     1      32.378   6.908  48.526  1.00  0.00     0.000 C 
HETATM   16  C21 UNL     1      31.965   8.327  48.257  1.00  0.00     0.009 C 
HETATM   17  C22 UNL     1      31.092   8.945  49.286  1.00  0.00     0.105 C 
HETATM   18  C23 UNL     1      30.323  10.062  48.623  1.00  0.00     0.241 C 
HETATM   19  O3  UNL     1      29.755  10.986  48.016  1.00  0.00    -0.271 OA
HETATM   20  N4  UNL     1      29.074  10.309  49.315  1.00  0.00    -0.231 N 
HETATM   21  O4  UNL     1      27.851  10.981  49.487  1.00  0.00    -0.231 OA
HETATM   22  H15 UNL     1      27.072   6.495  50.661  1.00  0.00     0.000 HD
HETATM   23  H28 UNL     1      28.765   9.795  50.196  1.00  0.00     0.197 HD
ENDROOT
BRANCH   7  24
HETATM   24  N3  UNL     1      24.506   4.840  48.788  1.00  0.00    -0.373 N 
HETATM   25  H6  UNL     1      24.993   4.551  47.947  1.00  0.00     0.161 HD
BRANCH  24  26
HETATM   26  C7  UNL     1      23.780   3.782  49.453  1.00  0.00     0.159 C 
BRANCH  26  27
HETATM   27  C8  UNL     1      24.615   2.942  50.330  1.00  0.00    -0.041 A 
HETATM   28  C9  UNL     1      23.948   2.040  51.144  1.00  0.00     0.009 A 
HETATM   29  C10 UNL     1      24.682   1.231  51.981  1.00  0.00     0.001 A 
HETATM   30  C11 UNL     1      26.055   1.274  52.052  1.00  0.00     0.000 A 
HETATM   31  C12 UNL     1      26.727   2.180  51.235  1.00  0.00     0.001 A 
HETATM   32  C13 UNL     1      25.992   2.990  50.396  1.00  0.00     0.009 A 
ENDBRANCH  26  27
ENDBRANCH  24  26
ENDBRANCH   7  24
BRANCH   1  33
HETATM   33  O1  UNL     1      26.994  11.499  47.986  1.00  0.00    -0.353 OA
HETATM   34  C1  UNL     1      26.523  11.532  46.653  1.00  0.00     0.206 C 
ENDBRANCH   1  33
TORSDOF 4
ENDMDL
MODEL 8
REMARK VINA RESULT:      -8.6      1.782      2.507
REMARK  4 active torsions:
REMARK  status: ('A' for Active; 'I' for Inactive)
REMARK    1  A    between atoms: O1_2  and  C2_3 
REMARK    2  A    between atoms: C6_9  and  N3_10 
REMARK    3  A    between atoms: N3_10  and  C7_11 
REMARK    4  A    between atoms: C7_11  and  C8_12 
ROOT
HETATM    1  C2  UNL     1      19.123   3.675  50.167  1.00  0.00     0.259 C 
HETATM    2  C3  UNL     1      20.400   3.459  49.905  1.00  0.00     0.121 C 
HETATM    3  C4  UNL     1      21.832   3.734  49.855  1.00  0.00     0.046 A 
HETATM    4  N1  UNL     1      22.207   4.248  48.677  1.00  0.00    -0.248 NA
HETATM    5  C5  UNL     1      23.443   4.609  48.359  1.00  0.00     0.235 A 
HETATM    6  N2  UNL     1      24.330   4.420  49.332  1.00  0.00    -0.227 NA
HETATM    7  C6  UNL     1      24.027   3.913  50.532  1.00  0.00     0.121 A 
HETATM    8  C14 UNL     1      22.753   3.530  50.879  1.00  0.00     0.103 A 
HETATM    9  C15 UNL     1      22.560   2.975  52.194  1.00  0.00     0.006 A 
HETATM   10  C16 UNL     1      22.573   1.646  52.257  1.00  0.00    -0.054 A 
HETATM   11  O2  UNL     1      22.775   1.998  50.941  1.00  0.00     0.000 OA
HETATM   12  C17 UNL     1      22.405   0.677  53.414  1.00  0.00     0.039 C 
HETATM   13  C18 UNL     1      21.176  -0.185  53.048  1.00  0.00     0.005 C 
HETATM   14  C19 UNL     1      20.753  -1.096  54.107  1.00  0.00     0.000 C 
HETATM   15  C20 UNL     1      19.525  -1.920  53.753  1.00  0.00     0.000 C 
HETATM   16  C21 UNL     1      18.432  -1.000  53.292  1.00  0.00     0.009 C 
HETATM   17  C22 UNL     1      18.506  -0.579  51.871  1.00  0.00     0.105 C 
HETATM   18  C23 UNL     1      17.757   0.725  51.739  1.00  0.00     0.241 C 
HETATM   19  O3  UNL     1      17.092   1.774  51.704  1.00  0.00    -0.271 OA
HETATM   20  N4  UNL     1      18.255   1.495  50.618  1.00  0.00    -0.231 N 
HETATM   21  O4  UNL     1      18.268   2.629  49.787  1.00  0.00    -0.231 OA
HETATM   22  H15 UNL     1      22.747   1.270  50.243  1.00  0.00     0.000 HD
HETATM   23  H28 UNL     1      19.022   1.163  49.956  1.00  0.00     0.197 HD
ENDROOT
BRANCH   7  24
HETATM   24  N3  UNL     1      24.971   3.735  51.590  1.00  0.00    -0.373 N 
HETATM   25  H6  UNL     1      24.970   4.097  52.536  1.00  0.00     0.161 HD
BRANCH  24  26
HETATM   26  C7  UNL     1      26.111   2.908  51.265  1.00  0.00     0.159 C 
BRANCH  26  27
HETATM   27  C8  UNL     1      26.264   1.729  52.135  1.00  0.00    -0.041 A 
HETATM   28  C9  UNL     1      26.147   1.945  53.500  1.00  0.00     0.009 A 
HETATM   29  C10 UNL     1      26.280   0.875  54.355  1.00  0.00     0.001 A 
HETATM   30  C11 UNL     1      26.528  -0.406  53.922  1.00  0.00     0.000 A 
HETATM   31  C12 UNL     1      26.647  -0.625  52.551  1.00  0.00     0.001 A 
HETATM   32  C13 UNL     1      26.512   0.446  51.694  1.00  0.00     0.009 A 
ENDBRANCH  26  27
ENDBRANCH  24  26
ENDBRANCH   7  24
BRANCH   1  33
HETATM   33  O1  UNL     1      17.906   4.212  50.572  1.00  0.00    -0.353 OA
HETATM   34  C1  UNL     1      16.888   4.553  49.652  1.00  0.00     0.206 C 
ENDBRANCH   1  33
TORSDOF 4
ENDMDL
MODEL 9
REMARK VINA RESULT:      -8.5      3.315      7.063
REMARK  4 active torsions:
REMARK  status: ('A' for Active; 'I' for Inactive)
REMARK    1  A    between atoms: O1_2  and  C2_3 
REMARK    2  A    between atoms: C6_9  and  N3_10 
REMARK    3  A    between atoms: N3_10  and  C7_11 
REMARK    4  A    between atoms: C7_11  and  C8_12 
ROOT
HETATM    1  C2  UNL     1      22.088   6.660  47.794  1.00  0.00     0.259 C 
HETATM    2  C3  UNL     1      22.112   5.972  48.922  1.00  0.00     0.121 C 
HETATM    3  C4  UNL     1      21.848   4.862  49.830  1.00  0.00     0.046 A 
HETATM    4  N1  UNL     1      20.760   5.074  50.583  1.00  0.00    -0.248 NA
HETATM    5  C5  UNL     1      20.275   4.227  51.481  1.00  0.00     0.235 A 
HETATM    6  N2  UNL     1      20.970   3.098  51.591  1.00  0.00    -0.227 NA
HETATM    7  C6  UNL     1      22.063   2.819  50.873  1.00  0.00     0.121 A 
HETATM    8  C14 UNL     1      22.582   3.685  49.940  1.00  0.00     0.103 A 
HETATM    9  C15 UNL     1      23.779   3.279  49.249  1.00  0.00     0.006 A 
HETATM   10  C16 UNL     1      24.917   3.742  49.761  1.00  0.00    -0.054 A 
HETATM   11  O2  UNL     1      23.888   4.220  50.543  1.00  0.00     0.000 OA
HETATM   12  C17 UNL     1      26.368   3.567  49.350  1.00  0.00     0.039 C 
HETATM   13  C18 UNL     1      26.885   4.995  49.068  1.00  0.00     0.005 C 
HETATM   14  C19 UNL     1      28.236   5.038  48.515  1.00  0.00     0.000 C 
HETATM   15  C20 UNL     1      28.729   6.444  48.212  1.00  0.00     0.000 C 
HETATM   16  C21 UNL     1      27.716   7.147  47.355  1.00  0.00     0.009 C 
HETATM   17  C22 UNL     1      26.572   7.751  48.082  1.00  0.00     0.105 C 
HETATM   18  C23 UNL     1      25.422   7.869  47.112  1.00  0.00     0.241 C 
HETATM   19  O3  UNL     1      24.536   7.967  46.246  1.00  0.00    -0.271 OA
HETATM   20  N4  UNL     1      24.154   7.861  47.812  1.00  0.00    -0.231 N 
HETATM   21  O4  UNL     1      22.749   7.897  47.855  1.00  0.00    -0.231 OA
HETATM   22  H15 UNL     1      24.101   4.921  51.236  1.00  0.00     0.000 HD
HETATM   23  H28 UNL     1      24.054   7.816  48.871  1.00  0.00     0.197 HD
ENDROOT
BRANCH   7  24
HETATM   24  N3  UNL     1      22.795   1.596  50.968  1.00  0.00    -0.373 N 
HETATM   25  H6  UNL     1      23.784   1.413  50.840  1.00  0.00     0.161 HD
BRANCH  24  26
HETATM   26  C7  UNL     1      22.008   0.430  51.299  1.00  0.00     0.159 C 
BRANCH  26  27
HETATM   27  C8  UNL     1      22.300  -0.134  52.628  1.00  0.00    -0.041 A 
HETATM   28  C9  UNL     1      21.216  -0.589  53.362  1.00  0.00     0.009 A 
HETATM   29  C10 UNL     1      21.436  -1.126  54.610  1.00  0.00     0.001 A 
HETATM   30  C11 UNL     1      22.687  -1.233  55.170  1.00  0.00     0.000 A 
HETATM   31  C12 UNL     1      23.779  -0.776  54.434  1.00  0.00     0.001 A 
HETATM   32  C13 UNL     1      23.558  -0.239  53.184  1.00  0.00     0.009 A 
ENDBRANCH  26  27
ENDBRANCH  24  26
ENDBRANCH   7  24
BRANCH   1  33
HETATM   33  O1  UNL     1      21.877   7.099  46.491  1.00  0.00    -0.353 OA
HETATM   34  C1  UNL     1      21.749   6.204  45.404  1.00  0.00     0.206 C 
ENDBRANCH   1  33
TORSDOF 4
ENDMDL
