MODEL 1
REMARK VINA RESULT:      -7.2      0.000      0.000
REMARK  5 active torsions:
REMARK  status: ('A' for Active; 'I' for Inactive)
REMARK    1  A    between atoms: C2_2  and  C3_3 
REMARK    2  A    between atoms: C3_3  and  C7_8 
REMARK    3  A    between atoms: C4_4  and  C5_5 
REMARK    4  A    between atoms: C5_5  and  O1_6 
REMARK    5  A    between atoms: C7_8  and  N1_9 
ROOT
HETATM    1  N1  UNL     1      23.141   3.137  48.527  1.00  0.00    -0.346 N 
HETATM    2  C8  UNL     1      22.479   2.191  47.682  1.00  0.00     0.131 C 
HETATM    3  C9  UNL     1      21.520   1.324  48.392  1.00  0.00     0.016 C 
HETATM    4  C10 UNL     1      21.967   1.341  49.593  1.00  0.00     0.074 C 
HETATM    5  C11 UNL     1      21.675   0.806  50.910  1.00  0.00     0.030 A 
HETATM    6 CL1  UNL     1      20.935   0.010  52.313  1.00  0.00    -0.208 Cl
HETATM    7  C12 UNL     1      22.463   1.018  51.990  1.00  0.00     0.107 A 
HETATM    8  C13 UNL     1      23.387   1.317  53.063  1.00  0.00     0.136 C 
HETATM    9 CL2  UNL     1      23.561   3.038  53.367  1.00  0.00    -0.118 Cl
HETATM   10  C14 UNL     1      24.737   0.675  52.869  1.00  0.00    -0.012 A 
HETATM   11  C15 UNL     1      24.993  -0.495  53.542  1.00  0.00     0.011 A 
HETATM   12  C16 UNL     1      26.224  -1.063  53.328  1.00  0.00     0.001 A 
HETATM   13  C17 UNL     1      27.270  -0.653  52.537  1.00  0.00     0.002 A 
HETATM   14  C18 UNL     1      26.935   0.521  51.901  1.00  0.00     0.030 A 
HETATM   15  C19 UNL     1      25.737   1.167  52.046  1.00  0.00     0.036 A 
HETATM   16  N2  UNL     1      25.567   2.366  51.307  1.00  0.00    -0.381 N 
HETATM   17  C20 UNL     1      25.371   3.404  50.331  1.00  0.00     0.222 C 
HETATM   18  C21 UNL     1      24.249   3.272  49.422  1.00  0.00     0.237 C 
HETATM   19  O2  UNL     1      24.335   4.381  48.922  1.00  0.00    -0.272 OA
HETATM   20  H22 UNL     1      25.807   2.822  52.248  1.00  0.00     0.160 HD
ENDROOT
BRANCH   1  21
HETATM   21  C7  UNL     1      22.379   4.322  47.994  1.00  0.00     0.160 C 
BRANCH  21  22
HETATM   22  C3  UNL     1      21.174   4.528  48.777  1.00  0.00    -0.059 C 
HETATM   23  C4  UNL     1      21.100   4.587  50.112  1.00  0.00     0.004 C 
BRANCH  22  24
HETATM   24  C2  UNL     1      19.835   4.703  48.264  1.00  0.00     0.042 C 
HETATM   25  C1  UNL     1      19.857   4.755  46.903  1.00  0.00    -0.008 C 
ENDBRANCH  22  24
BRANCH  23  26
HETATM   26  C5  UNL     1      19.817   4.797  50.822  1.00  0.00     0.194 C 
BRANCH  26  27
HETATM   27  O1  UNL     1      19.659   3.901  51.886  1.00  0.00    -0.392 OA
HETATM   28  C6  UNL     1      18.705   2.931  51.564  1.00  0.00     0.201 C 
ENDBRANCH  26  27
ENDBRANCH  23  26
ENDBRANCH  21  22
ENDBRANCH   1  21
TORSDOF 5
ENDMDL
MODEL 2
REMARK VINA RESULT:      -6.5      9.861     11.640
REMARK  5 active torsions:
REMARK  status: ('A' for Active; 'I' for Inactive)
REMARK    1  A    between atoms: C2_2  and  C3_3 
REMARK    2  A    between atoms: C3_3  and  C7_8 
REMARK    3  A    between atoms: C4_4  and  C5_5 
REMARK    4  A    between atoms: C5_5  and  O1_6 
REMARK    5  A    between atoms: C7_8  and  N1_9 
ROOT
HETATM    1  N1  UNL     1      30.818   8.676  45.560  1.00  0.00    -0.346 N 
HETATM    2  C8  UNL     1      29.511   8.132  45.769  1.00  0.00     0.131 C 
HETATM    3  C9  UNL     1      29.300   7.586  47.123  1.00  0.00     0.016 C 
HETATM    4  C10 UNL     1      30.493   7.302  47.496  1.00  0.00     0.074 C 
HETATM    5  C11 UNL     1      31.217   6.756  48.629  1.00  0.00     0.030 A 
HETATM    6 CL1  UNL     1      31.692   6.118  50.215  1.00  0.00    -0.208 Cl
HETATM    7  C12 UNL     1      32.554   6.548  48.625  1.00  0.00     0.107 A 
HETATM    8  C13 UNL     1      33.985   6.372  48.494  1.00  0.00     0.136 C 
HETATM    9 CL2  UNL     1      34.839   7.871  48.166  1.00  0.00    -0.118 Cl
HETATM   10  C14 UNL     1      34.355   5.319  47.480  1.00  0.00    -0.012 A 
HETATM   11  C15 UNL     1      34.668   4.065  47.943  1.00  0.00     0.011 A 
HETATM   12  C16 UNL     1      34.982   3.126  46.993  1.00  0.00     0.001 A 
HETATM   13  C17 UNL     1      35.036   3.226  45.623  1.00  0.00     0.002 A 
HETATM   14  C18 UNL     1      34.711   4.509  45.242  1.00  0.00     0.030 A 
HETATM   15  C19 UNL     1      34.384   5.516  46.109  1.00  0.00     0.036 A 
HETATM   16  N2  UNL     1      34.073   6.774  45.533  1.00  0.00    -0.381 N 
HETATM   17  C20 UNL     1      33.511   7.921  44.870  1.00  0.00     0.222 C 
HETATM   18  C21 UNL     1      32.155   8.304  45.216  1.00  0.00     0.237 C 
HETATM   19  O2  UNL     1      32.142   9.360  44.607  1.00  0.00    -0.272 OA
HETATM   20  H22 UNL     1      35.083   7.003  45.814  1.00  0.00     0.160 HD
ENDROOT
BRANCH   1  21
HETATM   21  C7  UNL     1      30.351  10.107  45.567  1.00  0.00     0.160 C 
BRANCH  21  22
HETATM   22  C3  UNL     1      30.399  10.638  46.917  1.00  0.00    -0.059 C 
HETATM   23  C4  UNL     1      29.385  11.214  47.575  1.00  0.00     0.004 C 
BRANCH  22  24
HETATM   24  C2  UNL     1      31.544  10.649  47.797  1.00  0.00     0.042 C 
HETATM   25  C1  UNL     1      32.545  11.396  47.255  1.00  0.00    -0.008 C 
ENDBRANCH  22  24
BRANCH  23  26
HETATM   26  C5  UNL     1      29.533  11.731  48.955  1.00  0.00     0.194 C 
BRANCH  26  27
HETATM   27  O1  UNL     1      28.452  12.539  49.327  1.00  0.00    -0.392 OA
HETATM   28  C6  UNL     1      28.156  13.449  48.308  1.00  0.00     0.201 C 
ENDBRANCH  26  27
ENDBRANCH  23  26
ENDBRANCH  21  22
ENDBRANCH   1  21
TORSDOF 5
ENDMDL
MODEL 3
REMARK VINA RESULT:      -6.5      2.617      7.001
REMARK  5 active torsions:
REMARK  status: ('A' for Active; 'I' for Inactive)
REMARK    1  A    between atoms: C2_2  and  C3_3 
REMARK    2  A    between atoms: C3_3  and  C7_8 
REMARK    3  A    between atoms: C4_4  and  C5_5 
REMARK    4  A    between atoms: C5_5  and  O1_6 
REMARK    5  A    between atoms: C7_8  and  N1_9 
ROOT
HETATM    1  N1  UNL     1      25.432   1.305  51.856  1.00  0.00    -0.346 N 
HETATM    2  C8  UNL     1      24.934   0.758  53.080  1.00  0.00     0.131 C 
HETATM    3  C9  UNL     1      23.560   0.229  52.983  1.00  0.00     0.016 C 
HETATM    4  C10 UNL     1      23.077   0.892  51.999  1.00  0.00     0.074 C 
HETATM    5  C11 UNL     1      21.856   1.028  51.225  1.00  0.00     0.030 A 
HETATM    6 CL1  UNL     1      20.239   0.828  50.523  1.00  0.00    -0.208 Cl
HETATM    7  C12 UNL     1      21.703   1.935  50.232  1.00  0.00     0.107 A 
HETATM    8  C13 UNL     1      21.666   2.946  49.198  1.00  0.00     0.136 C 
HETATM    9 CL2  UNL     1      22.893   2.717  47.962  1.00  0.00    -0.118 Cl
HETATM   10  C14 UNL     1      21.725   4.349  49.747  1.00  0.00    -0.012 A 
HETATM   11  C15 UNL     1      20.543   5.037  49.875  1.00  0.00     0.011 A 
HETATM   12  C16 UNL     1      20.629   6.304  50.396  1.00  0.00     0.001 A 
HETATM   13  C17 UNL     1      21.722   7.020  50.824  1.00  0.00     0.002 A 
HETATM   14  C18 UNL     1      22.861   6.263  50.663  1.00  0.00     0.030 A 
HETATM   15  C19 UNL     1      22.882   4.993  50.154  1.00  0.00     0.036 A 
HETATM   16  N2  UNL     1      24.151   4.364  50.066  1.00  0.00    -0.381 N 
HETATM   17  C20 UNL     1      25.414   3.705  50.264  1.00  0.00     0.222 C 
HETATM   18  C21 UNL     1      25.426   2.496  51.065  1.00  0.00     0.237 C 
HETATM   19  O2  UNL     1      26.582   2.181  50.837  1.00  0.00    -0.272 OA
HETATM   20  H22 UNL     1      24.078   4.662  49.038  1.00  0.00     0.160 HD
ENDROOT
BRANCH   1  21
HETATM   21  C7  UNL     1      26.381   0.164  51.598  1.00  0.00     0.160 C 
BRANCH  21  22
HETATM   22  C3  UNL     1      27.191  -0.083  52.777  1.00  0.00    -0.059 C 
HETATM   23  C4  UNL     1      27.535   0.821  53.702  1.00  0.00     0.004 C 
BRANCH  22  24
HETATM   24  C2  UNL     1      27.778  -1.344  53.168  1.00  0.00     0.042 C 
HETATM   25  C1  UNL     1      27.154  -2.371  52.527  1.00  0.00    -0.008 C 
ENDBRANCH  22  24
BRANCH  23  26
HETATM   26  C5  UNL     1      28.373   0.471  54.873  1.00  0.00     0.194 C 
BRANCH  26  27
HETATM   27  O1  UNL     1      29.221   1.523  55.238  1.00  0.00    -0.392 OA
HETATM   28  C6  UNL     1      29.480   2.341  54.134  1.00  0.00     0.201 C 
ENDBRANCH  26  27
ENDBRANCH  23  26
ENDBRANCH  21  22
ENDBRANCH   1  21
TORSDOF 5
ENDMDL
MODEL 4
REMARK VINA RESULT:      -6.5      3.641      7.179
REMARK  5 active torsions:
REMARK  status: ('A' for Active; 'I' for Inactive)
REMARK    1  A    between atoms: C2_2  and  C3_3 
REMARK    2  A    between atoms: C3_3  and  C7_8 
REMARK    3  A    between atoms: C4_4  and  C5_5 
REMARK    4  A    between atoms: C5_5  and  O1_6 
REMARK    5  A    between atoms: C7_8  and  N1_9 
ROOT
HETATM    1  N1  UNL     1      24.477   3.775  51.206  1.00  0.00    -0.346 N 
HETATM    2  C8  UNL     1      24.814   2.531  50.585  1.00  0.00     0.131 C 
HETATM    3  C9  UNL     1      26.113   2.542  49.887  1.00  0.00     0.016 C 
HETATM    4  C10 UNL     1      26.272   3.786  49.619  1.00  0.00     0.074 C 
HETATM    5  C11 UNL     1      27.217   4.688  48.987  1.00  0.00     0.030 A 
HETATM    6 CL1  UNL     1      28.633   5.416  48.204  1.00  0.00    -0.208 Cl
HETATM    7  C12 UNL     1      26.993   6.015  48.840  1.00  0.00     0.107 A 
HETATM    8  C13 UNL     1      26.633   7.413  48.743  1.00  0.00     0.136 C 
HETATM    9 CL2  UNL     1      26.355   8.166  50.306  1.00  0.00    -0.118 Cl
HETATM   10  C14 UNL     1      25.463   7.655  47.824  1.00  0.00    -0.012 A 
HETATM   11  C15 UNL     1      25.730   8.070  46.542  1.00  0.00     0.011 A 
HETATM   12  C16 UNL     1      24.644   8.263  45.726  1.00  0.00     0.001 A 
HETATM   13  C17 UNL     1      23.302   8.106  45.976  1.00  0.00     0.002 A 
HETATM   14  C18 UNL     1      23.120   7.691  47.276  1.00  0.00     0.030 A 
HETATM   15  C19 UNL     1      24.134   7.471  48.168  1.00  0.00     0.036 A 
HETATM   16  N2  UNL     1      23.756   7.040  49.466  1.00  0.00    -0.381 N 
HETATM   17  C20 UNL     1      23.317   6.352  50.651  1.00  0.00     0.222 C 
HETATM   18  C21 UNL     1      23.900   5.055  50.933  1.00  0.00     0.237 C 
HETATM   19  O2  UNL     1      23.423   4.919  52.047  1.00  0.00    -0.272 OA
HETATM   20  H22 UNL     1      23.909   8.074  49.709  1.00  0.00     0.160 HD
ENDROOT
BRANCH   1  21
HETATM   21  C7  UNL     1      24.715   3.274  52.606  1.00  0.00     0.160 C 
BRANCH  21  22
HETATM   22  C3  UNL     1      24.048   1.998  52.795  1.00  0.00    -0.059 C 
HETATM   23  C4  UNL     1      22.736   1.766  52.662  1.00  0.00     0.004 C 
BRANCH  22  24
HETATM   24  C2  UNL     1      24.670   0.749  53.166  1.00  0.00     0.042 C 
HETATM   25  C1  UNL     1      25.842   0.984  53.819  1.00  0.00    -0.008 C 
ENDBRANCH  22  24
BRANCH  23  26
HETATM   26  C5  UNL     1      22.147   0.425  52.882  1.00  0.00     0.194 C 
BRANCH  26  27
HETATM   27  O1  UNL     1      21.241   0.424  53.950  1.00  0.00    -0.392 OA
HETATM   28  C6  UNL     1      21.557  -0.596  54.852  1.00  0.00     0.201 C 
ENDBRANCH  26  27
ENDBRANCH  23  26
ENDBRANCH  21  22
ENDBRANCH   1  21
TORSDOF 5
ENDMDL
MODEL 5
REMARK VINA RESULT:      -6.5      2.893      7.336
REMARK  5 active torsions:
REMARK  status: ('A' for Active; 'I' for Inactive)
REMARK    1  A    between atoms: C2_2  and  C3_3 
REMARK    2  A    between atoms: C3_3  and  C7_8 
REMARK    3  A    between atoms: C4_4  and  C5_5 
REMARK    4  A    between atoms: C5_5  and  O1_6 
REMARK    5  A    between atoms: C7_8  and  N1_9 
ROOT
HETATM    1  N1  UNL     1      24.264   2.534  51.558  1.00  0.00    -0.346 N 
HETATM    2  C8  UNL     1      25.531   1.964  51.215  1.00  0.00     0.131 C 
HETATM    3  C9  UNL     1      26.474   2.923  50.608  1.00  0.00     0.016 C 
HETATM    4  C10 UNL     1      25.688   3.806  50.111  1.00  0.00     0.074 C 
HETATM    5  C11 UNL     1      25.723   5.055  49.372  1.00  0.00     0.030 A 
HETATM    6 CL1  UNL     1      26.216   6.547  48.548  1.00  0.00    -0.208 Cl
HETATM    7  C12 UNL     1      24.611   5.703  48.955  1.00  0.00     0.107 A 
HETATM    8  C13 UNL     1      23.349   6.295  48.565  1.00  0.00     0.136 C 
HETATM    9 CL2  UNL     1      22.311   6.674  49.929  1.00  0.00    -0.118 Cl
HETATM   10  C14 UNL     1      22.604   5.469  47.547  1.00  0.00    -0.012 A 
HETATM   11  C15 UNL     1      22.703   5.836  46.227  1.00  0.00     0.011 A 
HETATM   12  C16 UNL     1      22.028   5.051  45.325  1.00  0.00     0.001 A 
HETATM   13  C17 UNL     1      21.253   3.933  45.520  1.00  0.00     0.002 A 
HETATM   14  C18 UNL     1      21.205   3.634  46.863  1.00  0.00     0.030 A 
HETATM   15  C19 UNL     1      21.841   4.351  47.840  1.00  0.00     0.036 A 
HETATM   16  N2  UNL     1      21.681   3.889  49.172  1.00  0.00    -0.381 N 
HETATM   17  C20 UNL     1      21.698   3.210  50.440  1.00  0.00     0.222 C 
HETATM   18  C21 UNL     1      22.989   2.869  51.006  1.00  0.00     0.237 C 
HETATM   19  O2  UNL     1      22.579   2.502  52.094  1.00  0.00    -0.272 OA
HETATM   20  H22 UNL     1      20.952   4.676  49.216  1.00  0.00     0.160 HD
ENDROOT
BRANCH   1  21
HETATM   21  C7  UNL     1      24.526   2.512  53.041  1.00  0.00     0.160 C 
BRANCH  21  22
HETATM   22  C3  UNL     1      25.138   1.251  53.419  1.00  0.00    -0.059 C 
HETATM   23  C4  UNL     1      26.313   1.099  54.041  1.00  0.00     0.004 C 
BRANCH  22  24
HETATM   24  C2  UNL     1      24.599  -0.069  53.189  1.00  0.00     0.042 C 
HETATM   25  C1  UNL     1      23.360  -0.173  53.745  1.00  0.00    -0.008 C 
ENDBRANCH  22  24
BRANCH  23  26
HETATM   26  C5  UNL     1      26.859  -0.235  54.382  1.00  0.00     0.194 C 
BRANCH  26  27
HETATM   27  O1  UNL     1      28.045  -0.140  55.118  1.00  0.00    -0.392 OA
HETATM   28  C6  UNL     1      28.924   0.759  54.506  1.00  0.00     0.201 C 
ENDBRANCH  26  27
ENDBRANCH  23  26
ENDBRANCH  21  22
ENDBRANCH   1  21
TORSDOF 5
ENDMDL
MODEL 6
REMARK VINA RESULT:      -6.4      3.388      7.635
REMARK  5 active torsions:
REMARK  status: ('A' for Active; 'I' for Inactive)
REMARK    1  A    between atoms: C2_2  and  C3_3 
REMARK    2  A    between atoms: C3_3  and  C7_8 
REMARK    3  A    between atoms: C4_4  and  C5_5 
REMARK    4  A    between atoms: C5_5  and  O1_6 
REMARK    5  A    between atoms: C7_8  and  N1_9 
ROOT
HETATM    1  N1  UNL     1      21.378   0.961  52.372  1.00  0.00    -0.346 N 
HETATM    2  C8  UNL     1      21.648   0.532  53.710  1.00  0.00     0.131 C 
HETATM    3  C9  UNL     1      20.792  -0.580  54.166  1.00  0.00     0.016 C 
HETATM    4  C10 UNL     1      19.754  -0.452  53.425  1.00  0.00     0.074 C 
HETATM    5  C11 UNL     1      18.465  -1.071  53.177  1.00  0.00     0.030 A 
HETATM    6 CL1  UNL     1      17.054  -2.146  53.160  1.00  0.00    -0.208 Cl
HETATM    7  C12 UNL     1      17.564  -0.582  52.294  1.00  0.00     0.107 A 
HETATM    8  C13 UNL     1      16.688   0.039  51.324  1.00  0.00     0.136 C 
HETATM    9 CL2  UNL     1      17.392   0.137  49.718  1.00  0.00    -0.118 Cl
HETATM   10  C14 UNL     1      16.191   1.392  51.766  1.00  0.00    -0.012 A 
HETATM   11  C15 UNL     1      14.936   1.465  52.319  1.00  0.00     0.011 A 
HETATM   12  C16 UNL     1      14.521   2.708  52.728  1.00  0.00     0.001 A 
HETATM   13  C17 UNL     1      15.163   3.922  52.680  1.00  0.00     0.002 A 
HETATM   14  C18 UNL     1      16.409   3.764  52.115  1.00  0.00     0.030 A 
HETATM   15  C19 UNL     1      16.914   2.570  51.676  1.00  0.00     0.036 A 
HETATM   16  N2  UNL     1      18.221   2.598  51.124  1.00  0.00    -0.381 N 
HETATM   17  C20 UNL     1      19.630   2.661  50.839  1.00  0.00     0.222 C 
HETATM   18  C21 UNL     1      20.512   1.806  51.609  1.00  0.00     0.237 C 
HETATM   19  O2  UNL     1      21.524   2.019  50.962  1.00  0.00    -0.272 OA
HETATM   20  H22 UNL     1      17.685   2.593  50.195  1.00  0.00     0.160 HD
ENDROOT
BRANCH   1  21
HETATM   21  C7  UNL     1      22.638   0.364  51.802  1.00  0.00     0.160 C 
BRANCH  21  22
HETATM   22  C3  UNL     1      23.759   0.639  52.682  1.00  0.00    -0.059 C 
HETATM   23  C4  UNL     1      24.469  -0.269  53.363  1.00  0.00     0.004 C 
BRANCH  22  24
HETATM   24  C2  UNL     1      24.313   1.937  52.989  1.00  0.00     0.042 C 
HETATM   25  C1  UNL     1      24.754   2.540  51.850  1.00  0.00    -0.008 C 
ENDBRANCH  22  24
BRANCH  23  26
HETATM   26  C5  UNL     1      25.598   0.112  54.244  1.00  0.00     0.194 C 
BRANCH  26  27
HETATM   27  O1  UNL     1      26.672  -0.778  54.126  1.00  0.00    -0.392 OA
HETATM   28  C6  UNL     1      27.312  -0.604  52.896  1.00  0.00     0.201 C 
ENDBRANCH  26  27
ENDBRANCH  23  26
ENDBRANCH  21  22
ENDBRANCH   1  21
TORSDOF 5
ENDMDL
MODEL 7
REMARK VINA RESULT:      -6.4      3.811      7.136
REMARK  5 active torsions:
REMARK  status: ('A' for Active; 'I' for Inactive)
REMARK    1  A    between atoms: C2_2  and  C3_3 
REMARK    2  A    between atoms: C3_3  and  C7_8 
REMARK    3  A    between atoms: C4_4  and  C5_5 
REMARK    4  A    between atoms: C5_5  and  O1_6 
REMARK    5  A    between atoms: C7_8  and  N1_9 
ROOT
HETATM    1  N1  UNL     1      24.856   3.149  51.477  1.00  0.00    -0.346 N 
HETATM    2  C8  UNL     1      24.485   3.349  52.844  1.00  0.00     0.131 C 
HETATM    3  C9  UNL     1      23.328   4.246  53.025  1.00  0.00     0.016 C 
HETATM    4  C10 UNL     1      23.360   4.958  51.960  1.00  0.00     0.074 C 
HETATM    5  C11 UNL     1      22.643   6.038  51.306  1.00  0.00     0.030 A 
HETATM    6 CL1  UNL     1      21.470   7.287  50.848  1.00  0.00    -0.208 Cl
HETATM    7  C12 UNL     1      23.041   6.592  50.138  1.00  0.00     0.107 A 
HETATM    8  C13 UNL     1      23.571   7.100  48.890  1.00  0.00     0.136 C 
HETATM    9 CL2  UNL     1      23.673   5.877  47.633  1.00  0.00    -0.118 Cl
HETATM   10  C14 UNL     1      24.897   7.798  49.058  1.00  0.00    -0.012 A 
HETATM   11  C15 UNL     1      24.895   9.169  49.127  1.00  0.00     0.011 A 
HETATM   12  C16 UNL     1      26.116   9.772  49.299  1.00  0.00     0.001 A 
HETATM   13  C17 UNL     1      27.371   9.226  49.418  1.00  0.00     0.002 A 
HETATM   14  C18 UNL     1      27.286   7.854  49.338  1.00  0.00     0.030 A 
HETATM   15  C19 UNL     1      26.120   7.158  49.167  1.00  0.00     0.036 A 
HETATM   16  N2  UNL     1      26.226   5.744  49.112  1.00  0.00    -0.381 N 
HETATM   17  C20 UNL     1      26.381   4.332  49.339  1.00  0.00     0.222 C 
HETATM   18  C21 UNL     1      25.614   3.734  50.415  1.00  0.00     0.237 C 
HETATM   19  O2  UNL     1      25.881   2.573  50.156  1.00  0.00    -0.272 OA
HETATM   20  H22 UNL     1      26.157   5.914  48.055  1.00  0.00     0.160 HD
ENDROOT
BRANCH   1  21
HETATM   21  C7  UNL     1      24.334   1.738  51.420  1.00  0.00     0.160 C 
BRANCH  21  22
HETATM   22  C3  UNL     1      24.788   0.994  52.581  1.00  0.00    -0.059 C 
HETATM   23  C4  UNL     1      26.060   0.820  52.959  1.00  0.00     0.004 C 
BRANCH  22  24
HETATM   24  C2  UNL     1      23.956   0.303  53.539  1.00  0.00     0.042 C 
HETATM   25  C1  UNL     1      22.800  -0.106  52.947  1.00  0.00    -0.008 C 
ENDBRANCH  22  24
BRANCH  23  26
HETATM   26  C5  UNL     1      26.425   0.038  54.163  1.00  0.00     0.194 C 
BRANCH  26  27
HETATM   27  O1  UNL     1      27.301   0.744  54.996  1.00  0.00    -0.392 OA
HETATM   28  C6  UNL     1      28.616   0.322  54.784  1.00  0.00     0.201 C 
ENDBRANCH  26  27
ENDBRANCH  23  26
ENDBRANCH  21  22
ENDBRANCH   1  21
TORSDOF 5
ENDMDL
MODEL 8
REMARK VINA RESULT:      -6.3      2.671      6.194
REMARK  5 active torsions:
REMARK  status: ('A' for Active; 'I' for Inactive)
REMARK    1  A    between atoms: C2_2  and  C3_3 
REMARK    2  A    between atoms: C3_3  and  C7_8 
REMARK    3  A    between atoms: C4_4  and  C5_5 
REMARK    4  A    between atoms: C5_5  and  O1_6 
REMARK    5  A    between atoms: C7_8  and  N1_9 
ROOT
HETATM    1  N1  UNL     1      20.602   1.960  50.124  1.00  0.00    -0.346 N 
HETATM    2  C8  UNL     1      20.815   1.432  48.811  1.00  0.00     0.131 C 
HETATM    3  C9  UNL     1      22.222   1.479  48.369  1.00  0.00     0.016 C 
HETATM    4  C10 UNL     1      22.701   2.438  49.073  1.00  0.00     0.074 C 
HETATM    5  C11 UNL     1      23.943   3.153  49.302  1.00  0.00     0.030 A 
HETATM    6 CL1  UNL     1      25.632   3.697  49.313  1.00  0.00    -0.208 Cl
HETATM    7  C12 UNL     1      24.047   4.211  50.138  1.00  0.00     0.107 A 
HETATM    8  C13 UNL     1      24.026   5.329  51.057  1.00  0.00     0.136 C 
HETATM    9 CL2  UNL     1      23.525   4.881  52.680  1.00  0.00    -0.118 Cl
HETATM   10  C14 UNL     1      23.205   6.488  50.551  1.00  0.00    -0.012 A 
HETATM   11  C15 UNL     1      23.870   7.533  49.958  1.00  0.00     0.011 A 
HETATM   12  C16 UNL     1      23.091   8.563  49.491  1.00  0.00     0.001 A 
HETATM   13  C17 UNL     1      21.728   8.732  49.515  1.00  0.00     0.002 A 
HETATM   14  C18 UNL     1      21.139   7.646  50.124  1.00  0.00     0.030 A 
HETATM   15  C19 UNL     1      21.825   6.571  50.622  1.00  0.00     0.036 A 
HETATM   16  N2  UNL     1      21.048   5.541  51.213  1.00  0.00    -0.381 N 
HETATM   17  C20 UNL     1      20.189   4.435  51.539  1.00  0.00     0.222 C 
HETATM   18  C21 UNL     1      20.395   3.187  50.829  1.00  0.00     0.237 C 
HETATM   19  O2  UNL     1      19.634   2.510  51.498  1.00  0.00    -0.272 OA
HETATM   20  H22 UNL     1      21.348   6.021  52.125  1.00  0.00     0.160 HD
ENDROOT
BRANCH   1  21
HETATM   21  C7  UNL     1      20.365   0.613  50.754  1.00  0.00     0.160 C 
BRANCH  21  22
HETATM   22  C3  UNL     1      21.300   0.406  51.846  1.00  0.00    -0.059 C 
HETATM   23  C4  UNL     1      22.591   0.757  51.857  1.00  0.00     0.004 C 
BRANCH  22  24
HETATM   24  C2  UNL     1      21.013  -0.219  53.116  1.00  0.00     0.042 C 
HETATM   25  C1  UNL     1      19.678  -0.464  53.228  1.00  0.00    -0.008 C 
ENDBRANCH  22  24
BRANCH  23  26
HETATM   26  C5  UNL     1      23.469   0.498  53.021  1.00  0.00     0.194 C 
BRANCH  26  27
HETATM   27  O1  UNL     1      24.542   1.395  53.073  1.00  0.00    -0.392 OA
HETATM   28  C6  UNL     1      25.729   0.752  52.709  1.00  0.00     0.201 C 
ENDBRANCH  26  27
ENDBRANCH  23  26
ENDBRANCH  21  22
ENDBRANCH   1  21
TORSDOF 5
ENDMDL
MODEL 9
REMARK VINA RESULT:      -6.2      9.840     11.368
REMARK  5 active torsions:
REMARK  status: ('A' for Active; 'I' for Inactive)
REMARK    1  A    between atoms: C2_2  and  C3_3 
REMARK    2  A    between atoms: C3_3  and  C7_8 
REMARK    3  A    between atoms: C4_4  and  C5_5 
REMARK    4  A    between atoms: C5_5  and  O1_6 
REMARK    5  A    between atoms: C7_8  and  N1_9 
ROOT
HETATM    1  N1  UNL     1      31.953   9.501  45.193  1.00  0.00    -0.346 N 
HETATM    2  C8  UNL     1      30.814   9.329  44.344  1.00  0.00     0.131 C 
HETATM    3  C9  UNL     1      29.696   8.608  44.981  1.00  0.00     0.016 C 
HETATM    4  C10 UNL     1      30.289   7.922  45.887  1.00  0.00     0.074 C 
HETATM    5  C11 UNL     1      30.003   6.975  46.949  1.00  0.00     0.030 A 
HETATM    6 CL1  UNL     1      29.219   5.923  48.143  1.00  0.00    -0.208 Cl
HETATM    7  C12 UNL     1      30.963   6.393  47.703  1.00  0.00     0.107 A 
HETATM    8  C13 UNL     1      32.081   5.839  48.438  1.00  0.00     0.136 C 
HETATM    9 CL2  UNL     1      33.047   7.060  49.250  1.00  0.00    -0.118 Cl
HETATM   10  C14 UNL     1      32.955   4.950  47.591  1.00  0.00    -0.012 A 
HETATM   11  C15 UNL     1      32.768   3.592  47.682  1.00  0.00     0.011 A 
HETATM   12  C16 UNL     1      33.567   2.812  46.883  1.00  0.00     0.001 A 
HETATM   13  C17 UNL     1      34.545   3.165  45.986  1.00  0.00     0.002 A 
HETATM   14  C18 UNL     1      34.671   4.536  45.955  1.00  0.00     0.030 A 
HETATM   15  C19 UNL     1      33.924   5.399  46.709  1.00  0.00     0.036 A 
HETATM   16  N2  UNL     1      34.190   6.783  46.541  1.00  0.00    -0.381 N 
HETATM   17  C20 UNL     1      34.324   8.151  46.117  1.00  0.00     0.222 C 
HETATM   18  C21 UNL     1      33.131   8.833  45.652  1.00  0.00     0.237 C 
HETATM   19  O2  UNL     1      33.620   9.948  45.576  1.00  0.00    -0.272 OA
HETATM   20  H22 UNL     1      34.754   6.648  47.443  1.00  0.00     0.160 HD
ENDROOT
BRANCH   1  21
HETATM   21  C7  UNL     1      31.723  10.975  45.399  1.00  0.00     0.160 C 
BRANCH  21  22
HETATM   22  C3  UNL     1      30.996  11.195  46.636  1.00  0.00    -0.059 C 
HETATM   23  C4  UNL     1      31.363  10.776  47.853  1.00  0.00     0.004 C 
BRANCH  22  24
HETATM   24  C2  UNL     1      29.744  11.900  46.784  1.00  0.00     0.042 C 
HETATM   25  C1  UNL     1      29.572  12.773  45.752  1.00  0.00    -0.008 C 
ENDBRANCH  22  24
BRANCH  23  26
HETATM   26  C5  UNL     1      30.549  11.047  49.059  1.00  0.00     0.194 C 
BRANCH  26  27
HETATM   27  O1  UNL     1      30.247   9.872  49.758  1.00  0.00    -0.392 OA
HETATM   28  C6  UNL     1      28.936   9.469  49.484  1.00  0.00     0.201 C 
ENDBRANCH  26  27
ENDBRANCH  23  26
ENDBRANCH  21  22
ENDBRANCH   1  21
TORSDOF 5
ENDMDL
