MODEL 1
REMARK VINA RESULT:      -8.4      0.000      0.000
REMARK  1 active torsions:
REMARK  status: ('A' for Active; 'I' for Inactive)
REMARK    1  A    between atoms: S1_2  and  C2_3 
ROOT
HETATM    1  C2  UNL     1      18.992   3.118  50.224  1.00  0.00    -0.016 C 
HETATM    2  C3  UNL     1      19.684   1.972  50.423  1.00  0.00    -0.006 C 
HETATM    3  C4  UNL     1      20.717   1.003  49.975  1.00  0.00     0.084 C 
HETATM    4  C5  UNL     1      21.920   1.026  50.841  1.00  0.00     0.039 C 
HETATM    5  N1  UNL     1      22.413   0.637  52.014  1.00  0.00    -0.179 NA
HETATM    6  N2  UNL     1      23.608   1.289  52.205  1.00  0.00    -0.241 N 
HETATM    7  C6  UNL     1      24.772   1.108  52.924  1.00  0.00     0.120 C 
HETATM    8  N3  UNL     1      25.418  -0.038  52.879  1.00  0.00    -0.273 NA
HETATM    9  C7  UNL     1      26.805   0.316  52.392  1.00  0.00     0.181 C 
HETATM   10  C8  UNL     1      26.770   1.848  52.585  1.00  0.00     0.080 C 
HETATM   11 CL1  UNL     1      28.326   2.380  53.140  1.00  0.00    -0.113 Cl
HETATM   12  C9  UNL     1      26.197   2.567  51.457  1.00  0.00     0.010 C 
HETATM   13  C10 UNL     1      24.996   2.958  51.015  1.00  0.00    -0.029 C 
HETATM   14  C11 UNL     1      24.928   4.040  50.042  1.00  0.00     0.008 C 
HETATM   15  C12 UNL     1      23.720   4.559  49.736  1.00  0.00     0.006 C 
HETATM   16  C13 UNL     1      22.554   4.542  50.642  1.00  0.00     0.150 C 
HETATM   17  O1  UNL     1      21.441   4.119  50.010  1.00  0.00    -0.381 OA
HETATM   18  C14 UNL     1      20.479   4.965  49.582  1.00  0.00     0.182 C 
HETATM   19  C15 UNL     1      19.370   3.996  49.046  1.00  0.00     0.007 C 
HETATM   20  C16 UNL     1      19.860   3.227  47.862  1.00  0.00     0.023 C 
HETATM   21  C17 UNL     1      18.253   4.903  48.609  1.00  0.00     0.023 C 
HETATM   22  C18 UNL     1      22.861   3.630  51.848  1.00  0.00     0.050 C 
HETATM   23  C19 UNL     1      23.626   4.481  52.800  1.00  0.00     0.016 C 
HETATM   24  C20 UNL     1      23.640   2.480  51.343  1.00  0.00     0.095 C 
HETATM   25  C21 UNL     1      23.027   1.782  50.132  1.00  0.00     0.095 C 
HETATM   26  C22 UNL     1      25.771   1.795  53.787  1.00  0.00     0.111 C 
ENDROOT
BRANCH   1  27
HETATM   27  S1  UNL     1      17.690   3.907  51.217  1.00  0.00    -0.138 SA
HETATM   28  C1  UNL     1      16.358   2.732  51.558  1.00  0.00     0.095 C 
ENDBRANCH   1  27
TORSDOF 1
ENDMDL
MODEL 2
REMARK VINA RESULT:      -8.2      2.743      4.138
REMARK  1 active torsions:
REMARK  status: ('A' for Active; 'I' for Inactive)
REMARK    1  A    between atoms: S1_2  and  C2_3 
ROOT
HETATM    1  C2  UNL     1      22.728   6.302  47.345  1.00  0.00    -0.016 C 
HETATM    2  C3  UNL     1      23.983   6.235  47.849  1.00  0.00    -0.006 C 
HETATM    3  C4  UNL     1      24.941   6.519  48.947  1.00  0.00     0.084 C 
HETATM    4  C5  UNL     1      25.374   5.286  49.647  1.00  0.00     0.039 C 
HETATM    5  N1  UNL     1      26.164   4.219  49.564  1.00  0.00    -0.179 NA
HETATM    6  N2  UNL     1      25.807   3.352  50.569  1.00  0.00    -0.241 N 
HETATM    7  C6  UNL     1      26.383   2.328  51.293  1.00  0.00     0.120 C 
HETATM    8  N3  UNL     1      27.559   2.487  51.862  1.00  0.00    -0.273 NA
HETATM    9  C7  UNL     1      27.320   2.219  53.331  1.00  0.00     0.181 C 
HETATM   10  C8  UNL     1      25.927   1.556  53.255  1.00  0.00     0.080 C 
HETATM   11 CL1  UNL     1      25.850   0.273  54.422  1.00  0.00    -0.113 Cl
HETATM   12  C9  UNL     1      24.825   2.507  53.256  1.00  0.00     0.010 C 
HETATM   13  C10 UNL     1      24.125   3.241  52.383  1.00  0.00    -0.029 C 
HETATM   14  C11 UNL     1      22.813   3.734  52.778  1.00  0.00     0.008 C 
HETATM   15  C12 UNL     1      22.031   4.312  51.842  1.00  0.00     0.006 C 
HETATM   16  C13 UNL     1      22.112   4.021  50.396  1.00  0.00     0.150 C 
HETATM   17  O1  UNL     1      22.138   5.153  49.664  1.00  0.00    -0.381 OA
HETATM   18  C14 UNL     1      21.054   5.625  49.011  1.00  0.00     0.182 C 
HETATM   19  C15 UNL     1      21.624   6.856  48.225  1.00  0.00     0.007 C 
HETATM   20  C16 UNL     1      22.089   7.920  49.166  1.00  0.00     0.023 C 
HETATM   21  C17 UNL     1      20.454   7.378  47.438  1.00  0.00     0.023 C 
HETATM   22  C18 UNL     1      23.372   3.176  50.117  1.00  0.00     0.050 C 
HETATM   23  C19 UNL     1      22.976   1.771  50.408  1.00  0.00     0.016 C 
HETATM   24  C20 UNL     1      24.441   3.674  51.009  1.00  0.00     0.095 C 
HETATM   25  C21 UNL     1      24.644   5.186  50.972  1.00  0.00     0.095 C 
HETATM   26  C22 UNL     1      26.155   0.958  51.828  1.00  0.00     0.111 C 
ENDROOT
BRANCH   1  27
HETATM   27  S1  UNL     1      22.052   5.724  45.760  1.00  0.00    -0.138 SA
HETATM   28  C1  UNL     1      21.848   3.927  45.779  1.00  0.00     0.095 C 
ENDBRANCH   1  27
TORSDOF 1
ENDMDL
MODEL 3
REMARK VINA RESULT:      -7.9      1.361      1.543
REMARK  1 active torsions:
REMARK  status: ('A' for Active; 'I' for Inactive)
REMARK    1  A    between atoms: S1_2  and  C2_3 
ROOT
HETATM    1  C2  UNL     1      19.783   4.108  48.354  1.00  0.00    -0.016 C 
HETATM    2  C3  UNL     1      20.296   2.899  48.683  1.00  0.00    -0.006 C 
HETATM    3  C4  UNL     1      21.298   1.827  48.458  1.00  0.00     0.084 C 
HETATM    4  C5  UNL     1      22.278   1.734  49.566  1.00  0.00     0.039 C 
HETATM    5  N1  UNL     1      22.460   1.307  50.812  1.00  0.00    -0.179 NA
HETATM    6  N2  UNL     1      23.644   1.836  51.270  1.00  0.00    -0.241 N 
HETATM    7  C6  UNL     1      24.597   1.543  52.223  1.00  0.00     0.120 C 
HETATM    8  N3  UNL     1      25.119   0.337  52.305  1.00  0.00    -0.273 NA
HETATM    9  C7  UNL     1      26.607   0.545  52.138  1.00  0.00     0.181 C 
HETATM   10  C8  UNL     1      26.685   2.073  52.340  1.00  0.00     0.080 C 
HETATM   11 CL1  UNL     1      28.128   2.450  53.230  1.00  0.00    -0.113 Cl
HETATM   12  C9  UNL     1      26.449   2.838  51.125  1.00  0.00     0.010 C 
HETATM   13  C10 UNL     1      25.421   3.346  50.436  1.00  0.00    -0.029 C 
HETATM   14  C11 UNL     1      25.676   4.420  49.488  1.00  0.00     0.008 C 
HETATM   15  C12 UNL     1      24.623   5.057  48.932  1.00  0.00     0.006 C 
HETATM   16  C13 UNL     1      23.291   5.166  49.561  1.00  0.00     0.150 C 
HETATM   17  O1  UNL     1      22.307   4.853  48.695  1.00  0.00    -0.381 OA
HETATM   18  C14 UNL     1      21.553   5.789  48.079  1.00  0.00     0.182 C 
HETATM   19  C15 UNL     1      20.496   4.934  47.300  1.00  0.00     0.007 C 
HETATM   20  C16 UNL     1      21.154   4.109  46.241  1.00  0.00     0.023 C 
HETATM   21  C17 UNL     1      19.599   5.946  46.642  1.00  0.00     0.023 C 
HETATM   22  C18 UNL     1      23.234   4.238  50.792  1.00  0.00     0.050 C 
HETATM   23  C19 UNL     1      23.853   5.014  51.900  1.00  0.00     0.016 C 
HETATM   24  C20 UNL     1      23.984   3.010  50.453  1.00  0.00     0.095 C 
HETATM   25  C21 UNL     1      23.583   2.368  49.127  1.00  0.00     0.095 C 
HETATM   26  C22 UNL     1      25.447   2.132  53.294  1.00  0.00     0.111 C 
ENDROOT
BRANCH   1  27
HETATM   27  S1  UNL     1      18.381   5.033  49.049  1.00  0.00    -0.138 SA
HETATM   28  C1  UNL     1      17.510   4.030  50.275  1.00  0.00     0.095 C 
ENDBRANCH   1  27
TORSDOF 1
ENDMDL
MODEL 4
REMARK VINA RESULT:      -7.8      9.615     11.543
REMARK  1 active torsions:
REMARK  status: ('A' for Active; 'I' for Inactive)
REMARK    1  A    between atoms: S1_2  and  C2_3 
ROOT
HETATM    1  C2  UNL     1      30.280  10.806  46.261  1.00  0.00    -0.016 C 
HETATM    2  C3  UNL     1      31.238  10.106  45.608  1.00  0.00    -0.006 C 
HETATM    3  C4  UNL     1      32.611   9.543  45.567  1.00  0.00     0.084 C 
HETATM    4  C5  UNL     1      32.613   8.064  45.654  1.00  0.00     0.039 C 
HETATM    5  N1  UNL     1      32.396   6.942  44.973  1.00  0.00    -0.179 NA
HETATM    6  N2  UNL     1      32.372   5.902  45.872  1.00  0.00    -0.241 N 
HETATM    7  C6  UNL     1      32.581   4.538  45.868  1.00  0.00     0.120 C 
HETATM    8  N3  UNL     1      33.663   4.025  45.321  1.00  0.00    -0.273 NA
HETATM    9  C7  UNL     1      34.328   3.244  46.432  1.00  0.00     0.181 C 
HETATM   10  C8  UNL     1      33.169   3.195  47.451  1.00  0.00     0.080 C 
HETATM   11 CL1  UNL     1      33.170   1.643  48.228  1.00  0.00    -0.113 Cl
HETATM   12  C9  UNL     1      33.103   4.361  48.319  1.00  0.00     0.010 C 
HETATM   13  C10 UNL     1      32.572   5.589  48.320  1.00  0.00    -0.029 C 
HETATM   14  C11 UNL     1      32.394   6.273  49.593  1.00  0.00     0.008 C 
HETATM   15  C12 UNL     1      31.693   7.427  49.616  1.00  0.00     0.006 C 
HETATM   16  C13 UNL     1      30.650   7.785  48.633  1.00  0.00     0.150 C 
HETATM   17  O1  UNL     1      30.818   9.038  48.167  1.00  0.00    -0.381 OA
HETATM   18  C14 UNL     1      30.079  10.083  48.600  1.00  0.00     0.182 C 
HETATM   19  C15 UNL     1      30.558  11.259  47.682  1.00  0.00     0.007 C 
HETATM   20  C16 UNL     1      31.995  11.582  47.935  1.00  0.00     0.023 C 
HETATM   21  C17 UNL     1      29.714  12.432  48.098  1.00  0.00     0.023 C 
HETATM   22  C18 UNL     1      30.682   6.774  47.468  1.00  0.00     0.050 C 
HETATM   23  C19 UNL     1      29.882   5.609  47.935  1.00  0.00     0.016 C 
HETATM   24  C20 UNL     1      32.099   6.441  47.212  1.00  0.00     0.095 C 
HETATM   25  C21 UNL     1      33.016   7.651  47.057  1.00  0.00     0.095 C 
HETATM   26  C22 UNL     1      32.048   3.238  46.361  1.00  0.00     0.111 C 
ENDROOT
BRANCH   1  27
HETATM   27  S1  UNL     1      28.584  11.240  45.772  1.00  0.00    -0.138 SA
HETATM   28  C1  UNL     1      27.488   9.816  45.968  1.00  0.00     0.095 C 
ENDBRANCH   1  27
TORSDOF 1
ENDMDL
MODEL 5
REMARK VINA RESULT:      -7.7     10.609     12.717
REMARK  1 active torsions:
REMARK  status: ('A' for Active; 'I' for Inactive)
REMARK    1  A    between atoms: S1_2  and  C2_3 
ROOT
HETATM    1  C2  UNL     1      32.730   4.618  47.545  1.00  0.00    -0.016 C 
HETATM    2  C3  UNL     1      31.936   5.262  48.432  1.00  0.00    -0.006 C 
HETATM    3  C4  UNL     1      31.773   6.270  49.511  1.00  0.00     0.084 C 
HETATM    4  C5  UNL     1      30.997   7.450  49.064  1.00  0.00     0.039 C 
HETATM    5  N1  UNL     1      29.774   7.899  48.795  1.00  0.00    -0.179 NA
HETATM    6  N2  UNL     1      29.901   9.112  48.160  1.00  0.00    -0.241 N 
HETATM    7  C6  UNL     1      29.146  10.250  47.962  1.00  0.00     0.120 C 
HETATM    8  N3  UNL     1      28.563  10.854  48.975  1.00  0.00    -0.273 NA
HETATM    9  C7  UNL     1      29.106  12.265  48.952  1.00  0.00     0.181 C 
HETATM   10  C8  UNL     1      29.738  12.281  47.543  1.00  0.00     0.080 C 
HETATM   11 CL1  UNL     1      29.477  13.842  46.828  1.00  0.00    -0.113 Cl
HETATM   12  C9  UNL     1      31.098  11.764  47.505  1.00  0.00     0.010 C 
HETATM   13  C10 UNL     1      31.727  10.590  47.380  1.00  0.00    -0.029 C 
HETATM   14  C11 UNL     1      33.122  10.587  46.962  1.00  0.00     0.008 C 
HETATM   15  C12 UNL     1      33.703   9.406  46.655  1.00  0.00     0.006 C 
HETATM   16  C13 UNL     1      32.967   8.218  46.177  1.00  0.00     0.150 C 
HETATM   17  O1  UNL     1      33.333   7.107  46.846  1.00  0.00    -0.381 OA
HETATM   18  C14 UNL     1      34.177   6.188  46.329  1.00  0.00     0.182 C 
HETATM   19  C15 UNL     1      34.176   5.058  47.415  1.00  0.00     0.007 C 
HETATM   20  C16 UNL     1      34.767   5.549  48.697  1.00  0.00     0.023 C 
HETATM   21  C17 UNL     1      35.065   3.986  46.847  1.00  0.00     0.023 C 
HETATM   22  C18 UNL     1      31.452   8.461  46.333  1.00  0.00     0.050 C 
HETATM   23  C19 UNL     1      31.050   9.233  45.126  1.00  0.00     0.016 C 
HETATM   24  C20 UNL     1      31.254   9.210  47.593  1.00  0.00     0.095 C 
HETATM   25  C21 UNL     1      31.950   8.602  48.807  1.00  0.00     0.095 C 
HETATM   26  C22 UNL     1      28.725  11.251  46.944  1.00  0.00     0.111 C 
ENDROOT
BRANCH   1  27
HETATM   27  S1  UNL     1      32.345   3.321  46.331  1.00  0.00    -0.138 SA
HETATM   28  C1  UNL     1      32.484   1.686  47.090  1.00  0.00     0.095 C 
ENDBRANCH   1  27
TORSDOF 1
ENDMDL
MODEL 6
REMARK VINA RESULT:      -7.6      2.120      3.298
REMARK  1 active torsions:
REMARK  status: ('A' for Active; 'I' for Inactive)
REMARK    1  A    between atoms: S1_2  and  C2_3 
ROOT
HETATM    1  C2  UNL     1      16.326   1.150  51.390  1.00  0.00    -0.016 C 
HETATM    2  C3  UNL     1      17.293   0.482  52.063  1.00  0.00    -0.006 C 
HETATM    3  C4  UNL     1      18.419  -0.486  52.065  1.00  0.00     0.084 C 
HETATM    4  C5  UNL     1      19.725   0.174  52.300  1.00  0.00     0.039 C 
HETATM    5  N1  UNL     1      20.509   0.715  53.227  1.00  0.00    -0.179 NA
HETATM    6  N2  UNL     1      21.532   1.371  52.584  1.00  0.00    -0.241 N 
HETATM    7  C6  UNL     1      22.821   1.781  52.859  1.00  0.00     0.120 C 
HETATM    8  N3  UNL     1      23.697   0.944  53.374  1.00  0.00    -0.273 NA
HETATM    9  C7  UNL     1      24.843   0.925  52.388  1.00  0.00     0.181 C 
HETATM   10  C8  UNL     1      24.488   2.169  51.546  1.00  0.00     0.080 C 
HETATM   11 CL1  UNL     1      25.953   3.002  51.127  1.00  0.00    -0.113 Cl
HETATM   12  C9  UNL     1      23.559   1.896  50.460  1.00  0.00     0.010 C 
HETATM   13  C10 UNL     1      22.239   1.827  50.255  1.00  0.00    -0.029 C 
HETATM   14  C11 UNL     1      21.736   1.943  48.894  1.00  0.00     0.008 C 
HETATM   15  C12 UNL     1      20.404   2.061  48.704  1.00  0.00     0.006 C 
HETATM   16  C13 UNL     1      19.469   2.621  49.701  1.00  0.00     0.150 C 
HETATM   17  O1  UNL     1      18.386   1.834  49.862  1.00  0.00    -0.381 OA
HETATM   18  C14 UNL     1      17.190   2.115  49.302  1.00  0.00     0.182 C 
HETATM   19  C15 UNL     1      16.257   0.997  49.882  1.00  0.00     0.007 C 
HETATM   20  C16 UNL     1      16.679  -0.353  49.400  1.00  0.00     0.023 C 
HETATM   21  C17 UNL     1      14.897   1.311  49.324  1.00  0.00     0.023 C 
HETATM   22  C18 UNL     1      20.204   2.797  51.045  1.00  0.00     0.050 C 
HETATM   23  C19 UNL     1      20.916   4.100  50.937  1.00  0.00     0.016 C 
HETATM   24  C20 UNL     1      21.121   1.647  51.200  1.00  0.00     0.095 C 
HETATM   25  C21 UNL     1      20.468   0.284  50.982  1.00  0.00     0.095 C 
HETATM   26  C22 UNL     1      23.777   2.913  52.723  1.00  0.00     0.111 C 
ENDROOT
BRANCH   1  27
HETATM   27  S1  UNL     1      15.089   2.350  51.968  1.00  0.00    -0.138 SA
HETATM   28  C1  UNL     1      15.859   3.960  52.258  1.00  0.00     0.095 C 
ENDBRANCH   1  27
TORSDOF 1
ENDMDL
MODEL 7
REMARK VINA RESULT:      -7.4      2.664      3.782
REMARK  1 active torsions:
REMARK  status: ('A' for Active; 'I' for Inactive)
REMARK    1  A    between atoms: S1_2  and  C2_3 
ROOT
HETATM    1  C2  UNL     1      20.615   4.733  48.274  1.00  0.00    -0.016 C 
HETATM    2  C3  UNL     1      19.970   3.604  48.648  1.00  0.00    -0.006 C 
HETATM    3  C4  UNL     1      19.907   2.121  48.704  1.00  0.00     0.084 C 
HETATM    4  C5  UNL     1      20.093   1.603  50.080  1.00  0.00     0.039 C 
HETATM    5  N1  UNL     1      19.500   1.429  51.257  1.00  0.00    -0.179 NA
HETATM    6  N2  UNL     1      20.466   1.075  52.168  1.00  0.00    -0.241 N 
HETATM    7  C6  UNL     1      20.545   0.405  53.372  1.00  0.00     0.120 C 
HETATM    8  N3  UNL     1      19.987  -0.778  53.521  1.00  0.00    -0.273 NA
HETATM    9  C7  UNL     1      21.118  -1.693  53.935  1.00  0.00     0.181 C 
HETATM   10  C8  UNL     1      22.187  -0.641  54.301  1.00  0.00     0.080 C 
HETATM   11 CL1  UNL     1      23.067  -1.194  55.692  1.00  0.00    -0.113 Cl
HETATM   12  C9  UNL     1      22.977  -0.188  53.166  1.00  0.00     0.010 C 
HETATM   13  C10 UNL     1      22.919   0.736  52.200  1.00  0.00    -0.029 C 
HETATM   14  C11 UNL     1      24.150   1.119  51.524  1.00  0.00     0.008 C 
HETATM   15  C12 UNL     1      24.125   2.177  50.685  1.00  0.00     0.006 C 
HETATM   16  C13 UNL     1      23.166   3.296  50.787  1.00  0.00     0.150 C 
HETATM   17  O1  UNL     1      22.611   3.582  49.592  1.00  0.00    -0.381 OA
HETATM   18  C14 UNL     1      23.004   4.630  48.837  1.00  0.00     0.182 C 
HETATM   19  C15 UNL     1      21.989   4.606  47.643  1.00  0.00     0.007 C 
HETATM   20  C16 UNL     1      22.157   3.367  46.825  1.00  0.00     0.023 C 
HETATM   21  C17 UNL     1      22.361   5.798  46.805  1.00  0.00     0.023 C 
HETATM   22  C18 UNL     1      22.071   2.935  51.812  1.00  0.00     0.050 C 
HETATM   23  C19 UNL     1      22.651   3.271  53.141  1.00  0.00     0.016 C 
HETATM   24  C20 UNL     1      21.778   1.494  51.654  1.00  0.00     0.095 C 
HETATM   25  C21 UNL     1      21.502   1.058  50.218  1.00  0.00     0.095 C 
HETATM   26  C22 UNL     1      21.147   0.444  54.733  1.00  0.00     0.111 C 
ENDROOT
BRANCH   1  27
HETATM   27  S1  UNL     1      20.171   6.483  48.491  1.00  0.00    -0.138 SA
HETATM   28  C1  UNL     1      20.797   7.100  50.071  1.00  0.00     0.095 C 
ENDBRANCH   1  27
TORSDOF 1
ENDMDL
MODEL 8
REMARK VINA RESULT:      -7.3      3.584      4.649
REMARK  1 active torsions:
REMARK  status: ('A' for Active; 'I' for Inactive)
REMARK    1  A    between atoms: S1_2  and  C2_3 
ROOT
HETATM    1  C2  UNL     1      14.877   1.963  50.935  1.00  0.00    -0.016 C 
HETATM    2  C3  UNL     1      15.323   0.832  51.531  1.00  0.00    -0.006 C 
HETATM    3  C4  UNL     1      16.023  -0.475  51.440  1.00  0.00     0.084 C 
HETATM    4  C5  UNL     1      17.332  -0.459  52.135  1.00  0.00     0.039 C 
HETATM    5  N1  UNL     1      17.923  -0.501  53.325  1.00  0.00    -0.179 NA
HETATM    6  N2  UNL     1      19.247  -0.175  53.150  1.00  0.00    -0.241 N 
HETATM    7  C6  UNL     1      20.449  -0.384  53.795  1.00  0.00     0.120 C 
HETATM    8  N3  UNL     1      20.808  -1.593  54.172  1.00  0.00    -0.273 NA
HETATM    9  C7  UNL     1      22.133  -1.837  53.485  1.00  0.00     0.181 C 
HETATM   10  C8  UNL     1      22.471  -0.397  53.044  1.00  0.00     0.080 C 
HETATM   11 CL1  UNL     1      24.179  -0.140  53.223  1.00  0.00    -0.113 Cl
HETATM   12  C9  UNL     1      21.885  -0.023  51.765  1.00  0.00     0.010 C 
HETATM   13  C10 UNL     1      20.742   0.486  51.290  1.00  0.00    -0.029 C 
HETATM   14  C11 UNL     1      20.746   1.101  49.971  1.00  0.00     0.008 C 
HETATM   15  C12 UNL     1      19.648   1.776  49.568  1.00  0.00     0.006 C 
HETATM   16  C13 UNL     1      18.683   2.416  50.485  1.00  0.00     0.150 C 
HETATM   17  O1  UNL     1      17.411   2.107  50.160  1.00  0.00    -0.381 OA
HETATM   18  C14 UNL     1      16.601   2.959  49.496  1.00  0.00     0.182 C 
HETATM   19  C15 UNL     1      15.229   2.201  49.479  1.00  0.00     0.007 C 
HETATM   20  C16 UNL     1      15.324   0.944  48.676  1.00  0.00     0.023 C 
HETATM   21  C17 UNL     1      14.282   3.147  48.794  1.00  0.00     0.023 C 
HETATM   22  C18 UNL     1      18.986   1.972  51.931  1.00  0.00     0.050 C 
HETATM   23  C19 UNL     1      20.073   2.874  52.400  1.00  0.00     0.016 C 
HETATM   24  C20 UNL     1      19.392   0.551  51.880  1.00  0.00     0.095 C 
HETATM   25  C21 UNL     1      18.439  -0.352  51.103  1.00  0.00     0.095 C 
HETATM   26  C22 UNL     1      21.709   0.276  54.232  1.00  0.00     0.111 C 
ENDROOT
BRANCH   1  27
HETATM   27  S1  UNL     1      13.974   3.386  51.615  1.00  0.00    -0.138 SA
HETATM   28  C1  UNL     1      14.807   4.015  53.091  1.00  0.00     0.095 C 
ENDBRANCH   1  27
TORSDOF 1
ENDMDL
MODEL 9
REMARK VINA RESULT:      -7.2      4.014      6.378
REMARK  1 active torsions:
REMARK  status: ('A' for Active; 'I' for Inactive)
REMARK    1  A    between atoms: S1_2  and  C2_3 
ROOT
HETATM    1  C2  UNL     1      23.430   1.645  53.047  1.00  0.00    -0.016 C 
HETATM    2  C3  UNL     1      23.023   2.930  53.175  1.00  0.00    -0.006 C 
HETATM    3  C4  UNL     1      23.351   4.371  53.321  1.00  0.00     0.084 C 
HETATM    4  C5  UNL     1      23.015   5.148  52.105  1.00  0.00     0.039 C 
HETATM    5  N1  UNL     1      22.019   5.696  51.414  1.00  0.00    -0.179 NA
HETATM    6  N2  UNL     1      22.512   6.066  50.186  1.00  0.00    -0.241 N 
HETATM    7  C6  UNL     1      22.207   6.969  49.188  1.00  0.00     0.120 C 
HETATM    8  N3  UNL     1      21.992   8.236  49.471  1.00  0.00    -0.273 NA
HETATM    9  C7  UNL     1      23.006   8.997  48.646  1.00  0.00     0.181 C 
HETATM   10  C8  UNL     1      23.451   7.879  47.678  1.00  0.00     0.080 C 
HETATM   11 CL1  UNL     1      23.703   8.566  46.104  1.00  0.00    -0.113 Cl
HETATM   12  C9  UNL     1      24.517   7.039  48.203  1.00  0.00     0.010 C 
HETATM   13  C10 UNL     1      24.660   5.944  48.959  1.00  0.00    -0.029 C 
HETATM   14  C11 UNL     1      25.905   5.195  48.877  1.00  0.00     0.008 C 
HETATM   15  C12 UNL     1      25.981   3.996  49.493  1.00  0.00     0.006 C 
HETATM   16  C13 UNL     1      24.818   3.127  49.766  1.00  0.00     0.150 C 
HETATM   17  O1  UNL     1      24.822   2.681  51.038  1.00  0.00    -0.381 OA
HETATM   18  C14 UNL     1      25.215   1.432  51.372  1.00  0.00     0.182 C 
HETATM   19  C15 UNL     1      24.915   1.368  52.909  1.00  0.00     0.007 C 
HETATM   20  C16 UNL     1      25.774   2.332  53.661  1.00  0.00     0.023 C 
HETATM   21  C17 UNL     1      25.289  -0.033  53.309  1.00  0.00     0.023 C 
HETATM   22  C18 UNL     1      23.520   3.910  49.479  1.00  0.00     0.050 C 
HETATM   23  C19 UNL     1      23.304   3.788  48.011  1.00  0.00     0.016 C 
HETATM   24  C20 UNL     1      23.741   5.304  49.919  1.00  0.00     0.095 C 
HETATM   25  C21 UNL     1      24.290   5.441  51.337  1.00  0.00     0.095 C 
HETATM   26  C22 UNL     1      22.076   7.134  47.714  1.00  0.00     0.111 C 
ENDROOT
BRANCH   1  27
HETATM   27  S1  UNL     1      22.476   0.106  52.893  1.00  0.00    -0.138 SA
HETATM   28  C1  UNL     1      21.644  -0.279  54.452  1.00  0.00     0.095 C 
ENDBRANCH   1  27
TORSDOF 1
ENDMDL
