MODEL 1
REMARK VINA RESULT:      -8.5      0.000      0.000
REMARK  5 active torsions:
REMARK  status: ('A' for Active; 'I' for Inactive)
REMARK    1  A    between atoms: C2_2  and  C3_3 
REMARK    2  A    between atoms: C2_2  and  N1_9 
REMARK    3  A    between atoms: C4_4  and  C5_5 
REMARK    4  A    between atoms: C5_5  and  C7_7 
REMARK    5  A    between atoms: N1_9  and  C8_10 
ROOT
HETATM    1  C8  UNL     1      23.232   0.310  53.578  1.00  0.00     0.141 A 
HETATM    2  C9  UNL     1      22.035  -0.264  54.278  1.00  0.00     0.005 A 
HETATM    3  C10 UNL     1      20.885  -0.251  53.639  1.00  0.00     0.030 A 
HETATM    4  C11 UNL     1      21.239   0.378  52.375  1.00  0.00     0.067 A 
HETATM    5  N2  UNL     1      20.263   0.501  51.521  1.00  0.00    -0.242 NA
HETATM    6  C12 UNL     1      20.258   1.049  50.232  1.00  0.00     0.228 A 
HETATM    7  N3  UNL     1      21.276   1.554  49.681  1.00  0.00    -0.269 NA
HETATM    8  C13 UNL     1      22.645   1.808  49.934  1.00  0.00     0.162 A 
HETATM    9  C14 UNL     1      22.939   3.270  49.661  1.00  0.00     0.006 C 
HETATM   10  C15 UNL     1      24.082   3.935  49.719  1.00  0.00     0.022 C 
HETATM   11  C16 UNL     1      25.370   3.356  50.080  1.00  0.00     0.030 C 
HETATM   12 CL1  UNL     1      26.793   4.090  49.374  1.00  0.00    -0.085 Cl
HETATM   13  C17 UNL     1      25.487   2.318  50.914  1.00  0.00     0.001 C 
HETATM   14  C18 UNL     1      24.585   1.459  51.690  1.00  0.00     0.066 C 
HETATM   15  C19 UNL     1      23.200   1.358  51.206  1.00  0.00    -0.037 A 
HETATM   16  C20 UNL     1      22.669   0.752  52.293  1.00  0.00     0.002 A 
ENDROOT
BRANCH   1  17
HETATM   17  N1  UNL     1      24.156  -0.804  53.458  1.00  0.00    -0.379 N 
HETATM   18  H10 UNL     1      24.582  -1.666  53.096  1.00  0.00     0.160 HD
BRANCH  17  19
HETATM   19  C2  UNL     1      25.107  -0.636  54.498  1.00  0.00     0.018 C 
HETATM   20  C1  UNL     1      24.789  -1.208  55.643  1.00  0.00     0.042 C 
BRANCH  19  21
HETATM   21  C3  UNL     1      26.362   0.092  54.399  1.00  0.00     0.025 C 
HETATM   22  C4  UNL     1      27.305  -0.456  53.654  1.00  0.00    -0.013 C 
BRANCH  22  23
HETATM   23  C5  UNL     1      28.634   0.122  53.430  1.00  0.00     0.065 C 
HETATM   24  C6  UNL     1      29.752  -0.895  53.582  1.00  0.00     0.021 C 
BRANCH  23  25
HETATM   25  C7  UNL     1      28.891   1.196  54.446  1.00  0.00     0.239 C 
HETATM   26  O1  UNL     1      29.418   2.190  54.958  1.00  0.00    -0.306 OA
ENDBRANCH  23  25
ENDBRANCH  22  23
ENDBRANCH  19  21
ENDBRANCH  17  19
ENDBRANCH   1  17
TORSDOF 5
ENDMDL
MODEL 2
REMARK VINA RESULT:      -8.4      2.742      4.664
REMARK  5 active torsions:
REMARK  status: ('A' for Active; 'I' for Inactive)
REMARK    1  A    between atoms: C2_2  and  C3_3 
REMARK    2  A    between atoms: C2_2  and  N1_9 
REMARK    3  A    between atoms: C4_4  and  C5_5 
REMARK    4  A    between atoms: C5_5  and  C7_7 
REMARK    5  A    between atoms: N1_9  and  C8_10 
ROOT
HETATM    1  C8  UNL     1      23.906   2.984  50.460  1.00  0.00     0.141 A 
HETATM    2  C9  UNL     1      23.691   3.960  49.341  1.00  0.00     0.005 A 
HETATM    3  C10 UNL     1      22.496   4.500  49.217  1.00  0.00     0.030 A 
HETATM    4  C11 UNL     1      21.762   3.885  50.314  1.00  0.00     0.067 A 
HETATM    5  N2  UNL     1      20.523   4.268  50.439  1.00  0.00    -0.242 NA
HETATM    6  C12 UNL     1      19.552   3.884  51.372  1.00  0.00     0.228 A 
HETATM    7  N3  UNL     1      19.754   3.035  52.285  1.00  0.00    -0.269 NA
HETATM    8  C13 UNL     1      20.773   2.192  52.791  1.00  0.00     0.162 A 
HETATM    9  C14 UNL     1      20.243   0.776  52.891  1.00  0.00     0.006 C 
HETATM   10  C15 UNL     1      20.825  -0.321  53.350  1.00  0.00     0.022 C 
HETATM   11  C16 UNL     1      22.180  -0.389  53.885  1.00  0.00     0.030 C 
HETATM   12 CL1  UNL     1      22.488  -1.607  55.104  1.00  0.00    -0.085 Cl
HETATM   13  C17 UNL     1      23.160   0.423  53.477  1.00  0.00     0.001 C 
HETATM   14  C18 UNL     1      23.311   1.521  52.515  1.00  0.00     0.066 C 
HETATM   15  C19 UNL     1      22.086   2.252  52.157  1.00  0.00    -0.037 A 
HETATM   16  C20 UNL     1      22.582   2.937  51.101  1.00  0.00     0.002 A 
ENDROOT
BRANCH   1  17
HETATM   17  N1  UNL     1      24.932   3.593  51.286  1.00  0.00    -0.379 N 
HETATM   18  H10 UNL     1      25.368   4.223  51.971  1.00  0.00     0.160 HD
BRANCH  17  19
HETATM   19  C2  UNL     1      26.135   2.901  50.989  1.00  0.00     0.018 C 
HETATM   20  C1  UNL     1      26.593   3.079  49.765  1.00  0.00     0.042 C 
BRANCH  19  21
HETATM   21  C3  UNL     1      26.874   2.041  51.899  1.00  0.00     0.025 C 
HETATM   22  C4  UNL     1      26.587   0.753  51.860  1.00  0.00    -0.013 C 
BRANCH  22  23
HETATM   23  C5  UNL     1      27.221  -0.271  52.696  1.00  0.00     0.065 C 
HETATM   24  C6  UNL     1      26.739  -1.675  52.376  1.00  0.00     0.021 C 
BRANCH  23  25
HETATM   25  C7  UNL     1      26.884  -0.020  54.136  1.00  0.00     0.239 C 
HETATM   26  O1  UNL     1      26.494  -0.264  55.284  1.00  0.00    -0.306 OA
ENDBRANCH  23  25
ENDBRANCH  22  23
ENDBRANCH  19  21
ENDBRANCH  17  19
ENDBRANCH   1  17
TORSDOF 5
ENDMDL
MODEL 3
REMARK VINA RESULT:      -8.3      3.316      6.429
REMARK  5 active torsions:
REMARK  status: ('A' for Active; 'I' for Inactive)
REMARK    1  A    between atoms: C2_2  and  C3_3 
REMARK    2  A    between atoms: C2_2  and  N1_9 
REMARK    3  A    between atoms: C4_4  and  C5_5 
REMARK    4  A    between atoms: C5_5  and  C7_7 
REMARK    5  A    between atoms: N1_9  and  C8_10 
ROOT
HETATM    1  C8  UNL     1      24.873   2.868  50.315  1.00  0.00     0.141 A 
HETATM    2  C9  UNL     1      23.563   3.093  49.620  1.00  0.00     0.005 A 
HETATM    3  C10 UNL     1      22.520   2.404  50.035  1.00  0.00     0.030 A 
HETATM    4  C11 UNL     1      23.085   1.605  51.113  1.00  0.00     0.067 A 
HETATM    5  N2  UNL     1      22.244   0.824  51.729  1.00  0.00    -0.242 NA
HETATM    6  C12 UNL     1      22.451  -0.061  52.794  1.00  0.00     0.228 A 
HETATM    7  N3  UNL     1      23.574  -0.253  53.339  1.00  0.00    -0.269 NA
HETATM    8  C13 UNL     1      24.921   0.173  53.249  1.00  0.00     0.162 A 
HETATM    9  C14 UNL     1      25.821  -1.042  53.146  1.00  0.00     0.006 C 
HETATM   10  C15 UNL     1      27.141  -1.122  53.089  1.00  0.00     0.022 C 
HETATM   11  C16 UNL     1      28.051   0.017  53.118  1.00  0.00     0.030 C 
HETATM   12 CL1  UNL     1      29.635  -0.255  53.811  1.00  0.00    -0.085 Cl
HETATM   13  C17 UNL     1      27.719   1.219  52.638  1.00  0.00     0.001 C 
HETATM   14  C18 UNL     1      26.549   1.832  51.999  1.00  0.00     0.066 C 
HETATM   15  C19 UNL     1      25.250   1.195  52.261  1.00  0.00    -0.037 A 
HETATM   16  C20 UNL     1      24.532   1.846  51.317  1.00  0.00     0.002 A 
ENDROOT
BRANCH   1  17
HETATM   17  N1  UNL     1      25.210   4.158  50.890  1.00  0.00    -0.379 N 
HETATM   18  H10 UNL     1      25.272   4.917  51.580  1.00  0.00     0.160 HD
BRANCH  17  19
HETATM   19  C2  UNL     1      25.906   4.867  49.877  1.00  0.00     0.018 C 
HETATM   20  C1  UNL     1      26.861   4.185  49.275  1.00  0.00     0.042 C 
BRANCH  19  21
HETATM   21  C3  UNL     1      25.654   6.239  49.467  1.00  0.00     0.025 C 
HETATM   22  C4  UNL     1      25.184   7.055  50.392  1.00  0.00    -0.013 C 
BRANCH  22  23
HETATM   23  C5  UNL     1      24.867   8.471  50.176  1.00  0.00     0.065 C 
HETATM   24  C6  UNL     1      24.078   8.711  48.900  1.00  0.00     0.021 C 
BRANCH  23  25
HETATM   25  C7  UNL     1      26.139   9.255  50.047  1.00  0.00     0.239 C 
HETATM   26  O1  UNL     1      27.253   9.693  50.353  1.00  0.00    -0.306 OA
ENDBRANCH  23  25
ENDBRANCH  22  23
ENDBRANCH  19  21
ENDBRANCH  17  19
ENDBRANCH   1  17
TORSDOF 5
ENDMDL
MODEL 4
REMARK VINA RESULT:      -8.1      2.396      3.473
REMARK  5 active torsions:
REMARK  status: ('A' for Active; 'I' for Inactive)
REMARK    1  A    between atoms: C2_2  and  C3_3 
REMARK    2  A    between atoms: C2_2  and  N1_9 
REMARK    3  A    between atoms: C4_4  and  C5_5 
REMARK    4  A    between atoms: C5_5  and  C7_7 
REMARK    5  A    between atoms: N1_9  and  C8_10 
ROOT
HETATM    1  C8  UNL     1      24.292   3.062  51.812  1.00  0.00     0.141 A 
HETATM    2  C9  UNL     1      23.005   3.026  52.582  1.00  0.00     0.005 A 
HETATM    3  C10 UNL     1      22.012   3.778  52.157  1.00  0.00     0.030 A 
HETATM    4  C11 UNL     1      22.592   4.428  50.991  1.00  0.00     0.067 A 
HETATM    5  N2  UNL     1      21.797   5.236  50.349  1.00  0.00    -0.242 NA
HETATM    6  C12 UNL     1      22.030   6.007  49.203  1.00  0.00     0.228 A 
HETATM    7  N3  UNL     1      23.136   6.041  48.594  1.00  0.00    -0.269 NA
HETATM    8  C13 UNL     1      24.439   5.493  48.659  1.00  0.00     0.162 A 
HETATM    9  C14 UNL     1      25.455   6.617  48.617  1.00  0.00     0.006 C 
HETATM   10  C15 UNL     1      26.778   6.570  48.606  1.00  0.00     0.022 C 
HETATM   11  C16 UNL     1      27.573   5.348  48.635  1.00  0.00     0.030 C 
HETATM   12 CL1  UNL     1      29.136   5.405  47.850  1.00  0.00    -0.085 Cl
HETATM   13  C17 UNL     1      27.154   4.227  49.230  1.00  0.00     0.001 C 
HETATM   14  C18 UNL     1      25.967   3.787  49.972  1.00  0.00     0.066 C 
HETATM   15  C19 UNL     1      24.722   4.527  49.715  1.00  0.00    -0.037 A 
HETATM   16  C20 UNL     1      23.997   4.029  50.743  1.00  0.00     0.002 A 
ENDROOT
BRANCH   1  17
HETATM   17  N1  UNL     1      24.473   1.703  51.335  1.00  0.00    -0.379 N 
HETATM   18  H10 UNL     1      24.398   0.880  50.725  1.00  0.00     0.160 HD
BRANCH  17  19
HETATM   19  C2  UNL     1      25.257   1.046  52.318  1.00  0.00     0.018 C 
HETATM   20  C1  UNL     1      24.615   0.138  53.028  1.00  0.00     0.042 C 
BRANCH  19  21
HETATM   21  C3  UNL     1      26.664   1.288  52.591  1.00  0.00     0.025 C 
HETATM   22  C4  UNL     1      27.406   0.227  52.851  1.00  0.00    -0.013 C 
BRANCH  22  23
HETATM   23  C5  UNL     1      28.842   0.263  53.150  1.00  0.00     0.065 C 
HETATM   24  C6  UNL     1      29.372  -1.067  53.656  1.00  0.00     0.021 C 
BRANCH  23  25
HETATM   25  C7  UNL     1      29.102   1.269  54.233  1.00  0.00     0.239 C 
HETATM   26  O1  UNL     1      29.302   2.373  54.750  1.00  0.00    -0.306 OA
ENDBRANCH  23  25
ENDBRANCH  22  23
ENDBRANCH  19  21
ENDBRANCH  17  19
ENDBRANCH   1  17
TORSDOF 5
ENDMDL
MODEL 5
REMARK VINA RESULT:      -8.0      3.624      6.701
REMARK  5 active torsions:
REMARK  status: ('A' for Active; 'I' for Inactive)
REMARK    1  A    between atoms: C2_2  and  C3_3 
REMARK    2  A    between atoms: C2_2  and  N1_9 
REMARK    3  A    between atoms: C4_4  and  C5_5 
REMARK    4  A    between atoms: C5_5  and  C7_7 
REMARK    5  A    between atoms: N1_9  and  C8_10 
ROOT
HETATM    1  C8  UNL     1      22.514  -0.229  52.985  1.00  0.00     0.141 A 
HETATM    2  C9  UNL     1      22.320  -1.387  53.919  1.00  0.00     0.005 A 
HETATM    3  C10 UNL     1      23.283  -1.653  54.778  1.00  0.00     0.030 A 
HETATM    4  C11 UNL     1      24.269  -0.628  54.465  1.00  0.00     0.067 A 
HETATM    5  N2  UNL     1      25.345  -0.647  55.199  1.00  0.00    -0.242 NA
HETATM    6  C12 UNL     1      26.472   0.183  55.168  1.00  0.00     0.228 A 
HETATM    7  N3  UNL     1      26.620   1.132  54.347  1.00  0.00    -0.269 NA
HETATM    8  C13 UNL     1      25.951   1.765  53.272  1.00  0.00     0.162 A 
HETATM    9  C14 UNL     1      26.885   1.839  52.080  1.00  0.00     0.006 C 
HETATM   10  C15 UNL     1      26.702   2.384  50.887  1.00  0.00     0.022 C 
HETATM   11  C16 UNL     1      25.487   3.064  50.455  1.00  0.00     0.030 C 
HETATM   12 CL1  UNL     1      25.674   4.337  49.268  1.00  0.00    -0.085 Cl
HETATM   13  C17 UNL     1      24.275   2.747  50.922  1.00  0.00     0.001 C 
HETATM   14  C18 UNL     1      23.713   1.782  51.874  1.00  0.00     0.066 C 
HETATM   15  C19 UNL     1      24.625   1.277  52.910  1.00  0.00    -0.037 A 
HETATM   16  C20 UNL     1      23.848   0.266  53.362  1.00  0.00     0.002 A 
ENDROOT
BRANCH   1  17
HETATM   17  N1  UNL     1      21.438   0.689  53.311  1.00  0.00    -0.379 N 
HETATM   18  H10 UNL     1      20.928   1.444  53.787  1.00  0.00     0.160 HD
BRANCH  17  19
HETATM   19  C2  UNL     1      20.381   0.385  52.415  1.00  0.00     0.018 C 
HETATM   20  C1  UNL     1      20.703   0.427  51.137  1.00  0.00     0.042 C 
BRANCH  19  21
HETATM   21  C3  UNL     1      19.018   0.042  52.787  1.00  0.00     0.025 C 
HETATM   22  C4  UNL     1      18.795  -1.218  53.114  1.00  0.00    -0.013 C 
BRANCH  22  23
HETATM   23  C5  UNL     1      17.492  -1.760  53.516  1.00  0.00     0.065 C 
HETATM   24  C6  UNL     1      17.475  -3.277  53.568  1.00  0.00     0.021 C 
BRANCH  23  25
HETATM   25  C7  UNL     1      16.450  -1.353  52.517  1.00  0.00     0.239 C 
HETATM   26  O1  UNL     1      15.501  -1.472  51.735  1.00  0.00    -0.306 OA
ENDBRANCH  23  25
ENDBRANCH  22  23
ENDBRANCH  19  21
ENDBRANCH  17  19
ENDBRANCH   1  17
TORSDOF 5
ENDMDL
MODEL 6
REMARK VINA RESULT:      -8.0      2.984      5.645
REMARK  5 active torsions:
REMARK  status: ('A' for Active; 'I' for Inactive)
REMARK    1  A    between atoms: C2_2  and  C3_3 
REMARK    2  A    between atoms: C2_2  and  N1_9 
REMARK    3  A    between atoms: C4_4  and  C5_5 
REMARK    4  A    between atoms: C5_5  and  C7_7 
REMARK    5  A    between atoms: N1_9  and  C8_10 
ROOT
HETATM    1  C8  UNL     1      23.501   2.828  51.369  1.00  0.00     0.141 A 
HETATM    2  C9  UNL     1      22.065   2.772  50.938  1.00  0.00     0.005 A 
HETATM    3  C10 UNL     1      21.325   1.783  51.393  1.00  0.00     0.030 A 
HETATM    4  C11 UNL     1      22.269   1.042  52.217  1.00  0.00     0.067 A 
HETATM    5  N2  UNL     1      21.782  -0.005  52.820  1.00  0.00    -0.242 NA
HETATM    6  C12 UNL     1      22.404  -0.923  53.675  1.00  0.00     0.228 A 
HETATM    7  N3  UNL     1      23.625  -0.868  53.994  1.00  0.00    -0.269 NA
HETATM    8  C13 UNL     1      24.782  -0.087  53.764  1.00  0.00     0.162 A 
HETATM    9  C14 UNL     1      25.913  -0.992  53.317  1.00  0.00     0.006 C 
HETATM   10  C15 UNL     1      27.175  -0.705  53.038  1.00  0.00     0.022 C 
HETATM   11  C16 UNL     1      27.767   0.626  53.112  1.00  0.00     0.030 C 
HETATM   12 CL1  UNL     1      29.474   0.711  53.489  1.00  0.00    -0.085 Cl
HETATM   13  C17 UNL     1      27.064   1.743  52.900  1.00  0.00     0.001 C 
HETATM   14  C18 UNL     1      25.677   2.089  52.567  1.00  0.00     0.066 C 
HETATM   15  C19 UNL     1      24.651   1.098  52.921  1.00  0.00    -0.037 A 
HETATM   16  C20 UNL     1      23.624   1.639  52.226  1.00  0.00     0.002 A 
ENDROOT
BRANCH   1  17
HETATM   17  N1  UNL     1      23.619   4.082  52.091  1.00  0.00    -0.379 N 
HETATM   18  H10 UNL     1      23.588   4.749  52.871  1.00  0.00     0.160 HD
BRANCH  17  19
HETATM   19  C2  UNL     1      24.067   5.038  51.143  1.00  0.00     0.018 C 
HETATM   20  C1  UNL     1      23.486   6.219  51.224  1.00  0.00     0.042 C 
BRANCH  19  21
HETATM   21  C3  UNL     1      25.083   4.821  50.125  1.00  0.00     0.025 C 
HETATM   22  C4  UNL     1      25.644   5.901  49.611  1.00  0.00    -0.013 C 
BRANCH  22  23
HETATM   23  C5  UNL     1      26.684   5.892  48.578  1.00  0.00     0.065 C 
HETATM   24  C6  UNL     1      27.632   4.712  48.705  1.00  0.00     0.021 C 
BRANCH  23  25
HETATM   25  C7  UNL     1      27.522   7.131  48.700  1.00  0.00     0.239 C 
HETATM   26  O1  UNL     1      27.870   8.303  48.524  1.00  0.00    -0.306 OA
ENDBRANCH  23  25
ENDBRANCH  22  23
ENDBRANCH  19  21
ENDBRANCH  17  19
ENDBRANCH   1  17
TORSDOF 5
ENDMDL
MODEL 7
REMARK VINA RESULT:      -7.9      2.890      5.787
REMARK  5 active torsions:
REMARK  status: ('A' for Active; 'I' for Inactive)
REMARK    1  A    between atoms: C2_2  and  C3_3 
REMARK    2  A    between atoms: C2_2  and  N1_9 
REMARK    3  A    between atoms: C4_4  and  C5_5 
REMARK    4  A    between atoms: C5_5  and  C7_7 
REMARK    5  A    between atoms: N1_9  and  C8_10 
ROOT
HETATM    1  C8  UNL     1      22.524  -0.296  53.441  1.00  0.00     0.141 A 
HETATM    2  C9  UNL     1      22.428  -1.444  54.401  1.00  0.00     0.005 A 
HETATM    3  C10 UNL     1      23.474  -1.703  55.158  1.00  0.00     0.030 A 
HETATM    4  C11 UNL     1      24.423  -0.682  54.734  1.00  0.00     0.067 A 
HETATM    5  N2  UNL     1      25.569  -0.695  55.353  1.00  0.00    -0.242 NA
HETATM    6  C12 UNL     1      26.687   0.134  55.196  1.00  0.00     0.228 A 
HETATM    7  N3  UNL     1      26.749   1.075  54.355  1.00  0.00    -0.269 NA
HETATM    8  C13 UNL     1      25.972   1.697  53.350  1.00  0.00     0.162 A 
HETATM    9  C14 UNL     1      26.777   1.759  52.066  1.00  0.00     0.006 C 
HETATM   10  C15 UNL     1      26.471   2.292  50.894  1.00  0.00     0.022 C 
HETATM   11  C16 UNL     1      25.218   2.970  50.583  1.00  0.00     0.030 C 
HETATM   12 CL1  UNL     1      25.281   4.230  49.371  1.00  0.00    -0.085 Cl
HETATM   13  C17 UNL     1      24.061   2.658  51.176  1.00  0.00     0.001 C 
HETATM   14  C18 UNL     1      23.601   1.703  52.191  1.00  0.00     0.066 C 
HETATM   15  C19 UNL     1      24.615   1.207  53.132  1.00  0.00    -0.037 A 
HETATM   16  C20 UNL     1      23.889   0.201  53.672  1.00  0.00     0.002 A 
ENDROOT
BRANCH   1  17
HETATM   17  N1  UNL     1      21.488   0.627  53.867  1.00  0.00    -0.379 N 
HETATM   18  H10 UNL     1      21.017   1.361  54.411  1.00  0.00     0.160 HD
BRANCH  17  19
HETATM   19  C2  UNL     1      20.390   0.412  52.994  1.00  0.00     0.018 C 
HETATM   20  C1  UNL     1      19.580  -0.568  53.347  1.00  0.00     0.042 C 
BRANCH  19  21
HETATM   21  C3  UNL     1      20.100   1.164  51.784  1.00  0.00     0.025 C 
HETATM   22  C4  UNL     1      20.670   0.737  50.673  1.00  0.00    -0.013 C 
BRANCH  22  23
HETATM   23  C5  UNL     1      20.503   1.358  49.355  1.00  0.00     0.065 C 
HETATM   24  C6  UNL     1      21.713   1.172  48.456  1.00  0.00     0.021 C 
BRANCH  23  25
HETATM   25  C7  UNL     1      20.315   2.838  49.519  1.00  0.00     0.239 C 
HETATM   26  O1  UNL     1      19.737   3.900  49.772  1.00  0.00    -0.306 OA
ENDBRANCH  23  25
ENDBRANCH  22  23
ENDBRANCH  19  21
ENDBRANCH  17  19
ENDBRANCH   1  17
TORSDOF 5
ENDMDL
MODEL 8
REMARK VINA RESULT:      -7.9      3.235      6.279
REMARK  5 active torsions:
REMARK  status: ('A' for Active; 'I' for Inactive)
REMARK    1  A    between atoms: C2_2  and  C3_3 
REMARK    2  A    between atoms: C2_2  and  N1_9 
REMARK    3  A    between atoms: C4_4  and  C5_5 
REMARK    4  A    between atoms: C5_5  and  C7_7 
REMARK    5  A    between atoms: N1_9  and  C8_10 
ROOT
HETATM    1  C8  UNL     1      25.079   2.171  52.425  1.00  0.00     0.141 A 
HETATM    2  C9  UNL     1      26.453   2.470  52.949  1.00  0.00     0.005 A 
HETATM    3  C10 UNL     1      26.921   1.709  53.916  1.00  0.00     0.030 A 
HETATM    4  C11 UNL     1      25.824   0.779  54.138  1.00  0.00     0.067 A 
HETATM    5  N2  UNL     1      26.033  -0.122  55.056  1.00  0.00    -0.242 NA
HETATM    6  C12 UNL     1      25.203  -1.153  55.512  1.00  0.00     0.228 A 
HETATM    7  N3  UNL     1      24.036  -1.360  55.073  1.00  0.00    -0.269 NA
HETATM    8  C13 UNL     1      23.113  -0.844  54.133  1.00  0.00     0.162 A 
HETATM    9  C14 UNL     1      21.789  -0.588  54.825  1.00  0.00     0.006 C 
HETATM   10  C15 UNL     1      20.639  -0.155  54.332  1.00  0.00     0.022 C 
HETATM   11  C16 UNL     1      20.402   0.183  52.934  1.00  0.00     0.030 C 
HETATM   12 CL1  UNL     1      18.773  -0.037  52.333  1.00  0.00    -0.085 Cl
HETATM   13  C17 UNL     1      21.363   0.647  52.130  1.00  0.00     0.001 C 
HETATM   14  C18 UNL     1      22.791   0.968  52.240  1.00  0.00     0.066 C 
HETATM   15  C19 UNL     1      23.535   0.283  53.307  1.00  0.00    -0.037 A 
HETATM   16  C20 UNL     1      24.663   1.029  53.254  1.00  0.00     0.002 A 
ENDROOT
BRANCH   1  17
HETATM   17  N1  UNL     1      25.284   1.835  51.028  1.00  0.00    -0.379 N 
HETATM   18  H10 UNL     1      25.467   1.266  50.193  1.00  0.00     0.160 HD
BRANCH  17  19
HETATM   19  C2  UNL     1      25.158   3.053  50.311  1.00  0.00     0.018 C 
HETATM   20  C1  UNL     1      23.999   3.666  50.451  1.00  0.00     0.042 C 
BRANCH  19  21
HETATM   21  C3  UNL     1      26.175   3.655  49.464  1.00  0.00     0.025 C 
HETATM   22  C4  UNL     1      26.101   4.961  49.290  1.00  0.00    -0.013 C 
BRANCH  22  23
HETATM   23  C5  UNL     1      27.030   5.751  48.475  1.00  0.00     0.065 C 
HETATM   24  C6  UNL     1      28.447   5.207  48.502  1.00  0.00     0.021 C 
BRANCH  23  25
HETATM   25  C7  UNL     1      27.098   7.152  49.008  1.00  0.00     0.239 C 
HETATM   26  O1  UNL     1      27.550   8.285  49.203  1.00  0.00    -0.306 OA
ENDBRANCH  23  25
ENDBRANCH  22  23
ENDBRANCH  19  21
ENDBRANCH  17  19
ENDBRANCH   1  17
TORSDOF 5
ENDMDL
MODEL 9
REMARK VINA RESULT:      -7.8      3.001      5.066
REMARK  5 active torsions:
REMARK  status: ('A' for Active; 'I' for Inactive)
REMARK    1  A    between atoms: C2_2  and  C3_3 
REMARK    2  A    between atoms: C2_2  and  N1_9 
REMARK    3  A    between atoms: C4_4  and  C5_5 
REMARK    4  A    between atoms: C5_5  and  C7_7 
REMARK    5  A    between atoms: N1_9  and  C8_10 
ROOT
HETATM    1  C8  UNL     1      23.932   3.517  51.631  1.00  0.00     0.141 A 
HETATM    2  C9  UNL     1      22.599   3.663  52.306  1.00  0.00     0.005 A 
HETATM    3  C10 UNL     1      21.730   4.499  51.779  1.00  0.00     0.030 A 
HETATM    4  C11 UNL     1      22.459   5.021  50.632  1.00  0.00     0.067 A 
HETATM    5  N2  UNL     1      21.807   5.879  49.900  1.00  0.00    -0.242 NA
HETATM    6  C12 UNL     1      22.204   6.562  48.744  1.00  0.00     0.228 A 
HETATM    7  N3  UNL     1      23.346   6.443  48.216  1.00  0.00    -0.269 NA
HETATM    8  C13 UNL     1      24.570   5.757  48.399  1.00  0.00     0.162 A 
HETATM    9  C14 UNL     1      25.708   6.758  48.384  1.00  0.00     0.006 C 
HETATM   10  C15 UNL     1      27.014   6.563  48.473  1.00  0.00     0.022 C 
HETATM   11  C16 UNL     1      27.661   5.264  48.610  1.00  0.00     0.030 C 
HETATM   12 CL1  UNL     1      29.270   5.107  47.940  1.00  0.00    -0.085 Cl
HETATM   13  C17 UNL     1      27.077   4.227  49.219  1.00  0.00     0.001 C 
HETATM   14  C18 UNL     1      25.799   3.959  49.890  1.00  0.00     0.066 C 
HETATM   15  C19 UNL     1      24.668   4.819  49.512  1.00  0.00    -0.037 A 
HETATM   16  C20 UNL     1      23.822   4.457  50.504  1.00  0.00     0.002 A 
ENDROOT
BRANCH   1  17
HETATM   17  N1  UNL     1      23.988   2.125  51.226  1.00  0.00    -0.379 N 
HETATM   18  H10 UNL     1      23.909   1.293  50.629  1.00  0.00     0.160 HD
BRANCH  17  19
HETATM   19  C2  UNL     1      24.440   1.405  52.363  1.00  0.00     0.018 C 
HETATM   20  C1  UNL     1      25.496   1.918  52.964  1.00  0.00     0.042 C 
BRANCH  19  21
HETATM   21  C3  UNL     1      23.847   0.190  52.897  1.00  0.00     0.025 C 
HETATM   22  C4  UNL     1      22.529   0.156  52.964  1.00  0.00    -0.013 C 
BRANCH  22  23
HETATM   23  C5  UNL     1      21.746  -0.976  53.471  1.00  0.00     0.065 C 
HETATM   24  C6  UNL     1      20.264  -0.664  53.585  1.00  0.00     0.021 C 
BRANCH  23  25
HETATM   25  C7  UNL     1      22.216  -1.333  54.850  1.00  0.00     0.239 C 
HETATM   26  O1  UNL     1      23.010  -1.589  55.762  1.00  0.00    -0.306 OA
ENDBRANCH  23  25
ENDBRANCH  22  23
ENDBRANCH  19  21
ENDBRANCH  17  19
ENDBRANCH   1  17
TORSDOF 5
ENDMDL
