MODEL 1
REMARK VINA RESULT:      -7.4      0.000      0.000
REMARK  7 active torsions:
REMARK  status: ('A' for Active; 'I' for Inactive)
REMARK       I    between atoms: C1_2  and  N1_3 
REMARK       I    between atoms: C1_2  and  N2_17 
REMARK    1  A    between atoms: N1_3  and  C2_4 
REMARK    2  A    between atoms: N1_3  and  C6_9 
REMARK    3  A    between atoms: C2_4  and  C3_5 
REMARK    4  A    between atoms: C3_5  and  C4_6 
REMARK    5  A    between atoms: C4_6  and  C5_7 
REMARK    6  A    between atoms: C6_9  and  C7_10 
REMARK    7  A    between atoms: C10_13  and  O2_14 
ROOT
HETATM    1  O1  UNL     1      26.913   2.495  54.185  1.00  0.00    -0.246 OA
HETATM    2  C1  UNL     1      26.752   1.390  53.569  1.00  0.00     0.328 C 
HETATM    3  N1  UNL     1      25.455   1.629  53.050  1.00  0.00    -0.328 N 
HETATM    4  N2  UNL     1      27.716   0.354  53.538  1.00  0.00    -0.286 N 
HETATM    5  C13 UNL     1      27.734  -0.861  52.964  1.00  0.00     0.101 A 
HETATM    6  C14 UNL     1      28.920  -1.520  53.211  1.00  0.00     0.019 A 
HETATM    7  C15 UNL     1      29.601  -0.601  53.975  1.00  0.00     0.019 A 
HETATM    8  C16 UNL     1      28.883   0.537  54.180  1.00  0.00     0.101 A 
ENDROOT
BRANCH   3   9
HETATM    9  C2  UNL     1      24.928   2.930  53.439  1.00  0.00     0.145 C 
BRANCH   9  10
HETATM   10  C3  UNL     1      23.933   3.453  52.521  1.00  0.00     0.092 C 
BRANCH  10  11
HETATM   11  C4  UNL     1      24.382   4.088  51.444  1.00  0.00    -0.141 C 
BRANCH  11  12
HETATM   12  C5  UNL     1      25.015   4.488  50.348  1.00  0.00     0.107 C 
HETATM   13 BR1  UNL     1      26.419   3.405  49.692  1.00  0.00    -0.055 Br
ENDBRANCH  11  12
ENDBRANCH  10  11
ENDBRANCH   9  10
ENDBRANCH   3   9
BRANCH   3  14
HETATM   14  C6  UNL     1      24.627   0.778  52.204  1.00  0.00     0.166 C 
BRANCH  14  15
HETATM   15  C7  UNL     1      23.549   0.089  52.913  1.00  0.00    -0.040 A 
HETATM   16  C8  UNL     1      23.638  -0.621  54.089  1.00  0.00     0.011 A 
HETATM   17  C9  UNL     1      22.617  -1.263  54.755  1.00  0.00     0.037 A 
HETATM   18  C10 UNL     1      21.360  -1.196  54.192  1.00  0.00     0.065 A 
HETATM   19  C11 UNL     1      21.174  -0.506  53.014  1.00  0.00     0.037 A 
HETATM   20  C12 UNL     1      22.244   0.112  52.405  1.00  0.00     0.011 A 
BRANCH  18  21
HETATM   21  O2  UNL     1      20.317  -1.836  54.845  1.00  0.00    -0.361 OA
HETATM   22  H9  UNL     1      20.574  -2.589  55.483  1.00  0.00     0.217 HD
ENDBRANCH  18  21
ENDBRANCH  14  15
ENDBRANCH   3  14
TORSDOF 7
ENDMDL
MODEL 2
REMARK VINA RESULT:      -7.3      2.347      5.150
REMARK  7 active torsions:
REMARK  status: ('A' for Active; 'I' for Inactive)
REMARK       I    between atoms: C1_2  and  N1_3 
REMARK       I    between atoms: C1_2  and  N2_17 
REMARK    1  A    between atoms: N1_3  and  C2_4 
REMARK    2  A    between atoms: N1_3  and  C6_9 
REMARK    3  A    between atoms: C2_4  and  C3_5 
REMARK    4  A    between atoms: C3_5  and  C4_6 
REMARK    5  A    between atoms: C4_6  and  C5_7 
REMARK    6  A    between atoms: C6_9  and  C7_10 
REMARK    7  A    between atoms: C10_13  and  O2_14 
ROOT
HETATM    1  O1  UNL     1      23.137   1.674  51.001  1.00  0.00    -0.246 OA
HETATM    2  C1  UNL     1      23.657   1.176  52.054  1.00  0.00     0.328 C 
HETATM    3  N1  UNL     1      24.942   1.763  51.948  1.00  0.00    -0.328 N 
HETATM    4  N2  UNL     1      22.972   0.309  52.939  1.00  0.00    -0.286 N 
HETATM    5  C13 UNL     1      23.337  -0.313  54.074  1.00  0.00     0.101 A 
HETATM    6  C14 UNL     1      22.303  -1.062  54.595  1.00  0.00     0.019 A 
HETATM    7  C15 UNL     1      21.300  -0.835  53.681  1.00  0.00     0.019 A 
HETATM    8  C16 UNL     1      21.693  -0.007  52.674  1.00  0.00     0.101 A 
ENDROOT
BRANCH   3   9
HETATM    9  C2  UNL     1      25.080   2.597  50.761  1.00  0.00     0.145 C 
BRANCH   9  10
HETATM   10  C3  UNL     1      26.451   2.736  50.306  1.00  0.00     0.092 C 
BRANCH  10  11
HETATM   11  C4  UNL     1      26.742   3.816  49.588  1.00  0.00    -0.141 C 
BRANCH  11  12
HETATM   12  C5  UNL     1      26.758   4.982  48.955  1.00  0.00     0.107 C 
HETATM   13 BR1  UNL     1      28.421   5.626  48.329  1.00  0.00    -0.055 Br
ENDBRANCH  11  12
ENDBRANCH  10  11
ENDBRANCH   9  10
ENDBRANCH   3   9
BRANCH   3  14
HETATM   14  C6  UNL     1      26.086   1.649  52.844  1.00  0.00     0.166 C 
BRANCH  14  15
HETATM   15  C7  UNL     1      26.719   0.329  52.850  1.00  0.00    -0.040 A 
HETATM   16  C8  UNL     1      26.255  -0.826  52.260  1.00  0.00     0.011 A 
HETATM   17  C9  UNL     1      26.858  -2.064  52.265  1.00  0.00     0.037 A 
HETATM   18  C10 UNL     1      28.059  -2.175  52.933  1.00  0.00     0.065 A 
HETATM   19  C11 UNL     1      28.602  -1.071  53.555  1.00  0.00     0.037 A 
HETATM   20  C12 UNL     1      27.940   0.136  53.507  1.00  0.00     0.011 A 
BRANCH  18  21
HETATM   21  O2  UNL     1      28.684  -3.413  52.951  1.00  0.00    -0.361 OA
HETATM   22  H9  UNL     1      29.701  -3.411  52.858  1.00  0.00     0.217 HD
ENDBRANCH  18  21
ENDBRANCH  14  15
ENDBRANCH   3  14
TORSDOF 7
ENDMDL
MODEL 3
REMARK VINA RESULT:      -7.1      1.539      1.950
REMARK  7 active torsions:
REMARK  status: ('A' for Active; 'I' for Inactive)
REMARK       I    between atoms: C1_2  and  N1_3 
REMARK       I    between atoms: C1_2  and  N2_17 
REMARK    1  A    between atoms: N1_3  and  C2_4 
REMARK    2  A    between atoms: N1_3  and  C6_9 
REMARK    3  A    between atoms: C2_4  and  C3_5 
REMARK    4  A    between atoms: C3_5  and  C4_6 
REMARK    5  A    between atoms: C4_6  and  C5_7 
REMARK    6  A    between atoms: C6_9  and  C7_10 
REMARK    7  A    between atoms: C10_13  and  O2_14 
ROOT
HETATM    1  O1  UNL     1      26.705   2.428  54.223  1.00  0.00    -0.246 OA
HETATM    2  C1  UNL     1      26.640   1.326  53.584  1.00  0.00     0.328 C 
HETATM    3  N1  UNL     1      25.356   1.496  53.008  1.00  0.00    -0.328 N 
HETATM    4  N2  UNL     1      27.666   0.352  53.583  1.00  0.00    -0.286 N 
HETATM    5  C13 UNL     1      27.785  -0.850  52.992  1.00  0.00     0.101 A 
HETATM    6  C14 UNL     1      28.996  -1.441  53.285  1.00  0.00     0.019 A 
HETATM    7  C15 UNL     1      29.584  -0.495  54.093  1.00  0.00     0.019 A 
HETATM    8  C16 UNL     1      28.789   0.594  54.281  1.00  0.00     0.101 A 
ENDROOT
BRANCH   3   9
HETATM    9  C2  UNL     1      24.733   2.756  53.392  1.00  0.00     0.145 C 
BRANCH   9  10
HETATM   10  C3  UNL     1      24.291   3.553  52.263  1.00  0.00     0.092 C 
BRANCH  10  11
HETATM   11  C4  UNL     1      23.128   4.182  52.387  1.00  0.00    -0.141 C 
BRANCH  11  12
HETATM   12  C5  UNL     1      21.969   4.806  52.211  1.00  0.00     0.107 C 
HETATM   13 BR1  UNL     1      20.483   3.774  51.664  1.00  0.00    -0.055 Br
ENDBRANCH  11  12
ENDBRANCH  10  11
ENDBRANCH   9  10
ENDBRANCH   3   9
BRANCH   3  14
HETATM   14  C6  UNL     1      24.621   0.611  52.113  1.00  0.00     0.166 C 
BRANCH  14  15
HETATM   15  C7  UNL     1      23.334   0.156  52.637  1.00  0.00    -0.040 A 
HETATM   16  C8  UNL     1      22.082   0.400  52.117  1.00  0.00     0.011 A 
HETATM   17  C9  UNL     1      20.874  -0.037  52.614  1.00  0.00     0.037 A 
HETATM   18  C10 UNL     1      20.905  -0.804  53.759  1.00  0.00     0.065 A 
HETATM   19  C11 UNL     1      22.114  -1.101  54.351  1.00  0.00     0.037 A 
HETATM   20  C12 UNL     1      23.283  -0.628  53.797  1.00  0.00     0.011 A 
BRANCH  18  21
HETATM   21  O2  UNL     1      19.700  -1.255  54.276  1.00  0.00    -0.361 OA
HETATM   22  H9  UNL     1      19.332  -2.122  53.884  1.00  0.00     0.217 HD
ENDBRANCH  18  21
ENDBRANCH  14  15
ENDBRANCH   3  14
TORSDOF 7
ENDMDL
MODEL 4
REMARK VINA RESULT:      -6.8      3.247      5.574
REMARK  7 active torsions:
REMARK  status: ('A' for Active; 'I' for Inactive)
REMARK       I    between atoms: C1_2  and  N1_3 
REMARK       I    between atoms: C1_2  and  N2_17 
REMARK    1  A    between atoms: N1_3  and  C2_4 
REMARK    2  A    between atoms: N1_3  and  C6_9 
REMARK    3  A    between atoms: C2_4  and  C3_5 
REMARK    4  A    between atoms: C3_5  and  C4_6 
REMARK    5  A    between atoms: C4_6  and  C5_7 
REMARK    6  A    between atoms: C6_9  and  C7_10 
REMARK    7  A    between atoms: C10_13  and  O2_14 
ROOT
HETATM    1  O1  UNL     1      23.542   4.818  51.471  1.00  0.00    -0.246 OA
HETATM    2  C1  UNL     1      24.409   4.043  50.946  1.00  0.00     0.328 C 
HETATM    3  N1  UNL     1      23.920   2.814  51.453  1.00  0.00    -0.328 N 
HETATM    4  N2  UNL     1      25.473   4.488  50.126  1.00  0.00    -0.286 N 
HETATM    5  C13 UNL     1      26.472   3.845  49.497  1.00  0.00     0.101 A 
HETATM    6  C14 UNL     1      27.275   4.721  48.796  1.00  0.00     0.019 A 
HETATM    7  C15 UNL     1      26.672   5.929  49.059  1.00  0.00     0.019 A 
HETATM    8  C16 UNL     1      25.581   5.802  49.862  1.00  0.00     0.101 A 
ENDROOT
BRANCH   3   9
HETATM    9  C2  UNL     1      22.742   2.983  52.293  1.00  0.00     0.145 C 
BRANCH   9  10
HETATM   10  C3  UNL     1      21.715   1.983  52.063  1.00  0.00     0.092 C 
BRANCH  10  11
HETATM   11  C4  UNL     1      21.235   1.355  53.130  1.00  0.00    -0.141 C 
BRANCH  11  12
HETATM   12  C5  UNL     1      20.689   0.512  53.998  1.00  0.00     0.107 C 
HETATM   13 BR1  UNL     1      21.780  -0.862  54.703  1.00  0.00    -0.055 Br
ENDBRANCH  11  12
ENDBRANCH  10  11
ENDBRANCH   9  10
ENDBRANCH   3   9
BRANCH   3  14
HETATM   14  C6  UNL     1      24.421   1.462  51.238  1.00  0.00     0.166 C 
BRANCH  14  15
HETATM   15  C7  UNL     1      25.435   1.033  52.202  1.00  0.00    -0.040 A 
HETATM   16  C8  UNL     1      26.788   1.285  52.164  1.00  0.00     0.011 A 
HETATM   17  C9  UNL     1      27.736   0.883  53.079  1.00  0.00     0.037 A 
HETATM   18  C10 UNL     1      27.296   0.145  54.157  1.00  0.00     0.065 A 
HETATM   19  C11 UNL     1      25.957  -0.156  54.280  1.00  0.00     0.037 A 
HETATM   20  C12 UNL     1      25.066   0.280  53.324  1.00  0.00     0.011 A 
BRANCH  18  21
HETATM   21  O2  UNL     1      28.235  -0.270  55.090  1.00  0.00    -0.361 OA
HETATM   22  H9  UNL     1      29.209  -0.045  54.887  1.00  0.00     0.217 HD
ENDBRANCH  18  21
ENDBRANCH  14  15
ENDBRANCH   3  14
TORSDOF 7
ENDMDL
MODEL 5
REMARK VINA RESULT:      -6.6      4.243      6.396
REMARK  7 active torsions:
REMARK  status: ('A' for Active; 'I' for Inactive)
REMARK       I    between atoms: C1_2  and  N1_3 
REMARK       I    between atoms: C1_2  and  N2_17 
REMARK    1  A    between atoms: N1_3  and  C2_4 
REMARK    2  A    between atoms: N1_3  and  C6_9 
REMARK    3  A    between atoms: C2_4  and  C3_5 
REMARK    4  A    between atoms: C3_5  and  C4_6 
REMARK    5  A    between atoms: C4_6  and  C5_7 
REMARK    6  A    between atoms: C6_9  and  C7_10 
REMARK    7  A    between atoms: C10_13  and  O2_14 
ROOT
HETATM    1  O1  UNL     1      19.613   3.528  52.013  1.00  0.00    -0.246 OA
HETATM    2  C1  UNL     1      20.745   2.975  51.815  1.00  0.00     0.328 C 
HETATM    3  N1  UNL     1      20.304   1.633  51.707  1.00  0.00    -0.328 N 
HETATM    4  N2  UNL     1      21.970   3.682  51.757  1.00  0.00    -0.286 N 
HETATM    5  C13 UNL     1      23.242   3.291  51.569  1.00  0.00     0.101 A 
HETATM    6  C14 UNL     1      24.109   4.363  51.584  1.00  0.00     0.019 A 
HETATM    7  C15 UNL     1      23.251   5.418  51.796  1.00  0.00     0.019 A 
HETATM    8  C16 UNL     1      21.954   5.018  51.902  1.00  0.00     0.101 A 
ENDROOT
BRANCH   3   9
HETATM    9  C2  UNL     1      18.862   1.503  51.872  1.00  0.00     0.145 C 
BRANCH   9  10
HETATM   10  C3  UNL     1      18.313   0.307  51.260  1.00  0.00     0.092 C 
BRANCH  10  11
HETATM   11  C4  UNL     1      17.446  -0.396  51.981  1.00  0.00    -0.141 C 
BRANCH  11  12
HETATM   12  C5  UNL     1      16.815  -1.135  52.885  1.00  0.00     0.107 C 
HETATM   13 BR1  UNL     1      17.712  -2.649  53.573  1.00  0.00    -0.055 Br
ENDBRANCH  11  12
ENDBRANCH  10  11
ENDBRANCH   9  10
ENDBRANCH   3   9
BRANCH   3  14
HETATM   14  C6  UNL     1      21.077   0.424  51.451  1.00  0.00     0.166 C 
BRANCH  14  15
HETATM   15  C7  UNL     1      21.728  -0.137  52.635  1.00  0.00    -0.040 A 
HETATM   16  C8  UNL     1      23.070  -0.114  52.945  1.00  0.00     0.011 A 
HETATM   17  C9  UNL     1      23.675  -0.640  54.065  1.00  0.00     0.037 A 
HETATM   18  C10 UNL     1      22.861  -1.263  54.986  1.00  0.00     0.065 A 
HETATM   19  C11 UNL     1      21.503  -1.334  54.761  1.00  0.00     0.037 A 
HETATM   20  C12 UNL     1      20.968  -0.785  53.617  1.00  0.00     0.011 A 
BRANCH  18  21
HETATM   21  O2  UNL     1      23.450  -1.800  56.121  1.00  0.00    -0.361 OA
HETATM   22  H9  UNL     1      23.369  -1.251  56.978  1.00  0.00     0.217 HD
ENDBRANCH  18  21
ENDBRANCH  14  15
ENDBRANCH   3  14
TORSDOF 7
ENDMDL
MODEL 6
REMARK VINA RESULT:      -6.6      3.179      4.849
REMARK  7 active torsions:
REMARK  status: ('A' for Active; 'I' for Inactive)
REMARK       I    between atoms: C1_2  and  N1_3 
REMARK       I    between atoms: C1_2  and  N2_17 
REMARK    1  A    between atoms: N1_3  and  C2_4 
REMARK    2  A    between atoms: N1_3  and  C6_9 
REMARK    3  A    between atoms: C2_4  and  C3_5 
REMARK    4  A    between atoms: C3_5  and  C4_6 
REMARK    5  A    between atoms: C4_6  and  C5_7 
REMARK    6  A    between atoms: C6_9  and  C7_10 
REMARK    7  A    between atoms: C10_13  and  O2_14 
ROOT
HETATM    1  O1  UNL     1      25.409  -1.032  53.801  1.00  0.00    -0.246 OA
HETATM    2  C1  UNL     1      25.551   0.210  53.545  1.00  0.00     0.328 C 
HETATM    3  N1  UNL     1      24.195   0.523  53.279  1.00  0.00    -0.328 N 
HETATM    4  N2  UNL     1      26.794   0.886  53.575  1.00  0.00    -0.286 N 
HETATM    5  C13 UNL     1      27.148   2.161  53.336  1.00  0.00     0.101 A 
HETATM    6  C14 UNL     1      28.504   2.350  53.502  1.00  0.00     0.019 A 
HETATM    7  C15 UNL     1      28.924   1.089  53.858  1.00  0.00     0.019 A 
HETATM    8  C16 UNL     1      27.899   0.194  53.905  1.00  0.00     0.101 A 
ENDROOT
BRANCH   3   9
HETATM    9  C2  UNL     1      23.320  -0.636  53.397  1.00  0.00     0.145 C 
BRANCH   9  10
HETATM   10  C3  UNL     1      22.180  -0.417  54.268  1.00  0.00     0.092 C 
BRANCH  10  11
HETATM   11  C4  UNL     1      20.975  -0.622  53.747  1.00  0.00    -0.141 C 
BRANCH  11  12
HETATM   12  C5  UNL     1      19.681  -0.802  53.512  1.00  0.00     0.107 C 
HETATM   13 BR1  UNL     1      18.928   0.059  52.007  1.00  0.00    -0.055 Br
ENDBRANCH  11  12
ENDBRANCH  10  11
ENDBRANCH   9  10
ENDBRANCH   3   9
BRANCH   3  14
HETATM   14  C6  UNL     1      23.594   1.804  52.929  1.00  0.00     0.166 C 
BRANCH  14  15
HETATM   15  C7  UNL     1      23.260   1.946  51.512  1.00  0.00    -0.040 A 
HETATM   16  C8  UNL     1      22.236   1.331  50.826  1.00  0.00     0.011 A 
HETATM   17  C9  UNL     1      21.923   1.474  49.492  1.00  0.00     0.037 A 
HETATM   18  C10 UNL     1      22.715   2.323  48.748  1.00  0.00     0.065 A 
HETATM   19  C11 UNL     1      23.765   2.983  49.350  1.00  0.00     0.037 A 
HETATM   20  C12 UNL     1      24.017   2.790  50.690  1.00  0.00     0.011 A 
BRANCH  18  21
HETATM   21  O2  UNL     1      22.418   2.481  47.403  1.00  0.00    -0.361 OA
HETATM   22  H9  UNL     1      23.200   2.710  46.788  1.00  0.00     0.217 HD
ENDBRANCH  18  21
ENDBRANCH  14  15
ENDBRANCH   3  14
TORSDOF 7
ENDMDL
MODEL 7
REMARK VINA RESULT:      -6.6      3.119      5.707
REMARK  7 active torsions:
REMARK  status: ('A' for Active; 'I' for Inactive)
REMARK       I    between atoms: C1_2  and  N1_3 
REMARK       I    between atoms: C1_2  and  N2_17 
REMARK    1  A    between atoms: N1_3  and  C2_4 
REMARK    2  A    between atoms: N1_3  and  C6_9 
REMARK    3  A    between atoms: C2_4  and  C3_5 
REMARK    4  A    between atoms: C3_5  and  C4_6 
REMARK    5  A    between atoms: C4_6  and  C5_7 
REMARK    6  A    between atoms: C6_9  and  C7_10 
REMARK    7  A    between atoms: C10_13  and  O2_14 
ROOT
HETATM    1  O1  UNL     1      25.061  -0.801  53.155  1.00  0.00    -0.246 OA
HETATM    2  C1  UNL     1      24.141   0.084  53.131  1.00  0.00     0.328 C 
HETATM    3  N1  UNL     1      24.871   1.123  52.504  1.00  0.00    -0.328 N 
HETATM    4  N2  UNL     1      22.836  -0.120  53.639  1.00  0.00    -0.286 N 
HETATM    5  C13 UNL     1      21.751   0.669  53.713  1.00  0.00     0.101 A 
HETATM    6  C14 UNL     1      20.687   0.014  54.296  1.00  0.00     0.019 A 
HETATM    7  C15 UNL     1      21.227  -1.223  54.561  1.00  0.00     0.019 A 
HETATM    8  C16 UNL     1      22.527  -1.317  54.168  1.00  0.00     0.101 A 
ENDROOT
BRANCH   3   9
HETATM    9  C2  UNL     1      26.245   0.742  52.205  1.00  0.00     0.145 C 
BRANCH   9  10
HETATM   10  C3  UNL     1      27.203   1.812  52.414  1.00  0.00     0.092 C 
BRANCH  10  11
HETATM   11  C4  UNL     1      28.241   1.547  53.199  1.00  0.00    -0.141 C 
BRANCH  11  12
HETATM   12  C5  UNL     1      29.148   1.014  54.009  1.00  0.00     0.107 C 
HETATM   13 BR1  UNL     1      29.750  -0.738  53.631  1.00  0.00    -0.055 Br
ENDBRANCH  11  12
ENDBRANCH  10  11
ENDBRANCH   9  10
ENDBRANCH   3   9
BRANCH   3  14
HETATM   14  C6  UNL     1      24.433   2.462  52.128  1.00  0.00     0.166 C 
BRANCH  14  15
HETATM   15  C7  UNL     1      23.777   2.539  50.823  1.00  0.00    -0.040 A 
HETATM   16  C8  UNL     1      22.767   1.734  50.343  1.00  0.00     0.011 A 
HETATM   17  C9  UNL     1      22.150   1.815  49.114  1.00  0.00     0.037 A 
HETATM   18  C10 UNL     1      22.581   2.807  48.259  1.00  0.00     0.065 A 
HETATM   19  C11 UNL     1      23.588   3.662  48.653  1.00  0.00     0.037 A 
HETATM   20  C12 UNL     1      24.159   3.519  49.899  1.00  0.00     0.011 A 
BRANCH  18  21
HETATM   21  O2  UNL     1      21.973   2.906  47.016  1.00  0.00    -0.361 OA
HETATM   22  H9  UNL     1      22.437   2.428  46.243  1.00  0.00     0.217 HD
ENDBRANCH  18  21
ENDBRANCH  14  15
ENDBRANCH   3  14
TORSDOF 7
ENDMDL
MODEL 8
REMARK VINA RESULT:      -6.6      2.696      6.264
REMARK  7 active torsions:
REMARK  status: ('A' for Active; 'I' for Inactive)
REMARK       I    between atoms: C1_2  and  N1_3 
REMARK       I    between atoms: C1_2  and  N2_17 
REMARK    1  A    between atoms: N1_3  and  C2_4 
REMARK    2  A    between atoms: N1_3  and  C6_9 
REMARK    3  A    between atoms: C2_4  and  C3_5 
REMARK    4  A    between atoms: C3_5  and  C4_6 
REMARK    5  A    between atoms: C4_6  and  C5_7 
REMARK    6  A    between atoms: C6_9  and  C7_10 
REMARK    7  A    between atoms: C10_13  and  O2_14 
ROOT
HETATM    1  O1  UNL     1      22.710  -1.062  54.566  1.00  0.00    -0.246 OA
HETATM    2  C1  UNL     1      22.418  -0.439  53.491  1.00  0.00     0.328 C 
HETATM    3  N1  UNL     1      23.727  -0.044  53.120  1.00  0.00    -0.328 N 
HETATM    4  N2  UNL     1      21.102  -0.299  52.991  1.00  0.00    -0.286 N 
HETATM    5  C13 UNL     1      20.597   0.311  51.905  1.00  0.00     0.101 A 
HETATM    6  C14 UNL     1      19.227   0.167  51.835  1.00  0.00     0.019 A 
HETATM    7  C15 UNL     1      18.962  -0.576  52.962  1.00  0.00     0.019 A 
HETATM    8  C16 UNL     1      20.088  -0.864  53.670  1.00  0.00     0.101 A 
ENDROOT
BRANCH   3   9
HETATM    9  C2  UNL     1      24.737  -0.486  54.073  1.00  0.00     0.145 C 
BRANCH   9  10
HETATM   10  C3  UNL     1      26.023  -0.774  53.465  1.00  0.00     0.092 C 
BRANCH  10  11
HETATM   11  C4  UNL     1      27.090  -0.202  54.012  1.00  0.00    -0.141 C 
BRANCH  11  12
HETATM   12  C5  UNL     1      28.294   0.118  54.471  1.00  0.00     0.107 C 
HETATM   13 BR1  UNL     1      29.796  -0.681  53.646  1.00  0.00    -0.055 Br
ENDBRANCH  11  12
ENDBRANCH  10  11
ENDBRANCH   9  10
ENDBRANCH   3   9
BRANCH   3  14
HETATM   14  C6  UNL     1      24.169   0.706  51.950  1.00  0.00     0.166 C 
BRANCH  14  15
HETATM   15  C7  UNL     1      23.786   2.118  51.959  1.00  0.00    -0.040 A 
HETATM   16  C8  UNL     1      23.992   3.036  52.965  1.00  0.00     0.011 A 
HETATM   17  C9  UNL     1      23.633   4.367  52.964  1.00  0.00     0.037 A 
HETATM   18  C10 UNL     1      22.997   4.845  51.838  1.00  0.00     0.065 A 
HETATM   19  C11 UNL     1      22.748   3.998  50.780  1.00  0.00     0.037 A 
HETATM   20  C12 UNL     1      23.136   2.679  50.852  1.00  0.00     0.011 A 
BRANCH  18  21
HETATM   21  O2  UNL     1      22.627   6.182  51.816  1.00  0.00    -0.361 OA
HETATM   22  H9  UNL     1      23.301   6.847  52.197  1.00  0.00     0.217 HD
ENDBRANCH  18  21
ENDBRANCH  14  15
ENDBRANCH   3  14
TORSDOF 7
ENDMDL
MODEL 9
REMARK VINA RESULT:      -6.3      3.361      5.961
REMARK  7 active torsions:
REMARK  status: ('A' for Active; 'I' for Inactive)
REMARK       I    between atoms: C1_2  and  N1_3 
REMARK       I    between atoms: C1_2  and  N2_17 
REMARK    1  A    between atoms: N1_3  and  C2_4 
REMARK    2  A    between atoms: N1_3  and  C6_9 
REMARK    3  A    between atoms: C2_4  and  C3_5 
REMARK    4  A    between atoms: C3_5  and  C4_6 
REMARK    5  A    between atoms: C4_6  and  C5_7 
REMARK    6  A    between atoms: C6_9  and  C7_10 
REMARK    7  A    between atoms: C10_13  and  O2_14 
ROOT
HETATM    1  O1  UNL     1      22.220   3.007  49.808  1.00  0.00    -0.246 OA
HETATM    2  C1  UNL     1      23.247   3.478  50.401  1.00  0.00     0.328 C 
HETATM    3  N1  UNL     1      23.218   2.652  51.552  1.00  0.00    -0.328 N 
HETATM    4  N2  UNL     1      24.046   4.526  49.885  1.00  0.00    -0.286 N 
HETATM    5  C13 UNL     1      25.140   5.155  50.350  1.00  0.00     0.101 A 
HETATM    6  C14 UNL     1      25.577   6.125  49.473  1.00  0.00     0.019 A 
HETATM    7  C15 UNL     1      24.657   6.021  48.455  1.00  0.00     0.019 A 
HETATM    8  C16 UNL     1      23.725   5.058  48.693  1.00  0.00     0.101 A 
ENDROOT
BRANCH   3   9
HETATM    9  C2  UNL     1      22.101   1.716  51.541  1.00  0.00     0.145 C 
BRANCH   9  10
HETATM   10  C3  UNL     1      21.170   1.910  52.638  1.00  0.00     0.092 C 
BRANCH  10  11
HETATM   11  C4  UNL     1      20.996   0.889  53.469  1.00  0.00    -0.141 C 
BRANCH  11  12
HETATM   12  C5  UNL     1      20.908   0.066  54.507  1.00  0.00     0.107 C 
HETATM   13 BR1  UNL     1      21.612  -1.678  54.316  1.00  0.00    -0.055 Br
ENDBRANCH  11  12
ENDBRANCH  10  11
ENDBRANCH   9  10
ENDBRANCH   3   9
BRANCH   3  14
HETATM   14  C6  UNL     1      24.132   2.617  52.687  1.00  0.00     0.166 C 
BRANCH  14  15
HETATM   15  C7  UNL     1      24.893   1.374  52.810  1.00  0.00    -0.040 A 
HETATM   16  C8  UNL     1      24.717   0.370  53.737  1.00  0.00     0.011 A 
HETATM   17  C9  UNL     1      25.435  -0.801  53.843  1.00  0.00     0.037 A 
HETATM   18  C10 UNL     1      26.446  -1.004  52.929  1.00  0.00     0.065 A 
HETATM   19  C11 UNL     1      26.697  -0.053  51.963  1.00  0.00     0.037 A 
HETATM   20  C12 UNL     1      25.936   1.095  51.918  1.00  0.00     0.011 A 
BRANCH  18  21
HETATM   21  O2  UNL     1      27.182  -2.176  53.018  1.00  0.00    -0.361 OA
HETATM   22  H9  UNL     1      26.944  -2.914  52.354  1.00  0.00     0.217 HD
ENDBRANCH  18  21
ENDBRANCH  14  15
ENDBRANCH   3  14
TORSDOF 7
ENDMDL
