MODEL 1
REMARK VINA RESULT:      -7.4      0.000      0.000
REMARK  7 active torsions:
REMARK  status: ('A' for Active; 'I' for Inactive)
REMARK    1  A    between atoms: S1_2  and  C1_4 
REMARK    2  A    between atoms: S1_2  and  C3_7 
REMARK    3  A    between atoms: C1_4  and  C2_5 
REMARK    4  A    between atoms: C2_5  and  O3_6 
REMARK    5  A    between atoms: C6_10  and  N1_12 
REMARK    6  A    between atoms: N1_12  and  C7_13 
REMARK    7  A    between atoms: C7_13  and  C8_14 
ROOT
HETATM    1  C3  UNL     1      25.903   0.442  53.055  1.00  0.00     0.151 A 
HETATM    2  C4  UNL     1      24.729  -0.014  53.519  1.00  0.00     0.054 A 
HETATM    3  C5  UNL     1      23.530   0.569  52.931  1.00  0.00    -0.017 A 
HETATM    4  C6  UNL     1      22.388   0.102  53.409  1.00  0.00     0.082 C 
HETATM    5 BR1  UNL     1      22.342  -1.236  54.765  1.00  0.00    -0.031 Br
HETATM    6  C13 UNL     1      23.480   1.611  51.876  1.00  0.00     0.088 A 
HETATM    7  C14 UNL     1      24.880   1.958  51.520  1.00  0.00     0.095 A 
HETATM    8  N2  UNL     1      25.917   1.438  52.044  1.00  0.00    -0.253 NA
ENDROOT
BRANCH   4   9
HETATM    9  N1  UNL     1      21.066   0.456  53.055  1.00  0.00    -0.380 N 
HETATM   10  H7  UNL     1      21.048   1.225  52.334  1.00  0.00     0.160 HD
BRANCH   9  11
HETATM   11  C7  UNL     1      19.996  -0.287  53.735  1.00  0.00     0.155 C 
BRANCH  11  12
HETATM   12  C8  UNL     1      18.925  -0.479  52.706  1.00  0.00    -0.046 C 
HETATM   13  C9  UNL     1      17.897  -1.210  53.093  1.00  0.00    -0.006 C 
HETATM   14  P1  UNL     1      16.427  -0.842  52.424  1.00  0.00    -0.022 P 
HETATM   15  C10 UNL     1      16.673  -0.143  50.722  1.00  0.00     0.013 C 
HETATM   16  C11 UNL     1      17.949   0.217  50.542  1.00  0.00    -0.021 C 
HETATM   17  C12 UNL     1      19.146   0.167  51.399  1.00  0.00     0.064 C 
ENDBRANCH  11  12
ENDBRANCH   9  11
ENDBRANCH   4   9
BRANCH   1  18
HETATM   18  S1  UNL     1      27.383  -0.213  53.715  1.00  0.00     0.194 S 
HETATM   19  O1  UNL     1      27.562  -1.650  53.341  1.00  0.00    -0.221 OA
HETATM   20  O2  UNL     1      27.319  -0.144  55.226  1.00  0.00    -0.221 OA
BRANCH  18  21
HETATM   21  C1  UNL     1      28.785   0.749  53.191  1.00  0.00     0.173 C 
BRANCH  21  22
HETATM   22  C2  UNL     1      29.004   1.933  54.109  1.00  0.00     0.179 C 
BRANCH  22  23
HETATM   23  O3  UNL     1      27.902   2.765  54.155  1.00  0.00    -0.400 OA
HETATM   24  H5  UNL     1      27.640   3.083  53.242  1.00  0.00     0.209 HD
ENDBRANCH  22  23
ENDBRANCH  21  22
ENDBRANCH  18  21
ENDBRANCH   1  18
TORSDOF 7
ENDMDL
MODEL 2
REMARK VINA RESULT:      -7.3      1.684      2.361
REMARK  7 active torsions:
REMARK  status: ('A' for Active; 'I' for Inactive)
REMARK    1  A    between atoms: S1_2  and  C1_4 
REMARK    2  A    between atoms: S1_2  and  C3_7 
REMARK    3  A    between atoms: C1_4  and  C2_5 
REMARK    4  A    between atoms: C2_5  and  O3_6 
REMARK    5  A    between atoms: C6_10  and  N1_12 
REMARK    6  A    between atoms: N1_12  and  C7_13 
REMARK    7  A    between atoms: C7_13  and  C8_14 
ROOT
HETATM    1  C3  UNL     1      25.475  -0.424  54.047  1.00  0.00     0.151 A 
HETATM    2  C4  UNL     1      24.698   0.295  53.223  1.00  0.00     0.054 A 
HETATM    3  C5  UNL     1      23.262   0.227  53.464  1.00  0.00    -0.017 A 
HETATM    4  C6  UNL     1      22.522   0.945  52.636  1.00  0.00     0.082 C 
HETATM    5 BR1  UNL     1      23.298   1.981  51.239  1.00  0.00    -0.031 Br
HETATM    6  C13 UNL     1      22.580  -0.553  54.526  1.00  0.00     0.088 A 
HETATM    7  C14 UNL     1      23.627  -1.260  55.307  1.00  0.00     0.095 A 
HETATM    8  N2  UNL     1      24.878  -1.190  55.083  1.00  0.00    -0.253 NA
ENDROOT
BRANCH   4   9
HETATM    9  N1  UNL     1      21.115   1.091  52.602  1.00  0.00    -0.380 N 
HETATM   10  H7  UNL     1      20.757   1.609  53.448  1.00  0.00     0.160 HD
BRANCH   9  11
HETATM   11  C7  UNL     1      20.435   0.514  51.434  1.00  0.00     0.155 C 
BRANCH  11  12
HETATM   12  C8  UNL     1      19.088   0.085  51.927  1.00  0.00    -0.046 C 
HETATM   13  C9  UNL     1      18.062   0.569  51.255  1.00  0.00    -0.006 C 
HETATM   14  P1  UNL     1      16.708  -0.382  51.173  1.00  0.00    -0.022 P 
HETATM   15  C10 UNL     1      16.598  -1.441  52.693  1.00  0.00     0.013 C 
HETATM   16  C11 UNL     1      17.767  -1.456  53.342  1.00  0.00    -0.021 C 
HETATM   17  C12 UNL     1      19.072  -0.819  53.093  1.00  0.00     0.064 C 
ENDBRANCH  11  12
ENDBRANCH   9  11
ENDBRANCH   4   9
BRANCH   1  18
HETATM   18  S1  UNL     1      27.208  -0.391  53.817  1.00  0.00     0.194 S 
HETATM   19  O1  UNL     1      27.719  -1.703  53.313  1.00  0.00    -0.221 OA
HETATM   20  O2  UNL     1      27.875  -0.128  55.150  1.00  0.00    -0.221 OA
BRANCH  18  21
HETATM   21  C1  UNL     1      27.671   0.926  52.714  1.00  0.00     0.173 C 
BRANCH  21  22
HETATM   22  C2  UNL     1      28.426   2.011  53.451  1.00  0.00     0.179 C 
BRANCH  22  23
HETATM   23  O3  UNL     1      27.585   2.814  54.197  1.00  0.00    -0.400 OA
HETATM   24  H5  UNL     1      26.621   2.622  54.002  1.00  0.00     0.209 HD
ENDBRANCH  22  23
ENDBRANCH  21  22
ENDBRANCH  18  21
ENDBRANCH   1  18
TORSDOF 7
ENDMDL
MODEL 3
REMARK VINA RESULT:      -7.2      2.099      2.621
REMARK  7 active torsions:
REMARK  status: ('A' for Active; 'I' for Inactive)
REMARK    1  A    between atoms: S1_2  and  C1_4 
REMARK    2  A    between atoms: S1_2  and  C3_7 
REMARK    3  A    between atoms: C1_4  and  C2_5 
REMARK    4  A    between atoms: C2_5  and  O3_6 
REMARK    5  A    between atoms: C6_10  and  N1_12 
REMARK    6  A    between atoms: N1_12  and  C7_13 
REMARK    7  A    between atoms: C7_13  and  C8_14 
ROOT
HETATM    1  C3  UNL     1      25.463   0.769  53.303  1.00  0.00     0.151 A 
HETATM    2  C4  UNL     1      24.255   0.210  53.466  1.00  0.00     0.054 A 
HETATM    3  C5  UNL     1      23.110   1.009  53.045  1.00  0.00    -0.017 A 
HETATM    4  C6  UNL     1      21.932   0.433  53.219  1.00  0.00     0.082 C 
HETATM    5 BR1  UNL     1      21.770  -1.313  53.964  1.00  0.00    -0.031 Br
HETATM    6  C13 UNL     1      23.150   2.371  52.459  1.00  0.00     0.088 A 
HETATM    7  C14 UNL     1      24.576   2.781  52.374  1.00  0.00     0.095 A 
HETATM    8  N2  UNL     1      25.564   2.071  52.745  1.00  0.00    -0.253 NA
ENDROOT
BRANCH   4   9
HETATM    9  N1  UNL     1      20.645   0.935  52.919  1.00  0.00    -0.380 N 
HETATM   10  H7  UNL     1      20.367   1.712  53.575  1.00  0.00     0.160 HD
BRANCH   9  11
HETATM   11  C7  UNL     1      19.954   0.304  51.786  1.00  0.00     0.155 C 
BRANCH  11  12
HETATM   12  C8  UNL     1      20.277   1.153  50.596  1.00  0.00    -0.046 C 
HETATM   13  C9  UNL     1      19.649   2.312  50.544  1.00  0.00    -0.006 C 
HETATM   14  P1  UNL     1      20.452   3.563  49.813  1.00  0.00    -0.022 P 
HETATM   15  C10 UNL     1      21.591   2.895  48.508  1.00  0.00     0.013 C 
HETATM   16  C11 UNL     1      21.764   1.577  48.665  1.00  0.00    -0.021 C 
HETATM   17  C12 UNL     1      21.247   0.596  49.635  1.00  0.00     0.064 C 
ENDBRANCH  11  12
ENDBRANCH   9  11
ENDBRANCH   4   9
BRANCH   1  18
HETATM   18  S1  UNL     1      26.882  -0.132  53.785  1.00  0.00     0.194 S 
HETATM   19  O1  UNL     1      26.779  -1.570  53.389  1.00  0.00    -0.221 OA
HETATM   20  O2  UNL     1      27.002  -0.086  55.293  1.00  0.00    -0.221 OA
BRANCH  18  21
HETATM   21  C1  UNL     1      28.354   0.601  53.105  1.00  0.00     0.173 C 
BRANCH  21  22
HETATM   22  C2  UNL     1      28.934   1.632  54.051  1.00  0.00     0.179 C 
BRANCH  22  23
HETATM   23  O3  UNL     1      28.115   2.737  54.179  1.00  0.00    -0.400 OA
HETATM   24  H5  UNL     1      28.410   3.332  54.930  1.00  0.00     0.209 HD
ENDBRANCH  22  23
ENDBRANCH  21  22
ENDBRANCH  18  21
ENDBRANCH   1  18
TORSDOF 7
ENDMDL
MODEL 4
REMARK VINA RESULT:      -7.1      1.727      2.563
REMARK  7 active torsions:
REMARK  status: ('A' for Active; 'I' for Inactive)
REMARK    1  A    between atoms: S1_2  and  C1_4 
REMARK    2  A    between atoms: S1_2  and  C3_7 
REMARK    3  A    between atoms: C1_4  and  C2_5 
REMARK    4  A    between atoms: C2_5  and  O3_6 
REMARK    5  A    between atoms: C6_10  and  N1_12 
REMARK    6  A    between atoms: N1_12  and  C7_13 
REMARK    7  A    between atoms: C7_13  and  C8_14 
ROOT
HETATM    1  C3  UNL     1      25.796   0.217  54.171  1.00  0.00     0.151 A 
HETATM    2  C4  UNL     1      24.741   0.500  53.390  1.00  0.00     0.054 A 
HETATM    3  C5  UNL     1      23.493  -0.177  53.720  1.00  0.00    -0.017 A 
HETATM    4  C6  UNL     1      22.471   0.120  52.934  1.00  0.00     0.082 C 
HETATM    5 BR1  UNL     1      22.645   1.344  51.484  1.00  0.00    -0.031 Br
HETATM    6  C13 UNL     1      23.275  -1.140  54.827  1.00  0.00     0.088 A 
HETATM    7  C14 UNL     1      24.565  -1.295  55.548  1.00  0.00     0.095 A 
HETATM    8  N2  UNL     1      25.647  -0.697  55.246  1.00  0.00    -0.253 NA
ENDROOT
BRANCH   4   9
HETATM    9  N1  UNL     1      21.142  -0.360  52.985  1.00  0.00    -0.380 N 
HETATM   10  H7  UNL     1      21.110  -1.411  53.054  1.00  0.00     0.160 HD
BRANCH   9  11
HETATM   11  C7  UNL     1      20.086   0.661  52.933  1.00  0.00     0.155 C 
BRANCH  11  12
HETATM   12  C8  UNL     1      18.955   0.029  52.181  1.00  0.00    -0.046 C 
HETATM   13  C9  UNL     1      18.275  -0.883  52.848  1.00  0.00    -0.006 C 
HETATM   14  P1  UNL     1      16.668  -1.034  52.477  1.00  0.00    -0.022 P 
HETATM   15  C10 UNL     1      16.392  -0.568  50.701  1.00  0.00     0.013 C 
HETATM   16  C11 UNL     1      17.452   0.090  50.218  1.00  0.00    -0.021 C 
HETATM   17  C12 UNL     1      18.742   0.499  50.799  1.00  0.00     0.064 C 
ENDBRANCH  11  12
ENDBRANCH   9  11
ENDBRANCH   4   9
BRANCH   1  18
HETATM   18  S1  UNL     1      27.326   0.992  53.834  1.00  0.00     0.194 S 
HETATM   19  O1  UNL     1      27.306   2.437  54.218  1.00  0.00    -0.221 OA
HETATM   20  O2  UNL     1      27.593   0.924  52.345  1.00  0.00    -0.221 OA
BRANCH  18  21
HETATM   21  C1  UNL     1      28.656   0.144  54.658  1.00  0.00     0.173 C 
BRANCH  21  22
HETATM   22  C2  UNL     1      29.219  -0.959  53.786  1.00  0.00     0.179 C 
BRANCH  22  23
HETATM   23  O3  UNL     1      28.238  -1.829  53.352  1.00  0.00    -0.400 OA
HETATM   24  H5  UNL     1      28.457  -2.216  52.453  1.00  0.00     0.209 HD
ENDBRANCH  22  23
ENDBRANCH  21  22
ENDBRANCH  18  21
ENDBRANCH   1  18
TORSDOF 7
ENDMDL
MODEL 5
REMARK VINA RESULT:      -7.0      3.548      4.618
REMARK  7 active torsions:
REMARK  status: ('A' for Active; 'I' for Inactive)
REMARK    1  A    between atoms: S1_2  and  C1_4 
REMARK    2  A    between atoms: S1_2  and  C3_7 
REMARK    3  A    between atoms: C1_4  and  C2_5 
REMARK    4  A    between atoms: C2_5  and  O3_6 
REMARK    5  A    between atoms: C6_10  and  N1_12 
REMARK    6  A    between atoms: N1_12  and  C7_13 
REMARK    7  A    between atoms: C7_13  and  C8_14 
ROOT
HETATM    1  C3  UNL     1      26.920   0.999  53.068  1.00  0.00     0.151 A 
HETATM    2  C4  UNL     1      25.611   0.711  53.003  1.00  0.00     0.054 A 
HETATM    3  C5  UNL     1      24.838   1.437  52.002  1.00  0.00    -0.017 A 
HETATM    4  C6  UNL     1      23.551   1.134  51.961  1.00  0.00     0.082 C 
HETATM    5 BR1  UNL     1      22.788  -0.159  53.134  1.00  0.00    -0.031 Br
HETATM    6  C13 UNL     1      25.354   2.456  51.054  1.00  0.00     0.088 A 
HETATM    7  C14 UNL     1      26.810   2.607  51.307  1.00  0.00     0.095 A 
HETATM    8  N2  UNL     1      27.470   1.965  52.186  1.00  0.00    -0.253 NA
ENDROOT
BRANCH   4   9
HETATM    9  N1  UNL     1      22.543   1.654  51.116  1.00  0.00    -0.380 N 
HETATM   10  H7  UNL     1      22.516   1.153  50.190  1.00  0.00     0.160 HD
BRANCH   9  11
HETATM   11  C7  UNL     1      21.747   2.759  51.667  1.00  0.00     0.155 C 
BRANCH  11  12
HETATM   12  C8  UNL     1      22.014   3.930  50.773  1.00  0.00    -0.046 C 
HETATM   13  C9  UNL     1      21.978   5.109  51.363  1.00  0.00    -0.006 C 
HETATM   14  P1  UNL     1      22.970   6.283  50.745  1.00  0.00    -0.022 P 
HETATM   15  C10 UNL     1      23.223   5.993  48.929  1.00  0.00     0.013 C 
HETATM   16  C11 UNL     1      22.842   4.755  48.593  1.00  0.00    -0.021 C 
HETATM   17  C12 UNL     1      22.283   3.626  49.355  1.00  0.00     0.064 C 
ENDBRANCH  11  12
ENDBRANCH   9  11
ENDBRANCH   4   9
BRANCH   1  18
HETATM   18  S1  UNL     1      27.908   0.166  54.246  1.00  0.00     0.194 S 
HETATM   19  O1  UNL     1      27.073  -0.489  55.298  1.00  0.00    -0.221 OA
HETATM   20  O2  UNL     1      28.799   1.175  54.938  1.00  0.00    -0.221 OA
BRANCH  18  21
HETATM   21  C1  UNL     1      28.962  -1.027  53.451  1.00  0.00     0.173 C 
BRANCH  21  22
HETATM   22  C2  UNL     1      28.159  -2.200  52.931  1.00  0.00     0.179 C 
BRANCH  22  23
HETATM   23  O3  UNL     1      28.643  -3.408  53.395  1.00  0.00    -0.400 OA
HETATM   24  H5  UNL     1      28.333  -3.597  54.330  1.00  0.00     0.209 HD
ENDBRANCH  22  23
ENDBRANCH  21  22
ENDBRANCH  18  21
ENDBRANCH   1  18
TORSDOF 7
ENDMDL
MODEL 6
REMARK VINA RESULT:      -6.5      2.483      3.061
REMARK  7 active torsions:
REMARK  status: ('A' for Active; 'I' for Inactive)
REMARK    1  A    between atoms: S1_2  and  C1_4 
REMARK    2  A    between atoms: S1_2  and  C3_7 
REMARK    3  A    between atoms: C1_4  and  C2_5 
REMARK    4  A    between atoms: C2_5  and  O3_6 
REMARK    5  A    between atoms: C6_10  and  N1_12 
REMARK    6  A    between atoms: N1_12  and  C7_13 
REMARK    7  A    between atoms: C7_13  and  C8_14 
ROOT
HETATM    1  C3  UNL     1      24.579   0.168  53.485  1.00  0.00     0.151 A 
HETATM    2  C4  UNL     1      24.316   1.008  52.472  1.00  0.00     0.054 A 
HETATM    3  C5  UNL     1      22.986   0.913  51.881  1.00  0.00    -0.017 A 
HETATM    4  C6  UNL     1      22.756   1.752  50.885  1.00  0.00     0.082 C 
HETATM    5 BR1  UNL     1      24.080   2.983  50.285  1.00  0.00    -0.031 Br
HETATM    6  C13 UNL     1      21.902  -0.015  52.288  1.00  0.00     0.088 A 
HETATM    7  C14 UNL     1      22.415  -0.838  53.414  1.00  0.00     0.095 A 
HETATM    8  N2  UNL     1      23.579  -0.742  53.918  1.00  0.00    -0.253 NA
ENDROOT
BRANCH   4   9
HETATM    9  N1  UNL     1      21.583   1.910  50.110  1.00  0.00    -0.380 N 
HETATM   10  H7  UNL     1      21.544   1.215  49.318  1.00  0.00     0.160 HD
BRANCH   9  11
HETATM   11  C7  UNL     1      20.668   2.977  50.536  1.00  0.00     0.155 C 
BRANCH  11  12
HETATM   12  C8  UNL     1      19.352   2.304  50.777  1.00  0.00    -0.046 C 
HETATM   13  C9  UNL     1      18.522   2.956  51.568  1.00  0.00    -0.006 C 
HETATM   14  P1  UNL     1      16.904   2.760  51.276  1.00  0.00    -0.022 P 
HETATM   15  C10 UNL     1      16.601   1.080  50.546  1.00  0.00     0.013 C 
HETATM   16  C11 UNL     1      17.747   0.542  50.114  1.00  0.00    -0.021 C 
HETATM   17  C12 UNL     1      19.145   1.007  50.106  1.00  0.00     0.064 C 
ENDBRANCH  11  12
ENDBRANCH   9  11
ENDBRANCH   4   9
BRANCH   1  18
HETATM   18  S1  UNL     1      26.154   0.226  54.241  1.00  0.00     0.194 S 
HETATM   19  O1  UNL     1      26.166  -0.515  55.540  1.00  0.00    -0.221 OA
HETATM   20  O2  UNL     1      26.501   1.669  54.540  1.00  0.00    -0.221 OA
BRANCH  18  21
HETATM   21  C1  UNL     1      27.402  -0.412  53.145  1.00  0.00     0.173 C 
BRANCH  21  22
HETATM   22  C2  UNL     1      28.789  -0.172  53.704  1.00  0.00     0.179 C 
BRANCH  22  23
HETATM   23  O3  UNL     1      28.760   0.135  55.051  1.00  0.00    -0.400 OA
HETATM   24  H5  UNL     1      28.664   1.121  55.204  1.00  0.00     0.209 HD
ENDBRANCH  22  23
ENDBRANCH  21  22
ENDBRANCH  18  21
ENDBRANCH   1  18
TORSDOF 7
ENDMDL
MODEL 7
REMARK VINA RESULT:      -6.5      6.709      8.436
REMARK  7 active torsions:
REMARK  status: ('A' for Active; 'I' for Inactive)
REMARK    1  A    between atoms: S1_2  and  C1_4 
REMARK    2  A    between atoms: S1_2  and  C3_7 
REMARK    3  A    between atoms: C1_4  and  C2_5 
REMARK    4  A    between atoms: C2_5  and  O3_6 
REMARK    5  A    between atoms: C6_10  and  N1_12 
REMARK    6  A    between atoms: N1_12  and  C7_13 
REMARK    7  A    between atoms: C7_13  and  C8_14 
ROOT
HETATM    1  C3  UNL     1      26.285   6.753  49.082  1.00  0.00     0.151 A 
HETATM    2  C4  UNL     1      25.433   6.063  49.857  1.00  0.00     0.054 A 
HETATM    3  C5  UNL     1      25.714   4.642  50.022  1.00  0.00    -0.017 A 
HETATM    4  C6  UNL     1      24.858   3.988  50.789  1.00  0.00     0.082 C 
HETATM    5 BR1  UNL     1      23.375   4.861  51.606  1.00  0.00    -0.031 Br
HETATM    6  C13 UNL     1      26.843   3.888  49.421  1.00  0.00     0.088 A 
HETATM    7  C14 UNL     1      27.644   4.846  48.616  1.00  0.00     0.095 A 
HETATM    8  N2  UNL     1      27.385   6.084  48.482  1.00  0.00    -0.253 NA
ENDROOT
BRANCH   4   9
HETATM    9  N1  UNL     1      24.849   2.619  51.143  1.00  0.00    -0.380 N 
HETATM   10  H7  UNL     1      24.674   2.002  50.306  1.00  0.00     0.160 HD
BRANCH   9  11
HETATM   11  C7  UNL     1      25.076   2.319  52.563  1.00  0.00     0.155 C 
BRANCH  11  12
HETATM   12  C8  UNL     1      26.277   1.426  52.597  1.00  0.00    -0.046 C 
HETATM   13  C9  UNL     1      27.423   2.031  52.847  1.00  0.00    -0.006 C 
HETATM   14  P1  UNL     1      28.570   1.151  53.655  1.00  0.00    -0.022 P 
HETATM   15  C10 UNL     1      28.367  -0.651  53.259  1.00  0.00     0.013 C 
HETATM   16  C11 UNL     1      27.174  -0.878  52.698  1.00  0.00    -0.021 C 
HETATM   17  C12 UNL     1      26.037  -0.008  52.350  1.00  0.00     0.064 C 
ENDBRANCH  11  12
ENDBRANCH   9  11
ENDBRANCH   4   9
BRANCH   1  18
HETATM   18  S1  UNL     1      26.010   8.462  48.840  1.00  0.00     0.194 S 
HETATM   19  O1  UNL     1      25.562   9.129  50.101  1.00  0.00    -0.221 OA
HETATM   20  O2  UNL     1      24.908   8.641  47.818  1.00  0.00    -0.221 OA
BRANCH  18  21
HETATM   21  C1  UNL     1      27.471   9.250  48.200  1.00  0.00     0.173 C 
BRANCH  21  22
HETATM   22  C2  UNL     1      28.127  10.117  49.254  1.00  0.00     0.179 C 
BRANCH  22  23
HETATM   23  O3  UNL     1      28.465   9.396  50.383  1.00  0.00    -0.400 OA
HETATM   24  H5  UNL     1      28.730   8.455  50.156  1.00  0.00     0.209 HD
ENDBRANCH  22  23
ENDBRANCH  21  22
ENDBRANCH  18  21
ENDBRANCH   1  18
TORSDOF 7
ENDMDL
MODEL 8
REMARK VINA RESULT:      -6.5      3.529      4.518
REMARK  7 active torsions:
REMARK  status: ('A' for Active; 'I' for Inactive)
REMARK    1  A    between atoms: S1_2  and  C1_4 
REMARK    2  A    between atoms: S1_2  and  C3_7 
REMARK    3  A    between atoms: C1_4  and  C2_5 
REMARK    4  A    between atoms: C2_5  and  O3_6 
REMARK    5  A    between atoms: C6_10  and  N1_12 
REMARK    6  A    between atoms: N1_12  and  C7_13 
REMARK    7  A    between atoms: C7_13  and  C8_14 
ROOT
HETATM    1  C3  UNL     1      26.371   1.141  52.590  1.00  0.00     0.151 A 
HETATM    2  C4  UNL     1      25.049   0.966  52.435  1.00  0.00     0.054 A 
HETATM    3  C5  UNL     1      24.403   1.791  51.422  1.00  0.00    -0.017 A 
HETATM    4  C6  UNL     1      23.101   1.599  51.292  1.00  0.00     0.082 C 
HETATM    5 BR1  UNL     1      22.163   0.332  52.362  1.00  0.00    -0.031 Br
HETATM    6  C13 UNL     1      25.058   2.798  50.550  1.00  0.00     0.088 A 
HETATM    7  C14 UNL     1      26.503   2.817  50.895  1.00  0.00     0.095 A 
HETATM    8  N2  UNL     1      27.052   2.089  51.783  1.00  0.00    -0.253 NA
ENDROOT
BRANCH   4   9
HETATM    9  N1  UNL     1      22.193   2.232  50.411  1.00  0.00    -0.380 N 
HETATM   10  H7  UNL     1      22.310   1.891  49.421  1.00  0.00     0.160 HD
BRANCH   9  11
HETATM   11  C7  UNL     1      21.285   3.215  51.019  1.00  0.00     0.155 C 
BRANCH  11  12
HETATM   12  C8  UNL     1      21.701   4.542  50.463  1.00  0.00    -0.046 C 
HETATM   13  C9  UNL     1      21.935   4.560  49.165  1.00  0.00    -0.006 C 
HETATM   14  P1  UNL     1      21.618   5.978  48.370  1.00  0.00    -0.022 P 
HETATM   15  C10 UNL     1      21.857   7.409  49.529  1.00  0.00     0.013 C 
HETATM   16  C11 UNL     1      21.900   6.985  50.797  1.00  0.00    -0.021 C 
HETATM   17  C12 UNL     1      21.798   5.656  51.424  1.00  0.00     0.064 C 
ENDBRANCH  11  12
ENDBRANCH   9  11
ENDBRANCH   4   9
BRANCH   1  18
HETATM   18  S1  UNL     1      27.213   0.185  53.788  1.00  0.00     0.194 S 
HETATM   19  O1  UNL     1      26.900  -1.270  53.648  1.00  0.00    -0.221 OA
HETATM   20  O2  UNL     1      26.758   0.615  55.166  1.00  0.00    -0.221 OA
BRANCH  18  21
HETATM   21  C1  UNL     1      28.968   0.459  53.691  1.00  0.00     0.173 C 
BRANCH  21  22
HETATM   22  C2  UNL     1      29.346   1.785  54.317  1.00  0.00     0.179 C 
BRANCH  22  23
HETATM   23  O3  UNL     1      29.385   2.806  53.388  1.00  0.00    -0.400 OA
HETATM   24  H5  UNL     1      30.182   3.399  53.522  1.00  0.00     0.209 HD
ENDBRANCH  22  23
ENDBRANCH  21  22
ENDBRANCH  18  21
ENDBRANCH   1  18
TORSDOF 7
ENDMDL
MODEL 9
REMARK VINA RESULT:      -6.5      3.769      4.558
REMARK  7 active torsions:
REMARK  status: ('A' for Active; 'I' for Inactive)
REMARK    1  A    between atoms: S1_2  and  C1_4 
REMARK    2  A    between atoms: S1_2  and  C3_7 
REMARK    3  A    between atoms: C1_4  and  C2_5 
REMARK    4  A    between atoms: C2_5  and  O3_6 
REMARK    5  A    between atoms: C6_10  and  N1_12 
REMARK    6  A    between atoms: N1_12  and  C7_13 
REMARK    7  A    between atoms: C7_13  and  C8_14 
ROOT
HETATM    1  C3  UNL     1      24.621   0.209  53.402  1.00  0.00     0.151 A 
HETATM    2  C4  UNL     1      24.316   1.030  52.386  1.00  0.00     0.054 A 
HETATM    3  C5  UNL     1      22.977   0.896  51.825  1.00  0.00    -0.017 A 
HETATM    4  C6  UNL     1      22.705   1.717  50.824  1.00  0.00     0.082 C 
HETATM    5 BR1  UNL     1      23.985   2.972  50.181  1.00  0.00    -0.031 Br
HETATM    6  C13 UNL     1      21.925  -0.053  52.266  1.00  0.00     0.088 A 
HETATM    7  C14 UNL     1      22.481  -0.849  53.390  1.00  0.00     0.095 A 
HETATM    8  N2  UNL     1      23.654  -0.719  53.868  1.00  0.00    -0.253 NA
ENDROOT
BRANCH   4   9
HETATM    9  N1  UNL     1      21.513   1.837  50.073  1.00  0.00    -0.380 N 
HETATM   10  H7  UNL     1      20.728   2.240  50.650  1.00  0.00     0.160 HD
BRANCH   9  11
HETATM   11  C7  UNL     1      21.585   1.391  48.675  1.00  0.00     0.155 C 
BRANCH  11  12
HETATM   12  C8  UNL     1      21.098   2.549  47.860  1.00  0.00    -0.046 C 
HETATM   13  C9  UNL     1      19.864   2.938  48.115  1.00  0.00    -0.006 C 
HETATM   14  P1  UNL     1      19.532   4.548  47.912  1.00  0.00    -0.022 P 
HETATM   15  C10 UNL     1      20.631   5.249  46.590  1.00  0.00     0.013 C 
HETATM   16  C11 UNL     1      21.649   4.418  46.335  1.00  0.00    -0.021 C 
HETATM   17  C12 UNL     1      22.047   3.108  46.880  1.00  0.00     0.064 C 
ENDBRANCH  11  12
ENDBRANCH   9  11
ENDBRANCH   4   9
BRANCH   1  18
HETATM   18  S1  UNL     1      26.210   0.315  54.124  1.00  0.00     0.194 S 
HETATM   19  O1  UNL     1      26.272  -0.420  55.425  1.00  0.00    -0.221 OA
HETATM   20  O2  UNL     1      26.523   1.768  54.411  1.00  0.00    -0.221 OA
BRANCH  18  21
HETATM   21  C1  UNL     1      27.452  -0.292  53.003  1.00  0.00     0.173 C 
BRANCH  21  22
HETATM   22  C2  UNL     1      28.731  -0.628  53.740  1.00  0.00     0.179 C 
BRANCH  22  23
HETATM   23  O3  UNL     1      28.925   0.185  54.841  1.00  0.00    -0.400 OA
HETATM   24  H5  UNL     1      28.467   1.070  54.733  1.00  0.00     0.209 HD
ENDBRANCH  22  23
ENDBRANCH  21  22
ENDBRANCH  18  21
ENDBRANCH   1  18
TORSDOF 7
ENDMDL
