MODEL 1
REMARK VINA RESULT:      -8.6      0.000      0.000
REMARK  6 active torsions:
REMARK  status: ('A' for Active; 'I' for Inactive)
REMARK    1  A    between atoms: N2_5  and  C4_6 
REMARK    2  A    between atoms: C7_9  and  N3_10 
REMARK       I    between atoms: N3_10  and  C8_11 
REMARK    3  A    between atoms: C8_11  and  C9_13 
REMARK    4  A    between atoms: C9_13  and  C16_22 
REMARK    5  A    between atoms: C10_14  and  N4_15 
REMARK    6  A    between atoms: N4_15  and  C11_16 
ROOT
HETATM    1  C16 UNL     1      26.161   0.392  52.279  1.00  0.00     0.115 C 
HETATM    2  C17 UNL     1      26.468   0.580  53.725  1.00  0.00     0.235 C 
HETATM    3  O2  UNL     1      26.783   0.911  54.848  1.00  0.00    -0.307 OA
ENDROOT
BRANCH   1   4
HETATM    4  C9  UNL     1      25.370   1.561  51.816  1.00  0.00     0.031 C 
HETATM    5  C10 UNL     1      24.053   1.703  51.933  1.00  0.00     0.097 C 
BRANCH   4   6
HETATM    6  C8  UNL     1      26.052   2.663  51.163  1.00  0.00     0.253 C 
HETATM    7  N3  UNL     1      25.521   3.578  50.241  1.00  0.00    -0.323 N 
HETATM    8  H10 UNL     1      24.499   3.392  50.056  1.00  0.00     0.169 HD
HETATM    9  O1  UNL     1      27.288   2.850  51.435  1.00  0.00    -0.268 OA
BRANCH   7  10
HETATM   10  C7  UNL     1      26.169   4.647  49.589  1.00  0.00     0.035 A 
HETATM   11  C6  UNL     1      25.857   5.979  49.545  1.00  0.00     0.032 A 
HETATM   12  C5  UNL     1      26.610   6.954  48.944  1.00  0.00     0.031 A 
HETATM   13  C4  UNL     1      27.810   6.611  48.312  1.00  0.00     0.030 A 
HETATM   14  C19 UNL     1      28.196   5.287  48.311  1.00  0.00     0.031 A 
HETATM   15  C18 UNL     1      27.373   4.385  48.934  1.00  0.00     0.032 A 
BRANCH  13  16
HETATM   16  N2  UNL     1      28.540   7.675  47.718  1.00  0.00    -0.378 N 
HETATM   17  C3  UNL     1      28.100   9.067  47.908  1.00  0.00     0.153 C 
HETATM   18  C2  UNL     1      29.160   9.745  48.739  1.00  0.00     0.291 C 
HETATM   19  N1  UNL     1      30.500   9.440  48.347  1.00  0.00     0.087 N 
HETATM   20  C1  UNL     1      31.304   8.779  49.342  1.00  0.00     0.310 C 
HETATM   21  C21 UNL     1      30.641   8.775  47.091  1.00  0.00     0.291 C 
HETATM   22  C20 UNL     1      29.770   7.558  46.899  1.00  0.00     0.153 C 
ENDBRANCH  13  16
ENDBRANCH   7  10
ENDBRANCH   4   6
BRANCH   5  23
HETATM   23  N4  UNL     1      23.078   0.884  52.493  1.00  0.00    -0.386 N 
HETATM   24  H12 UNL     1      22.413   1.621  52.888  1.00  0.00     0.160 HD
BRANCH  23  25
HETATM   25  C11 UNL     1      22.487  -0.363  52.850  1.00  0.00     0.149 A 
HETATM   26  C12 UNL     1      22.868  -0.901  54.169  1.00  0.00     0.004 A 
HETATM   27  C13 UNL     1      21.748  -1.191  54.867  1.00  0.00    -0.000 A 
HETATM   28  C14 UNL     1      20.565  -0.862  54.047  1.00  0.00     0.021 A 
HETATM   29  C15 UNL     1      21.023  -0.383  52.879  1.00  0.00     0.038 A 
HETATM   30 CL1  UNL     1      20.403   0.238  51.357  1.00  0.00    -0.086 Cl
ENDBRANCH  23  25
ENDBRANCH   5  23
ENDBRANCH   1   4
TORSDOF 6
ENDMDL
MODEL 2
REMARK VINA RESULT:      -8.1      1.616      2.374
REMARK  6 active torsions:
REMARK  status: ('A' for Active; 'I' for Inactive)
REMARK    1  A    between atoms: N2_5  and  C4_6 
REMARK    2  A    between atoms: C7_9  and  N3_10 
REMARK       I    between atoms: N3_10  and  C8_11 
REMARK    3  A    between atoms: C8_11  and  C9_13 
REMARK    4  A    between atoms: C9_13  and  C16_22 
REMARK    5  A    between atoms: C10_14  and  N4_15 
REMARK    6  A    between atoms: N4_15  and  C11_16 
ROOT
HETATM    1  C16 UNL     1      23.265   2.407  50.061  1.00  0.00     0.115 C 
HETATM    2  C17 UNL     1      22.265   3.334  50.661  1.00  0.00     0.235 C 
HETATM    3  O2  UNL     1      21.488   3.994  51.318  1.00  0.00    -0.307 OA
ENDROOT
BRANCH   1   4
HETATM    4  C9  UNL     1      24.498   2.456  50.887  1.00  0.00     0.031 C 
HETATM    5  C10 UNL     1      24.697   1.802  52.027  1.00  0.00     0.097 C 
BRANCH   4   6
HETATM    6  C8  UNL     1      25.607   3.288  50.454  1.00  0.00     0.253 C 
HETATM    7  N3  UNL     1      25.580   4.342  49.529  1.00  0.00    -0.323 N 
HETATM    8  H10 UNL     1      24.608   4.503  49.152  1.00  0.00     0.169 HD
HETATM    9  O1  UNL     1      26.762   3.057  50.953  1.00  0.00    -0.268 OA
BRANCH   7  10
HETATM   10  C7  UNL     1      26.645   5.154  49.088  1.00  0.00     0.035 A 
HETATM   11  C6  UNL     1      27.872   4.815  48.585  1.00  0.00     0.032 A 
HETATM   12  C5  UNL     1      28.806   5.695  48.104  1.00  0.00     0.031 A 
HETATM   13  C4  UNL     1      28.532   7.066  48.104  1.00  0.00     0.030 A 
HETATM   14  C19 UNL     1      27.317   7.492  48.597  1.00  0.00     0.031 A 
HETATM   15  C18 UNL     1      26.448   6.536  49.059  1.00  0.00     0.032 A 
BRANCH  13  16
HETATM   16  N2  UNL     1      29.545   7.915  47.584  1.00  0.00    -0.378 N 
HETATM   17  C3  UNL     1      29.671   9.297  48.075  1.00  0.00     0.153 C 
HETATM   18  C2  UNL     1      30.981   9.372  48.820  1.00  0.00     0.291 C 
HETATM   19  N1  UNL     1      32.069   8.717  48.165  1.00  0.00     0.087 N 
HETATM   20  C1  UNL     1      32.661   7.621  48.888  1.00  0.00     0.310 C 
HETATM   21  C21 UNL     1      31.835   8.333  46.810  1.00  0.00     0.291 C 
HETATM   22  C20 UNL     1      30.561   7.562  46.564  1.00  0.00     0.153 C 
ENDBRANCH  13  16
ENDBRANCH   7  10
ENDBRANCH   4   6
BRANCH   5  23
HETATM   23  N4  UNL     1      23.891   0.923  52.743  1.00  0.00    -0.386 N 
HETATM   24  H12 UNL     1      23.294   1.617  53.294  1.00  0.00     0.160 HD
BRANCH  23  25
HETATM   25  C11 UNL     1      23.434  -0.360  53.166  1.00  0.00     0.149 A 
HETATM   26  C12 UNL     1      23.967  -0.838  54.456  1.00  0.00     0.004 A 
HETATM   27  C13 UNL     1      22.936  -1.202  55.250  1.00  0.00    -0.000 A 
HETATM   28  C14 UNL     1      21.666  -0.986  54.529  1.00  0.00     0.021 A 
HETATM   29  C15 UNL     1      21.985  -0.496  53.320  1.00  0.00     0.038 A 
HETATM   30 CL1  UNL     1      21.191   0.043  51.848  1.00  0.00    -0.086 Cl
ENDBRANCH  23  25
ENDBRANCH   5  23
ENDBRANCH   1   4
TORSDOF 6
ENDMDL
MODEL 3
REMARK VINA RESULT:      -7.9      2.026      2.597
REMARK  6 active torsions:
REMARK  status: ('A' for Active; 'I' for Inactive)
REMARK    1  A    between atoms: N2_5  and  C4_6 
REMARK    2  A    between atoms: C7_9  and  N3_10 
REMARK       I    between atoms: N3_10  and  C8_11 
REMARK    3  A    between atoms: C8_11  and  C9_13 
REMARK    4  A    between atoms: C9_13  and  C16_22 
REMARK    5  A    between atoms: C10_14  and  N4_15 
REMARK    6  A    between atoms: N4_15  and  C11_16 
ROOT
HETATM    1  C16 UNL     1      21.680   3.416  51.175  1.00  0.00     0.115 C 
HETATM    2  C17 UNL     1      21.686   4.902  51.285  1.00  0.00     0.235 C 
HETATM    3  O2  UNL     1      21.825   6.084  51.517  1.00  0.00    -0.307 OA
ENDROOT
BRANCH   1   4
HETATM    4  C9  UNL     1      23.084   2.954  51.037  1.00  0.00     0.031 C 
HETATM    5  C10 UNL     1      23.623   1.909  51.657  1.00  0.00     0.097 C 
BRANCH   4   6
HETATM    6  C8  UNL     1      23.987   3.687  50.167  1.00  0.00     0.253 C 
HETATM    7  N3  UNL     1      25.118   4.432  50.534  1.00  0.00    -0.323 N 
HETATM    8  H10 UNL     1      25.280   4.404  51.576  1.00  0.00     0.169 HD
HETATM    9  O1  UNL     1      23.751   3.676  48.910  1.00  0.00    -0.268 OA
BRANCH   7  10
HETATM   10  C7  UNL     1      26.000   5.157  49.707  1.00  0.00     0.035 A 
HETATM   11  C6  UNL     1      26.008   6.482  49.363  1.00  0.00     0.032 A 
HETATM   12  C5  UNL     1      26.972   7.104  48.613  1.00  0.00     0.031 A 
HETATM   13  C4  UNL     1      28.062   6.368  48.137  1.00  0.00     0.030 A 
HETATM   14  C19 UNL     1      28.128   5.024  48.439  1.00  0.00     0.031 A 
HETATM   15  C18 UNL     1      27.114   4.491  49.192  1.00  0.00     0.032 A 
BRANCH  13  16
HETATM   16  N2  UNL     1      29.024   7.082  47.373  1.00  0.00    -0.378 N 
HETATM   17  C3  UNL     1      28.611   8.241  46.565  1.00  0.00     0.153 C 
HETATM   18  C2  UNL     1      29.250   9.454  47.192  1.00  0.00     0.291 C 
HETATM   19  N1  UNL     1      30.614   9.269  47.577  1.00  0.00     0.087 N 
HETATM   20  C1  UNL     1      30.890   9.411  48.982  1.00  0.00     0.310 C 
HETATM   21  C21 UNL     1      31.242   8.087  47.077  1.00  0.00     0.291 C 
HETATM   22  C20 UNL     1      30.478   6.804  47.295  1.00  0.00     0.153 C 
ENDBRANCH  13  16
ENDBRANCH   7  10
ENDBRANCH   4   6
BRANCH   5  23
HETATM   23  N4  UNL     1      23.088   0.980  52.544  1.00  0.00    -0.386 N 
HETATM   24  H12 UNL     1      22.772   1.629  53.332  1.00  0.00     0.160 HD
BRANCH  23  25
HETATM   25  C11 UNL     1      22.749  -0.329  52.996  1.00  0.00     0.149 A 
HETATM   26  C12 UNL     1      23.489  -0.811  54.178  1.00  0.00     0.004 A 
HETATM   27  C13 UNL     1      22.605  -1.234  55.108  1.00  0.00    -0.000 A 
HETATM   28  C14 UNL     1      21.233  -1.054  54.592  1.00  0.00     0.021 A 
HETATM   29  C15 UNL     1      21.346  -0.527  53.363  1.00  0.00     0.038 A 
HETATM   30 CL1  UNL     1      20.319   0.009  52.042  1.00  0.00    -0.086 Cl
ENDBRANCH  23  25
ENDBRANCH   5  23
ENDBRANCH   1   4
TORSDOF 6
ENDMDL
MODEL 4
REMARK VINA RESULT:      -7.8      3.512      4.472
REMARK  6 active torsions:
REMARK  status: ('A' for Active; 'I' for Inactive)
REMARK    1  A    between atoms: N2_5  and  C4_6 
REMARK    2  A    between atoms: C7_9  and  N3_10 
REMARK       I    between atoms: N3_10  and  C8_11 
REMARK    3  A    between atoms: C8_11  and  C9_13 
REMARK    4  A    between atoms: C9_13  and  C16_22 
REMARK    5  A    between atoms: C10_14  and  N4_15 
REMARK    6  A    between atoms: N4_15  and  C11_16 
ROOT
HETATM    1  C16 UNL     1      24.493   3.285  49.798  1.00  0.00     0.115 C 
HETATM    2  C17 UNL     1      23.729   3.713  51.004  1.00  0.00     0.235 C 
HETATM    3  O2  UNL     1      23.245   3.963  52.087  1.00  0.00    -0.307 OA
ENDROOT
BRANCH   1   4
HETATM    4  C9  UNL     1      25.919   3.644  50.000  1.00  0.00     0.031 C 
HETATM    5  C10 UNL     1      26.803   2.950  50.709  1.00  0.00     0.097 C 
BRANCH   4   6
HETATM    6  C8  UNL     1      26.434   4.860  49.395  1.00  0.00     0.253 C 
HETATM    7  N3  UNL     1      25.983   6.174  49.588  1.00  0.00    -0.323 N 
HETATM    8  H10 UNL     1      25.181   6.212  50.274  1.00  0.00     0.169 HD
HETATM    9  O1  UNL     1      27.415   4.757  48.580  1.00  0.00    -0.268 OA
BRANCH   7  10
HETATM   10  C7  UNL     1      26.462   7.364  49.004  1.00  0.00     0.035 A 
HETATM   11  C6  UNL     1      26.392   7.811  47.712  1.00  0.00     0.032 A 
HETATM   12  C5  UNL     1      26.821   9.034  47.268  1.00  0.00     0.031 A 
HETATM   13  C4  UNL     1      27.383   9.941  48.172  1.00  0.00     0.030 A 
HETATM   14  C19 UNL     1      27.492   9.568  49.494  1.00  0.00     0.031 A 
HETATM   15  C18 UNL     1      27.038   8.321  49.842  1.00  0.00     0.032 A 
BRANCH  13  16
HETATM   16  N2  UNL     1      27.799  11.192  47.640  1.00  0.00    -0.378 N 
HETATM   17  C3  UNL     1      27.151  12.435  48.089  1.00  0.00     0.153 C 
HETATM   18  C2  UNL     1      28.195  13.214  48.850  1.00  0.00     0.291 C 
HETATM   19  N1  UNL     1      29.484  13.232  48.231  1.00  0.00     0.087 N 
HETATM   20  C1  UNL     1      30.549  12.638  48.995  1.00  0.00     0.310 C 
HETATM   21  C21 UNL     1      29.530  12.757  46.885  1.00  0.00     0.291 C 
HETATM   22  C20 UNL     1      28.873  11.419  46.645  1.00  0.00     0.153 C 
ENDBRANCH  13  16
ENDBRANCH   7  10
ENDBRANCH   4   6
BRANCH   5  23
HETATM   23  N4  UNL     1      26.692   1.757  51.416  1.00  0.00    -0.386 N 
HETATM   24  H12 UNL     1      26.470   1.082  50.618  1.00  0.00     0.160 HD
BRANCH  23  25
HETATM   25  C11 UNL     1      26.687   0.944  52.588  1.00  0.00     0.149 A 
HETATM   26  C12 UNL     1      26.292  -0.464  52.390  1.00  0.00     0.004 A 
HETATM   27  C13 UNL     1      27.239  -1.265  52.926  1.00  0.00    -0.000 A 
HETATM   28  C14 UNL     1      28.311  -0.431  53.506  1.00  0.00     0.021 A 
HETATM   29  C15 UNL     1      27.964   0.849  53.296  1.00  0.00     0.038 A 
HETATM   30 CL1  UNL     1      28.578   2.465  53.608  1.00  0.00    -0.086 Cl
ENDBRANCH  23  25
ENDBRANCH   5  23
ENDBRANCH   1   4
TORSDOF 6
ENDMDL
MODEL 5
REMARK VINA RESULT:      -7.7      2.402      2.983
REMARK  6 active torsions:
REMARK  status: ('A' for Active; 'I' for Inactive)
REMARK    1  A    between atoms: N2_5  and  C4_6 
REMARK    2  A    between atoms: C7_9  and  N3_10 
REMARK       I    between atoms: N3_10  and  C8_11 
REMARK    3  A    between atoms: C8_11  and  C9_13 
REMARK    4  A    between atoms: C9_13  and  C16_22 
REMARK    5  A    between atoms: C10_14  and  N4_15 
REMARK    6  A    between atoms: N4_15  and  C11_16 
ROOT
HETATM    1  C16 UNL     1      21.641   2.831  49.808  1.00  0.00     0.115 C 
HETATM    2  C17 UNL     1      21.471   1.598  48.989  1.00  0.00     0.235 C 
HETATM    3  O2  UNL     1      21.490   0.658  48.222  1.00  0.00    -0.307 OA
ENDROOT
BRANCH   1   4
HETATM    4  C9  UNL     1      23.054   2.900  50.257  1.00  0.00     0.031 C 
HETATM    5  C10 UNL     1      23.583   2.218  51.268  1.00  0.00     0.097 C 
BRANCH   4   6
HETATM    6  C8  UNL     1      23.973   3.786  49.565  1.00  0.00     0.253 C 
HETATM    7  N3  UNL     1      25.257   4.179  49.971  1.00  0.00    -0.323 N 
HETATM    8  H10 UNL     1      25.528   3.732  50.888  1.00  0.00     0.169 HD
HETATM    9  O1  UNL     1      23.598   4.290  48.451  1.00  0.00    -0.268 OA
BRANCH   7  10
HETATM   10  C7  UNL     1      26.160   5.045  49.320  1.00  0.00     0.035 A 
HETATM   11  C6  UNL     1      26.082   6.389  49.077  1.00  0.00     0.032 A 
HETATM   12  C5  UNL     1      27.066   7.153  48.504  1.00  0.00     0.031 A 
HETATM   13  C4  UNL     1      28.272   6.557  48.121  1.00  0.00     0.030 A 
HETATM   14  C19 UNL     1      28.430   5.203  48.331  1.00  0.00     0.031 A 
HETATM   15  C18 UNL     1      27.387   4.523  48.906  1.00  0.00     0.032 A 
BRANCH  13  16
HETATM   16  N2  UNL     1      29.247   7.413  47.541  1.00  0.00    -0.378 N 
HETATM   17  C3  UNL     1      28.825   8.579  46.748  1.00  0.00     0.153 C 
HETATM   18  C2  UNL     1      29.241   9.803  47.526  1.00  0.00     0.291 C 
HETATM   19  N1  UNL     1      30.553   9.725  48.088  1.00  0.00     0.087 N 
HETATM   20  C1  UNL     1      30.620   9.795  49.524  1.00  0.00     0.310 C 
HETATM   21  C21 UNL     1      31.364   8.648  47.618  1.00  0.00     0.291 C 
HETATM   22  C20 UNL     1      30.718   7.284  47.654  1.00  0.00     0.153 C 
ENDBRANCH  13  16
ENDBRANCH   7  10
ENDBRANCH   4   6
BRANCH   5  23
HETATM   23  N4  UNL     1      23.035   1.288  52.145  1.00  0.00    -0.386 N 
HETATM   24  H12 UNL     1      22.623   0.589  51.450  1.00  0.00     0.160 HD
BRANCH  23  25
HETATM   25  C11 UNL     1      22.701   0.760  53.427  1.00  0.00     0.149 A 
HETATM   26  C12 UNL     1      21.259   0.645  53.718  1.00  0.00     0.004 A 
HETATM   27  C13 UNL     1      20.991  -0.616  54.122  1.00  0.00    -0.000 A 
HETATM   28  C14 UNL     1      22.240  -1.403  54.122  1.00  0.00     0.021 A 
HETATM   29  C15 UNL     1      23.219  -0.579  53.714  1.00  0.00     0.038 A 
HETATM   30 CL1  UNL     1      24.949  -0.610  53.411  1.00  0.00    -0.086 Cl
ENDBRANCH  23  25
ENDBRANCH   5  23
ENDBRANCH   1   4
TORSDOF 6
ENDMDL
MODEL 6
REMARK VINA RESULT:      -7.6      5.358     11.041
REMARK  6 active torsions:
REMARK  status: ('A' for Active; 'I' for Inactive)
REMARK    1  A    between atoms: N2_5  and  C4_6 
REMARK    2  A    between atoms: C7_9  and  N3_10 
REMARK       I    between atoms: N3_10  and  C8_11 
REMARK    3  A    between atoms: C8_11  and  C9_13 
REMARK    4  A    between atoms: C9_13  and  C16_22 
REMARK    5  A    between atoms: C10_14  and  N4_15 
REMARK    6  A    between atoms: N4_15  and  C11_16 
ROOT
HETATM    1  C16 UNL     1      24.461   2.971  52.563  1.00  0.00     0.115 C 
HETATM    2  C17 UNL     1      25.002   3.102  51.181  1.00  0.00     0.235 C 
HETATM    3  O2  UNL     1      25.534   3.037  50.093  1.00  0.00    -0.307 OA
ENDROOT
BRANCH   1   4
HETATM    4  C9  UNL     1      23.864   1.618  52.702  1.00  0.00     0.031 C 
HETATM    5  C10 UNL     1      24.534   0.493  52.928  1.00  0.00     0.097 C 
BRANCH   4   6
HETATM    6  C8  UNL     1      22.426   1.464  52.576  1.00  0.00     0.253 C 
HETATM    7  N3  UNL     1      21.714   0.309  52.220  1.00  0.00    -0.323 N 
HETATM    8  H10 UNL     1      22.360  -0.508  52.050  1.00  0.00     0.169 HD
HETATM    9  O1  UNL     1      21.689   2.484  52.807  1.00  0.00    -0.268 OA
BRANCH   7  10
HETATM   10  C7  UNL     1      20.321   0.141  52.083  1.00  0.00     0.035 A 
HETATM   11  C6  UNL     1      19.482   0.482  51.057  1.00  0.00     0.032 A 
HETATM   12  C5  UNL     1      18.144   0.192  50.992  1.00  0.00     0.031 A 
HETATM   13  C4  UNL     1      17.536  -0.512  52.037  1.00  0.00     0.030 A 
HETATM   14  C19 UNL     1      18.312  -0.892  53.111  1.00  0.00     0.031 A 
HETATM   15  C18 UNL     1      19.641  -0.553  53.086  1.00  0.00     0.032 A 
BRANCH  13  16
HETATM   16  N2  UNL     1      16.148  -0.782  51.896  1.00  0.00    -0.378 N 
HETATM   17  C3  UNL     1      15.205   0.320  51.647  1.00  0.00     0.153 C 
HETATM   18  C2  UNL     1      14.662   0.117  50.254  1.00  0.00     0.291 C 
HETATM   19  N1  UNL     1      14.318  -1.237  49.948  1.00  0.00     0.087 N 
HETATM   20  C1  UNL     1      15.053  -1.837  48.866  1.00  0.00     0.310 C 
HETATM   21  C21 UNL     1      14.277  -2.131  51.061  1.00  0.00     0.291 C 
HETATM   22  C20 UNL     1      15.493  -2.110  51.955  1.00  0.00     0.153 C 
ENDBRANCH  13  16
ENDBRANCH   7  10
ENDBRANCH   4   6
BRANCH   5  23
HETATM   23  N4  UNL     1      25.890   0.242  53.110  1.00  0.00    -0.386 N 
HETATM   24  H12 UNL     1      25.878  -0.170  54.096  1.00  0.00     0.160 HD
BRANCH  23  25
HETATM   25  C11 UNL     1      27.266   0.244  52.737  1.00  0.00     0.149 A 
HETATM   26  C12 UNL     1      28.059   1.393  53.213  1.00  0.00     0.004 A 
HETATM   27  C13 UNL     1      29.158   0.936  53.852  1.00  0.00    -0.000 A 
HETATM   28  C14 UNL     1      29.153  -0.541  53.832  1.00  0.00     0.021 A 
HETATM   29  C15 UNL     1      28.042  -0.917  53.178  1.00  0.00     0.038 A 
HETATM   30 CL1  UNL     1      27.219  -2.388  52.683  1.00  0.00    -0.086 Cl
ENDBRANCH  23  25
ENDBRANCH   5  23
ENDBRANCH   1   4
TORSDOF 6
ENDMDL
MODEL 7
REMARK VINA RESULT:      -7.4      4.596     10.099
REMARK  6 active torsions:
REMARK  status: ('A' for Active; 'I' for Inactive)
REMARK    1  A    between atoms: N2_5  and  C4_6 
REMARK    2  A    between atoms: C7_9  and  N3_10 
REMARK       I    between atoms: N3_10  and  C8_11 
REMARK    3  A    between atoms: C8_11  and  C9_13 
REMARK    4  A    between atoms: C9_13  and  C16_22 
REMARK    5  A    between atoms: C10_14  and  N4_15 
REMARK    6  A    between atoms: N4_15  and  C11_16 
ROOT
HETATM    1  C16 UNL     1      30.378   7.771  47.180  1.00  0.00     0.115 C 
HETATM    2  C17 UNL     1      30.868   8.587  48.327  1.00  0.00     0.235 C 
HETATM    3  O2  UNL     1      31.111   9.177  49.358  1.00  0.00    -0.307 OA
ENDROOT
BRANCH   1   4
HETATM    4  C9  UNL     1      30.160   6.382  47.657  1.00  0.00     0.031 C 
HETATM    5  C10 UNL     1      31.048   5.394  47.607  1.00  0.00     0.097 C 
BRANCH   4   6
HETATM    6  C8  UNL     1      28.873   6.024  48.226  1.00  0.00     0.253 C 
HETATM    7  N3  UNL     1      27.777   6.865  48.469  1.00  0.00    -0.323 N 
HETATM    8  H10 UNL     1      27.975   7.857  48.169  1.00  0.00     0.169 HD
HETATM    9  O1  UNL     1      28.682   4.804  48.560  1.00  0.00    -0.268 OA
BRANCH   7  10
HETATM   10  C7  UNL     1      26.524   6.539  49.029  1.00  0.00     0.035 A 
HETATM   11  C6  UNL     1      25.697   5.474  48.796  1.00  0.00     0.032 A 
HETATM   12  C5  UNL     1      24.530   5.211  49.465  1.00  0.00     0.031 A 
HETATM   13  C4  UNL     1      24.104   6.072  50.481  1.00  0.00     0.030 A 
HETATM   14  C19 UNL     1      24.881   7.171  50.777  1.00  0.00     0.031 A 
HETATM   15  C18 UNL     1      26.030   7.352  50.051  1.00  0.00     0.032 A 
BRANCH  13  16
HETATM   16  N2  UNL     1      22.889   5.730  51.134  1.00  0.00    -0.378 N 
HETATM   17  C3  UNL     1      21.618   6.315  50.677  1.00  0.00     0.153 C 
HETATM   18  C2  UNL     1      20.803   5.181  50.104  1.00  0.00     0.291 C 
HETATM   19  N1  UNL     1      20.830   3.984  50.885  1.00  0.00     0.087 N 
HETATM   20  C1  UNL     1      21.386   2.828  50.233  1.00  0.00     0.310 C 
HETATM   21  C21 UNL     1      21.381   4.113  52.196  1.00  0.00     0.291 C 
HETATM   22  C20 UNL     1      22.726   4.794  52.271  1.00  0.00     0.153 C 
ENDBRANCH  13  16
ENDBRANCH   7  10
ENDBRANCH   4   6
BRANCH   5  23
HETATM   23  N4  UNL     1      32.360   5.350  47.148  1.00  0.00    -0.386 N 
HETATM   24  H12 UNL     1      32.246   4.706  46.303  1.00  0.00     0.160 HD
BRANCH  23  25
HETATM   25  C11 UNL     1      33.752   5.657  47.181  1.00  0.00     0.149 A 
HETATM   26  C12 UNL     1      34.095   7.046  47.543  1.00  0.00     0.004 A 
HETATM   27  C13 UNL     1      34.990   7.028  48.556  1.00  0.00    -0.000 A 
HETATM   28  C14 UNL     1      35.288   5.627  48.916  1.00  0.00     0.021 A 
HETATM   29  C15 UNL     1      34.556   4.852  48.102  1.00  0.00     0.038 A 
HETATM   30 CL1  UNL     1      34.255   3.148  47.796  1.00  0.00    -0.086 Cl
ENDBRANCH  23  25
ENDBRANCH   5  23
ENDBRANCH   1   4
TORSDOF 6
ENDMDL
MODEL 8
REMARK VINA RESULT:      -7.4      4.582     10.214
REMARK  6 active torsions:
REMARK  status: ('A' for Active; 'I' for Inactive)
REMARK    1  A    between atoms: N2_5  and  C4_6 
REMARK    2  A    between atoms: C7_9  and  N3_10 
REMARK       I    between atoms: N3_10  and  C8_11 
REMARK    3  A    between atoms: C8_11  and  C9_13 
REMARK    4  A    between atoms: C9_13  and  C16_22 
REMARK    5  A    between atoms: C10_14  and  N4_15 
REMARK    6  A    between atoms: N4_15  and  C11_16 
ROOT
HETATM    1  C16 UNL     1      30.582   8.236  46.581  1.00  0.00     0.115 C 
HETATM    2  C17 UNL     1      31.249   9.263  47.430  1.00  0.00     0.235 C 
HETATM    3  O2  UNL     1      31.654  10.055  48.255  1.00  0.00    -0.307 OA
ENDROOT
BRANCH   1   4
HETATM    4  C9  UNL     1      30.434   6.995  47.383  1.00  0.00     0.031 C 
HETATM    5  C10 UNL     1      31.371   6.070  47.565  1.00  0.00     0.097 C 
BRANCH   4   6
HETATM    6  C8  UNL     1      29.165   6.721  48.034  1.00  0.00     0.253 C 
HETATM    7  N3  UNL     1      28.458   5.510  48.064  1.00  0.00    -0.323 N 
HETATM    8  H10 UNL     1      28.971   4.749  47.543  1.00  0.00     0.169 HD
HETATM    9  O1  UNL     1      28.593   7.678  48.662  1.00  0.00    -0.268 OA
BRANCH   7  10
HETATM   10  C7  UNL     1      27.222   5.227  48.681  1.00  0.00     0.035 A 
HETATM   11  C6  UNL     1      26.076   5.970  48.755  1.00  0.00     0.032 A 
HETATM   12  C5  UNL     1      24.894   5.557  49.313  1.00  0.00     0.031 A 
HETATM   13  C4  UNL     1      24.798   4.276  49.865  1.00  0.00     0.030 A 
HETATM   14  C19 UNL     1      25.911   3.462  49.831  1.00  0.00     0.031 A 
HETATM   15  C18 UNL     1      27.049   3.966  49.255  1.00  0.00     0.032 A 
BRANCH  13  16
HETATM   16  N2  UNL     1      23.540   3.916  50.418  1.00  0.00    -0.378 N 
HETATM   17  C3  UNL     1      22.646   3.005  49.685  1.00  0.00     0.153 C 
HETATM   18  C2  UNL     1      22.568   1.733  50.493  1.00  0.00     0.291 C 
HETATM   19  N1  UNL     1      22.424   1.939  51.901  1.00  0.00     0.087 N 
HETATM   20  C1  UNL     1      23.492   1.424  52.717  1.00  0.00     0.310 C 
HETATM   21  C21 UNL     1      22.107   3.272  52.302  1.00  0.00     0.291 C 
HETATM   22  C20 UNL     1      22.988   4.352  51.722  1.00  0.00     0.153 C 
ENDBRANCH  13  16
ENDBRANCH   7  10
ENDBRANCH   4   6
BRANCH   5  23
HETATM   23  N4  UNL     1      32.686   5.982  47.118  1.00  0.00    -0.386 N 
HETATM   24  H12 UNL     1      32.796   6.941  46.658  1.00  0.00     0.160 HD
BRANCH  23  25
HETATM   25  C11 UNL     1      33.941   5.338  46.912  1.00  0.00     0.149 A 
HETATM   26  C12 UNL     1      34.539   4.702  48.101  1.00  0.00     0.004 A 
HETATM   27  C13 UNL     1      34.846   3.419  47.807  1.00  0.00    -0.000 A 
HETATM   28  C14 UNL     1      34.470   3.138  46.407  1.00  0.00     0.021 A 
HETATM   29  C15 UNL     1      33.946   4.270  45.910  1.00  0.00     0.038 A 
HETATM   30 CL1  UNL     1      33.252   4.874  44.414  1.00  0.00    -0.086 Cl
ENDBRANCH  23  25
ENDBRANCH   5  23
ENDBRANCH   1   4
TORSDOF 6
ENDMDL
MODEL 9
REMARK VINA RESULT:      -7.3      4.951     10.016
REMARK  6 active torsions:
REMARK  status: ('A' for Active; 'I' for Inactive)
REMARK    1  A    between atoms: N2_5  and  C4_6 
REMARK    2  A    between atoms: C7_9  and  N3_10 
REMARK       I    between atoms: N3_10  and  C8_11 
REMARK    3  A    between atoms: C8_11  and  C9_13 
REMARK    4  A    between atoms: C9_13  and  C16_22 
REMARK    5  A    between atoms: C10_14  and  N4_15 
REMARK    6  A    between atoms: N4_15  and  C11_16 
ROOT
HETATM    1  C16 UNL     1      31.099   7.968  47.449  1.00  0.00     0.115 C 
HETATM    2  C17 UNL     1      31.061   8.810  48.677  1.00  0.00     0.235 C 
HETATM    3  O2  UNL     1      30.845   9.431  49.697  1.00  0.00    -0.307 OA
ENDROOT
BRANCH   1   4
HETATM    4  C9  UNL     1      30.630   6.605  47.805  1.00  0.00     0.031 C 
HETATM    5  C10 UNL     1      31.405   5.544  48.005  1.00  0.00     0.097 C 
BRANCH   4   6
HETATM    6  C8  UNL     1      29.205   6.362  47.947  1.00  0.00     0.253 C 
HETATM    7  N3  UNL     1      28.565   5.515  48.864  1.00  0.00    -0.323 N 
HETATM    8  H10 UNL     1      29.258   5.040  49.502  1.00  0.00     0.169 HD
HETATM    9  O1  UNL     1      28.409   6.975  47.155  1.00  0.00    -0.268 OA
BRANCH   7  10
HETATM   10  C7  UNL     1      27.187   5.258  49.012  1.00  0.00     0.035 A 
HETATM   11  C6  UNL     1      26.104   6.068  48.798  1.00  0.00     0.032 A 
HETATM   12  C5  UNL     1      24.792   5.685  48.893  1.00  0.00     0.031 A 
HETATM   13  C4  UNL     1      24.478   4.365  49.232  1.00  0.00     0.030 A 
HETATM   14  C19 UNL     1      25.513   3.484  49.465  1.00  0.00     0.031 A 
HETATM   15  C18 UNL     1      26.793   3.962  49.349  1.00  0.00     0.032 A 
BRANCH  13  16
HETATM   16  N2  UNL     1      23.097   4.040  49.304  1.00  0.00    -0.378 N 
HETATM   17  C3  UNL     1      22.519   3.554  50.568  1.00  0.00     0.153 C 
HETATM   18  C2  UNL     1      21.567   4.622  51.045  1.00  0.00     0.291 C 
HETATM   19  N1  UNL     1      20.741   5.176  50.018  1.00  0.00     0.087 N 
HETATM   20  C1  UNL     1      20.909   6.586  49.777  1.00  0.00     0.310 C 
HETATM   21  C21 UNL     1      20.740   4.470  48.777  1.00  0.00     0.291 C 
HETATM   22  C20 UNL     1      22.102   4.149  48.211  1.00  0.00     0.153 C 
ENDBRANCH  13  16
ENDBRANCH   7  10
ENDBRANCH   4   6
BRANCH   5  23
HETATM   23  N4  UNL     1      32.786   5.384  47.966  1.00  0.00    -0.386 N 
HETATM   24  H12 UNL     1      33.030   5.577  48.988  1.00  0.00     0.160 HD
BRANCH  23  25
HETATM   25  C11 UNL     1      34.041   5.134  47.338  1.00  0.00     0.149 A 
HETATM   26  C12 UNL     1      34.762   3.932  47.800  1.00  0.00     0.004 A 
HETATM   27  C13 UNL     1      35.089   3.176  46.729  1.00  0.00    -0.000 A 
HETATM   28  C14 UNL     1      34.604   3.837  45.501  1.00  0.00     0.021 A 
HETATM   29  C15 UNL     1      33.999   4.972  45.883  1.00  0.00     0.038 A 
HETATM   30 CL1  UNL     1      33.158   6.341  45.171  1.00  0.00    -0.086 Cl
ENDBRANCH  23  25
ENDBRANCH   5  23
ENDBRANCH   1   4
TORSDOF 6
ENDMDL
