MODEL 1
REMARK VINA RESULT:      -7.2      0.000      0.000
REMARK  5 active torsions:
REMARK  status: ('A' for Active; 'I' for Inactive)
REMARK    1  A    between atoms: C2_2  and  C3_3 
REMARK    2  A    between atoms: C6_7  and  O1_8 
REMARK    3  A    between atoms: O1_8  and  C7_9 
REMARK    4  A    between atoms: C7_9  and  C8_10 
REMARK    5  A    between atoms: C11_14  and  C12_15 
ROOT
HETATM    1  O1  UNL     1      23.286   1.788  52.356  1.00  0.00    -0.335 OA
ENDROOT
BRANCH   1   2
HETATM    2  C6  UNL     1      24.174   1.072  53.084  1.00  0.00     0.156 A 
HETATM    3  C3  UNL     1      23.743  -0.171  53.557  1.00  0.00    -0.005 A 
HETATM    4  C4  UNL     1      24.822  -0.713  54.268  1.00  0.00     0.038 A 
HETATM    5  C5  UNL     1      25.884   0.162  54.237  1.00  0.00     0.040 A 
HETATM    6  N1  UNL     1      25.432   1.198  53.520  1.00  0.00    -0.288 N 
HETATM    7  C16 UNL     1      27.281   0.416  54.659  1.00  0.00     0.207 A 
HETATM    8  C15 UNL     1      26.509   2.112  53.462  1.00  0.00     0.210 A 
HETATM    9  N3  UNL     1      27.555   1.710  54.085  1.00  0.00    -0.278 NA
BRANCH   3  10
HETATM   10  C2  UNL     1      22.429  -0.876  53.396  1.00  0.00     0.038 C 
HETATM   11  C1  UNL     1      21.559  -0.720  54.604  1.00  0.00     0.010 C 
ENDBRANCH   3  10
ENDBRANCH   1   2
BRANCH   1  12
HETATM   12  C7  UNL     1      22.957   1.829  51.028  1.00  0.00     0.183 C 
BRANCH  12  13
HETATM   13  C8  UNL     1      23.203   3.142  50.315  1.00  0.00     0.038 C 
HETATM   14  C9  UNL     1      23.231   4.216  51.369  1.00  0.00     0.276 C 
HETATM   15  N2  UNL     1      24.566   4.731  51.601  1.00  0.00     0.084 N 
HETATM   16  C10 UNL     1      24.947   5.372  50.341  1.00  0.00     0.274 C 
HETATM   17  H12 UNL     1      25.246   3.963  51.829  1.00  0.00     0.315 HD
HETATM   18  C11 UNL     1      25.250   4.285  49.356  1.00  0.00     0.014 C 
HETATM   19  C14 UNL     1      24.430   3.068  49.472  1.00  0.00     0.014 C 
BRANCH  18  20
HETATM   20  C12 UNL     1      26.741   3.968  49.482  1.00  0.00     0.002 C 
HETATM   21  C13 UNL     1      27.567   4.912  48.638  1.00  0.00     0.005 C 
ENDBRANCH  18  20
ENDBRANCH  12  13
ENDBRANCH   1  12
TORSDOF 5
ENDMDL
MODEL 2
REMARK VINA RESULT:      -7.1      1.447      2.885
REMARK  5 active torsions:
REMARK  status: ('A' for Active; 'I' for Inactive)
REMARK    1  A    between atoms: C2_2  and  C3_3 
REMARK    2  A    between atoms: C6_7  and  O1_8 
REMARK    3  A    between atoms: O1_8  and  C7_9 
REMARK    4  A    between atoms: C7_9  and  C8_10 
REMARK    5  A    between atoms: C11_14  and  C12_15 
ROOT
HETATM    1  O1  UNL     1      23.616   1.358  51.490  1.00  0.00    -0.335 OA
ENDROOT
BRANCH   1   2
HETATM    2  C6  UNL     1      23.917   0.565  52.545  1.00  0.00     0.156 A 
HETATM    3  C3  UNL     1      25.267   0.252  52.732  1.00  0.00    -0.005 A 
HETATM    4  C4  UNL     1      25.324  -0.564  53.869  1.00  0.00     0.038 A 
HETATM    5  C5  UNL     1      24.054  -0.752  54.369  1.00  0.00     0.040 A 
HETATM    6  N1  UNL     1      23.271  -0.056  53.537  1.00  0.00    -0.288 N 
HETATM    7  C16 UNL     1      23.229  -1.388  55.422  1.00  0.00     0.207 A 
HETATM    8  C15 UNL     1      21.957  -0.221  54.034  1.00  0.00     0.210 A 
HETATM    9  N3  UNL     1      21.896  -0.956  55.083  1.00  0.00    -0.278 NA
BRANCH   3  10
HETATM   10  C2  UNL     1      26.481   0.652  51.948  1.00  0.00     0.038 C 
HETATM   11  C1  UNL     1      27.084   1.924  52.458  1.00  0.00     0.010 C 
ENDBRANCH   3  10
ENDBRANCH   1   2
BRANCH   1  12
HETATM   12  C7  UNL     1      22.610   2.248  51.226  1.00  0.00     0.183 C 
BRANCH  12  13
HETATM   13  C8  UNL     1      22.989   3.467  50.411  1.00  0.00     0.038 C 
HETATM   14  C9  UNL     1      23.167   4.606  51.381  1.00  0.00     0.276 C 
HETATM   15  N2  UNL     1      24.558   4.976  51.550  1.00  0.00     0.084 N 
HETATM   16  C10 UNL     1      24.980   5.473  50.239  1.00  0.00     0.274 C 
HETATM   17  H12 UNL     1      25.150   4.152  51.825  1.00  0.00     0.315 HD
HETATM   18  C11 UNL     1      25.129   4.288  49.335  1.00  0.00     0.014 C 
HETATM   19  C14 UNL     1      24.176   3.188  49.557  1.00  0.00     0.014 C 
BRANCH  18  20
HETATM   20  C12 UNL     1      26.576   3.808  49.459  1.00  0.00     0.002 C 
HETATM   21  C13 UNL     1      27.521   4.748  48.746  1.00  0.00     0.005 C 
ENDBRANCH  18  20
ENDBRANCH  12  13
ENDBRANCH   1  12
TORSDOF 5
ENDMDL
MODEL 3
REMARK VINA RESULT:      -7.1      2.059      5.144
REMARK  5 active torsions:
REMARK  status: ('A' for Active; 'I' for Inactive)
REMARK    1  A    between atoms: C2_2  and  C3_3 
REMARK    2  A    between atoms: C6_7  and  O1_8 
REMARK    3  A    between atoms: O1_8  and  C7_9 
REMARK    4  A    between atoms: C7_9  and  C8_10 
REMARK    5  A    between atoms: C11_14  and  C12_15 
ROOT
HETATM    1  O1  UNL     1      24.181   0.569  53.353  1.00  0.00    -0.335 OA
ENDROOT
BRANCH   1   2
HETATM    2  C6  UNL     1      25.433   1.039  53.141  1.00  0.00     0.156 A 
HETATM    3  C3  UNL     1      25.615   1.865  52.029  1.00  0.00    -0.005 A 
HETATM    4  C4  UNL     1      26.971   2.219  52.024  1.00  0.00     0.038 A 
HETATM    5  C5  UNL     1      27.607   1.632  53.095  1.00  0.00     0.040 A 
HETATM    6  N1  UNL     1      26.638   0.948  53.714  1.00  0.00    -0.288 N 
HETATM    7  C16 UNL     1      28.887   1.457  53.820  1.00  0.00     0.207 A 
HETATM    8  C15 UNL     1      27.261   0.341  54.829  1.00  0.00     0.210 A 
HETATM    9  N3  UNL     1      28.513   0.603  54.920  1.00  0.00    -0.278 NA
BRANCH   3  10
HETATM   10  C2  UNL     1      24.640   2.342  50.995  1.00  0.00     0.038 C 
HETATM   11  C1  UNL     1      25.280   3.262  50.002  1.00  0.00     0.010 C 
ENDBRANCH   3  10
ENDBRANCH   1   2
BRANCH   1  12
HETATM   12  C7  UNL     1      23.674  -0.618  53.809  1.00  0.00     0.183 C 
BRANCH  12  13
HETATM   13  C8  UNL     1      22.350  -1.054  53.218  1.00  0.00     0.038 C 
HETATM   14  C9  UNL     1      21.451  -1.411  54.372  1.00  0.00     0.276 C 
HETATM   15  N2  UNL     1      20.402  -0.433  54.578  1.00  0.00     0.084 N 
HETATM   16  C10 UNL     1      19.578  -0.500  53.370  1.00  0.00     0.274 C 
HETATM   17  H12 UNL     1      20.790   0.538  54.691  1.00  0.00     0.315 HD
HETATM   18  C11 UNL     1      20.345   0.163  52.266  1.00  0.00     0.014 C 
HETATM   19  C14 UNL     1      21.806  -0.010  52.306  1.00  0.00     0.014 C 
BRANCH  18  20
HETATM   20  C12 UNL     1      19.957   1.643  52.276  1.00  0.00     0.002 C 
HETATM   21  C13 UNL     1      21.185   2.523  52.341  1.00  0.00     0.005 C 
ENDBRANCH  18  20
ENDBRANCH  12  13
ENDBRANCH   1  12
TORSDOF 5
ENDMDL
MODEL 4
REMARK VINA RESULT:      -7.0      2.612      5.008
REMARK  5 active torsions:
REMARK  status: ('A' for Active; 'I' for Inactive)
REMARK    1  A    between atoms: C2_2  and  C3_3 
REMARK    2  A    between atoms: C6_7  and  O1_8 
REMARK    3  A    between atoms: O1_8  and  C7_9 
REMARK    4  A    between atoms: C7_9  and  C8_10 
REMARK    5  A    between atoms: C11_14  and  C12_15 
ROOT
HETATM    1  O1  UNL     1      24.489   1.033  51.905  1.00  0.00    -0.335 OA
ENDROOT
BRANCH   1   2
HETATM    2  C6  UNL     1      23.303   0.542  52.334  1.00  0.00     0.156 A 
HETATM    3  C3  UNL     1      22.178   0.848  51.562  1.00  0.00    -0.005 A 
HETATM    4  C4  UNL     1      21.091   0.235  52.198  1.00  0.00     0.038 A 
HETATM    5  C5  UNL     1      21.525  -0.427  53.325  1.00  0.00     0.040 A 
HETATM    6  N1  UNL     1      22.844  -0.204  53.344  1.00  0.00    -0.288 N 
HETATM    7  C16 UNL     1      21.139  -1.263  54.486  1.00  0.00     0.207 A 
HETATM    8  C15 UNL     1      23.321  -0.884  54.489  1.00  0.00     0.210 A 
HETATM    9  N3  UNL     1      22.401  -1.485  55.148  1.00  0.00    -0.278 NA
BRANCH   3  10
HETATM   10  C2  UNL     1      22.046   1.649  50.301  1.00  0.00     0.038 C 
HETATM   11  C1  UNL     1      21.392   0.865  49.206  1.00  0.00     0.010 C 
ENDBRANCH   3  10
ENDBRANCH   1   2
BRANCH   1  12
HETATM   12  C7  UNL     1      25.192   2.180  52.161  1.00  0.00     0.183 C 
BRANCH  12  13
HETATM   13  C8  UNL     1      26.575   2.001  52.750  1.00  0.00     0.038 C 
HETATM   14  C9  UNL     1      26.427   2.069  54.247  1.00  0.00     0.276 C 
HETATM   15  N2  UNL     1      26.598   0.776  54.879  1.00  0.00     0.084 N 
HETATM   16  C10 UNL     1      27.989   0.406  54.614  1.00  0.00     0.274 C 
HETATM   17  H12 UNL     1      25.953   0.054  54.470  1.00  0.00     0.315 HD
HETATM   18  C11 UNL     1      28.081   0.010  53.172  1.00  0.00     0.014 C 
HETATM   19  C14 UNL     1      27.211   0.752  52.245  1.00  0.00     0.014 C 
BRANCH  18  20
HETATM   20  C12 UNL     1      27.817  -1.495  53.102  1.00  0.00     0.002 C 
HETATM   21  C13 UNL     1      26.573  -1.789  52.295  1.00  0.00     0.005 C 
ENDBRANCH  18  20
ENDBRANCH  12  13
ENDBRANCH   1  12
TORSDOF 5
ENDMDL
MODEL 5
REMARK VINA RESULT:      -6.7      2.353      4.011
REMARK  5 active torsions:
REMARK  status: ('A' for Active; 'I' for Inactive)
REMARK    1  A    between atoms: C2_2  and  C3_3 
REMARK    2  A    between atoms: C6_7  and  O1_8 
REMARK    3  A    between atoms: O1_8  and  C7_9 
REMARK    4  A    between atoms: C7_9  and  C8_10 
REMARK    5  A    between atoms: C11_14  and  C12_15 
ROOT
HETATM    1  O1  UNL     1      24.389   1.834  52.115  1.00  0.00    -0.335 OA
ENDROOT
BRANCH   1   2
HETATM    2  C6  UNL     1      25.122   1.095  52.979  1.00  0.00     0.156 A 
HETATM    3  C3  UNL     1      24.512  -0.048  53.506  1.00  0.00    -0.005 A 
HETATM    4  C4  UNL     1      25.456  -0.636  54.358  1.00  0.00     0.038 A 
HETATM    5  C5  UNL     1      26.610   0.115  54.361  1.00  0.00     0.040 A 
HETATM    6  N1  UNL     1      26.343   1.124  53.524  1.00  0.00    -0.288 N 
HETATM    7  C16 UNL     1      27.985   0.255  54.895  1.00  0.00     0.207 A 
HETATM    8  C15 UNL     1      27.519   1.910  53.498  1.00  0.00     0.210 A 
HETATM    9  N3  UNL     1      28.454   1.456  54.248  1.00  0.00    -0.278 NA
BRANCH   3  10
HETATM   10  C2  UNL     1      23.146  -0.621  53.275  1.00  0.00     0.038 C 
HETATM   11  C1  UNL     1      22.456  -0.958  54.561  1.00  0.00     0.010 C 
ENDBRANCH   3  10
ENDBRANCH   1   2
BRANCH   1  12
HETATM   12  C7  UNL     1      23.658   2.986  52.230  1.00  0.00     0.183 C 
BRANCH  12  13
HETATM   13  C8  UNL     1      22.346   3.027  51.475  1.00  0.00     0.038 C 
HETATM   14  C9  UNL     1      22.546   2.247  50.203  1.00  0.00     0.276 C 
HETATM   15  N2  UNL     1      21.856   0.973  50.220  1.00  0.00     0.084 N 
HETATM   16  C10 UNL     1      20.433   1.314  50.282  1.00  0.00     0.274 C 
HETATM   17  H12 UNL     1      22.120   0.398  51.060  1.00  0.00     0.315 HD
HETATM   18  C11 UNL     1      20.146   1.791  51.673  1.00  0.00     0.014 C 
HETATM   19  C14 UNL     1      21.226   2.544  52.330  1.00  0.00     0.014 C 
BRANCH  18  20
HETATM   20  C12 UNL     1      19.741   0.565  52.493  1.00  0.00     0.002 C 
HETATM   21  C13 UNL     1      18.646  -0.213  51.799  1.00  0.00     0.005 C 
ENDBRANCH  18  20
ENDBRANCH  12  13
ENDBRANCH   1  12
TORSDOF 5
ENDMDL
MODEL 6
REMARK VINA RESULT:      -6.7      1.698      2.882
REMARK  5 active torsions:
REMARK  status: ('A' for Active; 'I' for Inactive)
REMARK    1  A    between atoms: C2_2  and  C3_3 
REMARK    2  A    between atoms: C6_7  and  O1_8 
REMARK    3  A    between atoms: O1_8  and  C7_9 
REMARK    4  A    between atoms: C7_9  and  C8_10 
REMARK    5  A    between atoms: C11_14  and  C12_15 
ROOT
HETATM    1  O1  UNL     1      25.475   2.418  50.704  1.00  0.00    -0.335 OA
ENDROOT
BRANCH   1   2
HETATM    2  C6  UNL     1      25.101   1.631  51.740  1.00  0.00     0.156 A 
HETATM    3  C3  UNL     1      23.729   1.523  51.985  1.00  0.00    -0.005 A 
HETATM    4  C4  UNL     1      23.597   0.668  53.087  1.00  0.00     0.038 A 
HETATM    5  C5  UNL     1      24.843   0.259  53.510  1.00  0.00     0.040 A 
HETATM    6  N1  UNL     1      25.687   0.868  52.668  1.00  0.00    -0.288 N 
HETATM    7  C16 UNL     1      25.604  -0.555  54.485  1.00  0.00     0.207 A 
HETATM    8  C15 UNL     1      26.978   0.457  53.073  1.00  0.00     0.210 A 
HETATM    9  N3  UNL     1      26.971  -0.335  54.080  1.00  0.00    -0.278 NA
BRANCH   3  10
HETATM   10  C2  UNL     1      22.559   2.143  51.283  1.00  0.00     0.038 C 
HETATM   11  C1  UNL     1      21.903   1.186  50.337  1.00  0.00     0.010 C 
ENDBRANCH   3  10
ENDBRANCH   1   2
BRANCH   1  12
HETATM   12  C7  UNL     1      26.421   3.395  50.544  1.00  0.00     0.183 C 
BRANCH  12  13
HETATM   13  C8  UNL     1      26.183   4.383  49.421  1.00  0.00     0.038 C 
HETATM   14  C9  UNL     1      25.500   5.580  50.028  1.00  0.00     0.276 C 
HETATM   15  N2  UNL     1      26.374   6.733  50.110  1.00  0.00     0.084 N 
HETATM   16  C10 UNL     1      26.672   7.082  48.720  1.00  0.00     0.274 C 
HETATM   17  H12 UNL     1      27.266   6.511  50.620  1.00  0.00     0.315 HD
HETATM   18  C11 UNL     1      27.632   6.059  48.196  1.00  0.00     0.014 C 
HETATM   19  C14 UNL     1      27.452   4.690  48.705  1.00  0.00     0.014 C 
BRANCH  18  20
HETATM   20  C12 UNL     1      29.042   6.580  48.479  1.00  0.00     0.002 C 
HETATM   21  C13 UNL     1      30.088   5.604  47.989  1.00  0.00     0.005 C 
ENDBRANCH  18  20
ENDBRANCH  12  13
ENDBRANCH   1  12
TORSDOF 5
ENDMDL
MODEL 7
REMARK VINA RESULT:      -6.6      2.111      4.259
REMARK  5 active torsions:
REMARK  status: ('A' for Active; 'I' for Inactive)
REMARK    1  A    between atoms: C2_2  and  C3_3 
REMARK    2  A    between atoms: C6_7  and  O1_8 
REMARK    3  A    between atoms: O1_8  and  C7_9 
REMARK    4  A    between atoms: C7_9  and  C8_10 
REMARK    5  A    between atoms: C11_14  and  C12_15 
ROOT
HETATM    1  O1  UNL     1      23.429   0.835  53.151  1.00  0.00    -0.335 OA
ENDROOT
BRANCH   1   2
HETATM    2  C6  UNL     1      24.755   1.046  52.978  1.00  0.00     0.156 A 
HETATM    3  C3  UNL     1      25.129   1.852  51.898  1.00  0.00    -0.005 A 
HETATM    4  C4  UNL     1      26.527   1.922  51.931  1.00  0.00     0.038 A 
HETATM    5  C5  UNL     1      27.005   1.185  52.992  1.00  0.00     0.040 A 
HETATM    6  N1  UNL     1      25.902   0.694  53.569  1.00  0.00    -0.288 N 
HETATM    7  C16 UNL     1      28.204   0.733  53.734  1.00  0.00     0.207 A 
HETATM    8  C15 UNL     1      26.362  -0.060  54.673  1.00  0.00     0.210 A 
HETATM    9  N3  UNL     1      27.638  -0.061  54.796  1.00  0.00    -0.278 NA
BRANCH   3  10
HETATM   10  C2  UNL     1      24.296   2.547  50.864  1.00  0.00     0.038 C 
HETATM   11  C1  UNL     1      25.139   3.255  49.849  1.00  0.00     0.010 C 
ENDBRANCH   3  10
ENDBRANCH   1   2
BRANCH   1  12
HETATM   12  C7  UNL     1      22.613  -0.255  53.011  1.00  0.00     0.183 C 
BRANCH  12  13
HETATM   13  C8  UNL     1      21.220   0.012  52.481  1.00  0.00     0.038 C 
HETATM   14  C9  UNL     1      20.645   1.135  53.303  1.00  0.00     0.276 C 
HETATM   15  N2  UNL     1      20.563   2.378  52.562  1.00  0.00     0.084 N 
HETATM   16  C10 UNL     1      19.605   2.115  51.487  1.00  0.00     0.274 C 
HETATM   17  H12 UNL     1      21.492   2.650  52.152  1.00  0.00     0.315 HD
HETATM   18  C11 UNL     1      20.292   1.248  50.476  1.00  0.00     0.014 C 
HETATM   19  C14 UNL     1      21.250   0.269  51.014  1.00  0.00     0.014 C 
BRANCH  18  20
HETATM   20  C12 UNL     1      20.956   2.181  49.462  1.00  0.00     0.002 C 
HETATM   21  C13 UNL     1      21.749   1.396  48.442  1.00  0.00     0.005 C 
ENDBRANCH  18  20
ENDBRANCH  12  13
ENDBRANCH   1  12
TORSDOF 5
ENDMDL
MODEL 8
REMARK VINA RESULT:      -6.5      1.647      2.218
REMARK  5 active torsions:
REMARK  status: ('A' for Active; 'I' for Inactive)
REMARK    1  A    between atoms: C2_2  and  C3_3 
REMARK    2  A    between atoms: C6_7  and  O1_8 
REMARK    3  A    between atoms: O1_8  and  C7_9 
REMARK    4  A    between atoms: C7_9  and  C8_10 
REMARK    5  A    between atoms: C11_14  and  C12_15 
ROOT
HETATM    1  O1  UNL     1      25.133   2.594  52.098  1.00  0.00    -0.335 OA
ENDROOT
BRANCH   1   2
HETATM    2  C6  UNL     1      25.712   1.694  52.926  1.00  0.00     0.156 A 
HETATM    3  C3  UNL     1      24.933   0.598  53.310  1.00  0.00    -0.005 A 
HETATM    4  C4  UNL     1      25.741  -0.178  54.152  1.00  0.00     0.038 A 
HETATM    5  C5  UNL     1      26.977   0.414  54.285  1.00  0.00     0.040 A 
HETATM    6  N1  UNL     1      26.891   1.518  53.534  1.00  0.00    -0.288 N 
HETATM    7  C16 UNL     1      28.321   0.328  54.901  1.00  0.00     0.207 A 
HETATM    8  C15 UNL     1      28.154   2.145  53.644  1.00  0.00     0.210 A 
HETATM    9  N3  UNL     1      28.976   1.510  54.395  1.00  0.00    -0.278 NA
BRANCH   3  10
HETATM   10  C2  UNL     1      23.524   0.229  52.956  1.00  0.00     0.038 C 
HETATM   11  C1  UNL     1      22.899  -0.653  53.992  1.00  0.00     0.010 C 
ENDBRANCH   3  10
ENDBRANCH   1   2
BRANCH   1  12
HETATM   12  C7  UNL     1      25.584   3.353  51.052  1.00  0.00     0.183 C 
BRANCH  12  13
HETATM   13  C8  UNL     1      24.653   4.443  50.562  1.00  0.00     0.038 C 
HETATM   14  C9  UNL     1      23.897   4.947  51.763  1.00  0.00     0.276 C 
HETATM   15  N2  UNL     1      24.327   6.269  52.173  1.00  0.00     0.084 N 
HETATM   16  C10 UNL     1      23.971   7.146  51.055  1.00  0.00     0.274 C 
HETATM   17  H12 UNL     1      25.364   6.308  52.338  1.00  0.00     0.315 HD
HETATM   18  C11 UNL     1      24.945   6.881  49.948  1.00  0.00     0.014 C 
HETATM   19  C14 UNL     1      25.407   5.490  49.818  1.00  0.00     0.014 C 
BRANCH  18  20
HETATM   20  C12 UNL     1      26.118   7.844  50.143  1.00  0.00     0.002 C 
HETATM   21  C13 UNL     1      25.800   9.207  49.571  1.00  0.00     0.005 C 
ENDBRANCH  18  20
ENDBRANCH  12  13
ENDBRANCH   1  12
TORSDOF 5
ENDMDL
MODEL 9
REMARK VINA RESULT:      -6.5      1.499      2.621
REMARK  5 active torsions:
REMARK  status: ('A' for Active; 'I' for Inactive)
REMARK    1  A    between atoms: C2_2  and  C3_3 
REMARK    2  A    between atoms: C6_7  and  O1_8 
REMARK    3  A    between atoms: O1_8  and  C7_9 
REMARK    4  A    between atoms: C7_9  and  C8_10 
REMARK    5  A    between atoms: C11_14  and  C12_15 
ROOT
HETATM    1  O1  UNL     1      24.247   2.126  52.704  1.00  0.00    -0.335 OA
ENDROOT
BRANCH   1   2
HETATM    2  C6  UNL     1      25.102   1.279  53.323  1.00  0.00     0.156 A 
HETATM    3  C3  UNL     1      24.608   0.014  53.654  1.00  0.00    -0.005 A 
HETATM    4  C4  UNL     1      25.664  -0.667  54.273  1.00  0.00     0.038 A 
HETATM    5  C5  UNL     1      26.774   0.146  54.325  1.00  0.00     0.040 A 
HETATM    6  N1  UNL     1      26.371   1.283  53.745  1.00  0.00    -0.288 N 
HETATM    7  C16 UNL     1      28.189   0.269  54.745  1.00  0.00     0.207 A 
HETATM    8  C15 UNL     1      27.499   2.136  53.774  1.00  0.00     0.210 A 
HETATM    9  N3  UNL     1      28.528   1.605  54.322  1.00  0.00    -0.278 NA
BRANCH   3  10
HETATM   10  C2  UNL     1      23.254  -0.593  53.437  1.00  0.00     0.038 C 
HETATM   11  C1  UNL     1      22.648  -1.079  54.717  1.00  0.00     0.010 C 
ENDBRANCH   3  10
ENDBRANCH   1   2
BRANCH   1  12
HETATM   12  C7  UNL     1      24.005   3.470  52.796  1.00  0.00     0.183 C 
BRANCH  12  13
HETATM   13  C8  UNL     1      23.473   4.144  51.548  1.00  0.00     0.038 C 
HETATM   14  C9  UNL     1      24.615   4.224  50.571  1.00  0.00     0.276 C 
HETATM   15  N2  UNL     1      24.463   3.300  49.464  1.00  0.00     0.084 N 
HETATM   16  C10 UNL     1      23.269   3.759  48.751  1.00  0.00     0.274 C 
HETATM   17  H12 UNL     1      24.321   2.313  49.797  1.00  0.00     0.315 HD
HETATM   18  C11 UNL     1      22.078   3.381  49.578  1.00  0.00     0.014 C 
HETATM   19  C14 UNL     1      22.266   3.437  51.036  1.00  0.00     0.014 C 
BRANCH  18  20
HETATM   20  C12 UNL     1      21.640   1.988  49.123  1.00  0.00     0.002 C 
HETATM   21  C13 UNL     1      21.728   0.995  50.260  1.00  0.00     0.005 C 
ENDBRANCH  18  20
ENDBRANCH  12  13
ENDBRANCH   1  12
TORSDOF 5
ENDMDL
