MODEL 1
REMARK VINA RESULT:      -8.2      0.000      0.000
REMARK  7 active torsions:
REMARK  status: ('A' for Active; 'I' for Inactive)
REMARK    1  A    between atoms: C2_2  and  N1_3 
REMARK    2  A    between atoms: C2_2  and  C17_23 
REMARK    3  A    between atoms: N1_3  and  C3_4 
REMARK    4  A    between atoms: C4_5  and  N2_6 
REMARK    5  A    between atoms: N2_6  and  C5_7 
REMARK    6  A    between atoms: C17_23  and  N5_25 
REMARK    7  A    between atoms: C17_23  and  C19_26 
ROOT
HETATM    1  C3  UNL     1      23.440   0.428  53.108  1.00  0.00     0.057 C 
HETATM    2  C4  UNL     1      22.452   1.139  52.534  1.00  0.00     0.081 C 
HETATM    3  C11 UNL     1      21.015   1.130  52.896  1.00  0.00     0.091 C 
HETATM    4  C12 UNL     1      20.420   2.428  52.632  1.00  0.00     0.103 C 
HETATM    5  N3  UNL     1      19.958   3.456  52.433  1.00  0.00    -0.191 NA
HETATM    6  C13 UNL     1      20.127   0.298  53.414  1.00  0.00     0.141 C 
HETATM    7  N4  UNL     1      20.248  -1.046  53.859  1.00  0.00    -0.272 NA
HETATM    8  C14 UNL     1      21.227  -1.762  54.357  1.00  0.00     0.116 C 
HETATM    9  C15 UNL     1      22.637  -1.434  54.659  1.00  0.00     0.021 C 
HETATM   10  C16 UNL     1      23.545  -0.579  54.189  1.00  0.00     0.033 C 
ENDROOT
BRANCH   2  11
HETATM   11  N2  UNL     1      22.825   2.021  51.496  1.00  0.00    -0.353 N 
HETATM   12  H6  UNL     1      23.515   2.664  51.944  1.00  0.00     0.166 HD
BRANCH  11  13
HETATM   13  C5  UNL     1      22.636   2.384  50.144  1.00  0.00     0.034 A 
HETATM   14  C6  UNL     1      22.094   1.481  49.249  1.00  0.00     0.032 A 
HETATM   15  C7  UNL     1      21.874   1.759  47.935  1.00  0.00     0.046 A 
HETATM   16  C8  UNL     1      22.233   3.031  47.530  1.00  0.00     0.138 A 
HETATM   17  F1  UNL     1      22.034   3.343  46.212  1.00  0.00    -0.204 F 
HETATM   18  C9  UNL     1      22.771   4.001  48.319  1.00  0.00     0.074 A 
HETATM   19 CL1  UNL     1      23.170   5.597  47.708  1.00  0.00    -0.081 Cl
HETATM   20  C10 UNL     1      22.961   3.641  49.625  1.00  0.00     0.056 A 
ENDBRANCH  11  13
ENDBRANCH   2  11
BRANCH   1  21
HETATM   21  N1  UNL     1      24.722   0.701  52.554  1.00  0.00    -0.381 N 
HETATM   22  H5  UNL     1      24.786   1.120  51.593  1.00  0.00     0.160 HD
BRANCH  21  23
HETATM   23  C2  UNL     1      26.049   0.550  53.023  1.00  0.00     0.122 C 
HETATM   24  C1  UNL     1      26.895  -0.497  52.390  1.00  0.00     0.035 C 
BRANCH  23  25
HETATM   25  C17 UNL     1      26.736   1.916  52.925  1.00  0.00     0.223 C 
HETATM   26  C18 UNL     1      26.639   2.534  51.574  1.00  0.00     0.059 C 
BRANCH  25  27
HETATM   27  N5  UNL     1      26.073   2.818  53.880  1.00  0.00     0.096 N 
HETATM   28  H17 UNL     1      26.754   3.463  54.307  1.00  0.00     0.314 HD
HETATM   29  H18 UNL     1      25.454   2.296  54.502  1.00  0.00     0.314 HD
ENDBRANCH  25  27
BRANCH  25  30
HETATM   30  C19 UNL     1      28.119   1.773  53.406  1.00  0.00     0.274 C 
HETATM   31  O1  UNL     1      28.681   2.605  54.105  1.00  0.00    -0.304 OA
ENDBRANCH  25  30
ENDBRANCH  23  25
ENDBRANCH  21  23
ENDBRANCH   1  21
TORSDOF 7
ENDMDL
MODEL 2
REMARK VINA RESULT:      -8.0      2.036      2.372
REMARK  7 active torsions:
REMARK  status: ('A' for Active; 'I' for Inactive)
REMARK    1  A    between atoms: C2_2  and  N1_3 
REMARK    2  A    between atoms: C2_2  and  C17_23 
REMARK    3  A    between atoms: N1_3  and  C3_4 
REMARK    4  A    between atoms: C4_5  and  N2_6 
REMARK    5  A    between atoms: N2_6  and  C5_7 
REMARK    6  A    between atoms: C17_23  and  N5_25 
REMARK    7  A    between atoms: C17_23  and  C19_26 
ROOT
HETATM    1  C3  UNL     1      23.365   0.495  53.266  1.00  0.00     0.057 C 
HETATM    2  C4  UNL     1      22.397   1.170  52.620  1.00  0.00     0.081 C 
HETATM    3  C11 UNL     1      20.937   1.101  52.869  1.00  0.00     0.091 C 
HETATM    4  C12 UNL     1      20.312   2.375  52.565  1.00  0.00     0.103 C 
HETATM    5  N3  UNL     1      19.825   3.385  52.337  1.00  0.00    -0.191 NA
HETATM    6  C13 UNL     1      20.046   0.228  53.310  1.00  0.00     0.141 C 
HETATM    7  N4  UNL     1      20.187  -1.113  53.757  1.00  0.00    -0.272 NA
HETATM    8  C14 UNL     1      21.153  -1.793  54.325  1.00  0.00     0.116 C 
HETATM    9  C15 UNL     1      22.521  -1.412  54.739  1.00  0.00     0.021 C 
HETATM   10  C16 UNL     1      23.426  -0.516  54.346  1.00  0.00     0.033 C 
ENDROOT
BRANCH   2  11
HETATM   11  N2  UNL     1      22.813   2.076  51.619  1.00  0.00    -0.353 N 
HETATM   12  H6  UNL     1      22.531   1.616  50.726  1.00  0.00     0.166 HD
BRANCH  11  13
HETATM   13  C5  UNL     1      23.453   3.305  51.347  1.00  0.00     0.034 A 
HETATM   14  C6  UNL     1      23.141   4.432  52.084  1.00  0.00     0.032 A 
HETATM   15  C7  UNL     1      23.720   5.648  51.887  1.00  0.00     0.046 A 
HETATM   16  C8  UNL     1      24.663   5.700  50.878  1.00  0.00     0.138 A 
HETATM   17  F1  UNL     1      25.259   6.910  50.646  1.00  0.00    -0.204 F 
HETATM   18  C9  UNL     1      25.052   4.659  50.091  1.00  0.00     0.074 A 
HETATM   19 CL1  UNL     1      26.281   4.826  48.849  1.00  0.00    -0.081 Cl
HETATM   20  C10 UNL     1      24.422   3.473  50.353  1.00  0.00     0.056 A 
ENDBRANCH  11  13
ENDBRANCH   2  11
BRANCH   1  21
HETATM   21  N1  UNL     1      24.674   0.824  52.816  1.00  0.00    -0.381 N 
HETATM   22  H5  UNL     1      24.794   1.592  52.109  1.00  0.00     0.160 HD
BRANCH  21  23
HETATM   23  C2  UNL     1      25.970   0.344  53.122  1.00  0.00     0.122 C 
HETATM   24  C1  UNL     1      26.561  -0.683  52.224  1.00  0.00     0.035 C 
BRANCH  23  25
HETATM   25  C17 UNL     1      26.903   1.555  53.228  1.00  0.00     0.223 C 
HETATM   26  C18 UNL     1      27.175   2.211  51.919  1.00  0.00     0.059 C 
BRANCH  25  27
HETATM   27  N5  UNL     1      26.252   2.545  54.100  1.00  0.00     0.096 N 
HETATM   28  H17 UNL     1      25.868   2.093  54.942  1.00  0.00     0.314 HD
HETATM   29  H18 UNL     1      25.634   3.153  53.560  1.00  0.00     0.314 HD
ENDBRANCH  25  27
BRANCH  25  30
HETATM   30  C19 UNL     1      28.122   1.139  53.938  1.00  0.00     0.274 C 
HETATM   31  O1  UNL     1      28.130   0.747  55.097  1.00  0.00    -0.304 OA
ENDBRANCH  25  30
ENDBRANCH  23  25
ENDBRANCH  21  23
ENDBRANCH   1  21
TORSDOF 7
ENDMDL
MODEL 3
REMARK VINA RESULT:      -7.9      3.408      5.497
REMARK  7 active torsions:
REMARK  status: ('A' for Active; 'I' for Inactive)
REMARK    1  A    between atoms: C2_2  and  N1_3 
REMARK    2  A    between atoms: C2_2  and  C17_23 
REMARK    3  A    between atoms: N1_3  and  C3_4 
REMARK    4  A    between atoms: C4_5  and  N2_6 
REMARK    5  A    between atoms: N2_6  and  C5_7 
REMARK    6  A    between atoms: C17_23  and  N5_25 
REMARK    7  A    between atoms: C17_23  and  C19_26 
ROOT
HETATM    1  C3  UNL     1      22.437   0.976  51.451  1.00  0.00     0.057 C 
HETATM    2  C4  UNL     1      22.558   0.594  52.736  1.00  0.00     0.081 C 
HETATM    3  C11 UNL     1      21.561  -0.142  53.550  1.00  0.00     0.091 C 
HETATM    4  C12 UNL     1      22.229  -0.977  54.532  1.00  0.00     0.103 C 
HETATM    5  N3  UNL     1      22.759  -1.643  55.296  1.00  0.00    -0.191 NA
HETATM    6  C13 UNL     1      20.248  -0.279  53.624  1.00  0.00     0.141 C 
HETATM    7  N4  UNL     1      19.198   0.298  52.860  1.00  0.00    -0.272 NA
HETATM    8  C14 UNL     1      19.095   0.735  51.628  1.00  0.00     0.116 C 
HETATM    9  C15 UNL     1      20.068   0.796  50.516  1.00  0.00     0.021 C 
HETATM   10  C16 UNL     1      21.392   0.892  50.404  1.00  0.00     0.033 C 
ENDROOT
BRANCH   2  11
HETATM   11  N2  UNL     1      23.784   0.889  53.373  1.00  0.00    -0.353 N 
HETATM   12  H6  UNL     1      23.586   1.757  53.917  1.00  0.00     0.166 HD
BRANCH  11  13
HETATM   13  C5  UNL     1      25.131   0.505  53.552  1.00  0.00     0.034 A 
HETATM   14  C6  UNL     1      25.998   1.312  54.264  1.00  0.00     0.032 A 
HETATM   15  C7  UNL     1      27.306   1.006  54.485  1.00  0.00     0.046 A 
HETATM   16  C8  UNL     1      27.735  -0.190  53.943  1.00  0.00     0.138 A 
HETATM   17  F1  UNL     1      29.048  -0.526  54.139  1.00  0.00    -0.204 F 
HETATM   18  C9  UNL     1      26.975  -1.064  53.228  1.00  0.00     0.074 A 
HETATM   19 CL1  UNL     1      27.615  -2.574  52.601  1.00  0.00    -0.081 Cl
HETATM   20  C10 UNL     1      25.673  -0.682  53.050  1.00  0.00     0.056 A 
ENDBRANCH  11  13
ENDBRANCH   2  11
BRANCH   1  21
HETATM   21  N1  UNL     1      23.598   1.626  50.947  1.00  0.00    -0.381 N 
HETATM   22  H5  UNL     1      24.544   1.230  51.173  1.00  0.00     0.160 HD
BRANCH  21  23
HETATM   23  C2  UNL     1      23.814   2.763  50.132  1.00  0.00     0.122 C 
HETATM   24  C1  UNL     1      22.707   3.748  50.007  1.00  0.00     0.035 C 
BRANCH  23  25
HETATM   25  C17 UNL     1      25.088   3.456  50.626  1.00  0.00     0.223 C 
HETATM   26  C18 UNL     1      25.469   4.645  49.815  1.00  0.00     0.059 C 
BRANCH  25  27
HETATM   27  N5  UNL     1      24.842   3.911  52.003  1.00  0.00     0.096 N 
HETATM   28  H17 UNL     1      24.989   3.143  52.673  1.00  0.00     0.314 HD
HETATM   29  H18 UNL     1      23.968   4.436  52.061  1.00  0.00     0.314 HD
ENDBRANCH  25  27
BRANCH  25  30
HETATM   30  C19 UNL     1      26.154   2.447  50.723  1.00  0.00     0.274 C 
HETATM   31  O1  UNL     1      27.207   2.632  51.318  1.00  0.00    -0.304 OA
ENDBRANCH  25  30
ENDBRANCH  23  25
ENDBRANCH  21  23
ENDBRANCH   1  21
TORSDOF 7
ENDMDL
MODEL 4
REMARK VINA RESULT:      -7.9      3.377      5.728
REMARK  7 active torsions:
REMARK  status: ('A' for Active; 'I' for Inactive)
REMARK    1  A    between atoms: C2_2  and  N1_3 
REMARK    2  A    between atoms: C2_2  and  C17_23 
REMARK    3  A    between atoms: N1_3  and  C3_4 
REMARK    4  A    between atoms: C4_5  and  N2_6 
REMARK    5  A    between atoms: N2_6  and  C5_7 
REMARK    6  A    between atoms: C17_23  and  N5_25 
REMARK    7  A    between atoms: C17_23  and  C19_26 
ROOT
HETATM    1  C3  UNL     1      25.471   2.744  50.394  1.00  0.00     0.057 C 
HETATM    2  C4  UNL     1      24.166   2.535  50.140  1.00  0.00     0.081 C 
HETATM    3  C11 UNL     1      23.320   3.248  49.153  1.00  0.00     0.091 C 
HETATM    4  C12 UNL     1      22.287   2.365  48.642  1.00  0.00     0.103 C 
HETATM    5  N3  UNL     1      21.483   1.662  48.233  1.00  0.00    -0.191 NA
HETATM    6  C13 UNL     1      23.249   4.441  48.585  1.00  0.00     0.141 C 
HETATM    7  N4  UNL     1      24.053   5.602  48.736  1.00  0.00    -0.272 NA
HETATM    8  C14 UNL     1      25.308   5.813  49.050  1.00  0.00     0.116 C 
HETATM    9  C15 UNL     1      26.414   4.888  49.380  1.00  0.00     0.021 C 
HETATM   10  C16 UNL     1      26.520   3.671  49.911  1.00  0.00     0.033 C 
ENDROOT
BRANCH   2  11
HETATM   11  N2  UNL     1      23.537   1.497  50.862  1.00  0.00    -0.353 N 
HETATM   12  H6  UNL     1      23.780   0.633  50.330  1.00  0.00     0.166 HD
BRANCH  11  13
HETATM   13  C5  UNL     1      22.723   1.168  51.968  1.00  0.00     0.034 A 
HETATM   14  C6  UNL     1      21.505   1.797  52.151  1.00  0.00     0.032 A 
HETATM   15  C7  UNL     1      20.664   1.529  53.186  1.00  0.00     0.046 A 
HETATM   16  C8  UNL     1      21.104   0.566  54.074  1.00  0.00     0.138 A 
HETATM   17  F1  UNL     1      20.286   0.276  55.133  1.00  0.00    -0.204 F 
HETATM   18  C9  UNL     1      22.278  -0.119  53.996  1.00  0.00     0.074 A 
HETATM   19 CL1  UNL     1      22.733  -1.344  55.168  1.00  0.00    -0.081 Cl
HETATM   20  C10 UNL     1      23.066   0.210  52.927  1.00  0.00     0.056 A 
ENDBRANCH  11  13
ENDBRANCH   2  11
BRANCH   1  21
HETATM   21  N1  UNL     1      26.001   1.855  51.371  1.00  0.00    -0.381 N 
HETATM   22  H5  UNL     1      26.084   0.834  51.142  1.00  0.00     0.160 HD
BRANCH  21  23
HETATM   23  C2  UNL     1      26.505   2.022  52.683  1.00  0.00     0.122 C 
HETATM   24  C1  UNL     1      25.600   2.614  53.704  1.00  0.00     0.035 C 
BRANCH  23  25
HETATM   25  C17 UNL     1      27.025   0.663  53.160  1.00  0.00     0.223 C 
HETATM   26  C18 UNL     1      26.720  -0.452  52.221  1.00  0.00     0.059 C 
BRANCH  25  27
HETATM   27  N5  UNL     1      28.487   0.762  53.280  1.00  0.00     0.096 N 
HETATM   28  H17 UNL     1      28.952   0.254  52.513  1.00  0.00     0.314 HD
HETATM   29  H18 UNL     1      28.788   0.564  54.235  1.00  0.00     0.314 HD
ENDBRANCH  25  27
BRANCH  25  30
HETATM   30  C19 UNL     1      26.527   0.430  54.525  1.00  0.00     0.274 C 
HETATM   31  O1  UNL     1      26.105  -0.649  54.916  1.00  0.00    -0.304 OA
ENDBRANCH  25  30
ENDBRANCH  23  25
ENDBRANCH  21  23
ENDBRANCH   1  21
TORSDOF 7
ENDMDL
MODEL 5
REMARK VINA RESULT:      -7.8      2.565      3.231
REMARK  7 active torsions:
REMARK  status: ('A' for Active; 'I' for Inactive)
REMARK    1  A    between atoms: C2_2  and  N1_3 
REMARK    2  A    between atoms: C2_2  and  C17_23 
REMARK    3  A    between atoms: N1_3  and  C3_4 
REMARK    4  A    between atoms: C4_5  and  N2_6 
REMARK    5  A    between atoms: N2_6  and  C5_7 
REMARK    6  A    between atoms: C17_23  and  N5_25 
REMARK    7  A    between atoms: C17_23  and  C19_26 
ROOT
HETATM    1  C3  UNL     1      23.721   1.699  52.663  1.00  0.00     0.057 C 
HETATM    2  C4  UNL     1      23.377   2.827  52.014  1.00  0.00     0.081 C 
HETATM    3  C11 UNL     1      22.017   3.240  51.593  1.00  0.00     0.091 C 
HETATM    4  C12 UNL     1      21.901   4.687  51.607  1.00  0.00     0.103 C 
HETATM    5  N3  UNL     1      21.811   5.827  51.633  1.00  0.00    -0.191 NA
HETATM    6  C13 UNL     1      20.875   2.676  51.236  1.00  0.00     0.141 C 
HETATM    7  N4  UNL     1      20.499   1.311  51.114  1.00  0.00    -0.272 NA
HETATM    8  C14 UNL     1      20.880   0.200  51.697  1.00  0.00     0.116 C 
HETATM    9  C15 UNL     1      21.884  -0.072  52.748  1.00  0.00     0.021 C 
HETATM   10  C16 UNL     1      23.017   0.494  53.161  1.00  0.00     0.033 C 
ENDROOT
BRANCH   2  11
HETATM   11  N2  UNL     1      24.417   3.740  51.734  1.00  0.00    -0.353 N 
HETATM   12  H6  UNL     1      24.616   4.190  52.654  1.00  0.00     0.166 HD
BRANCH  11  13
HETATM   13  C5  UNL     1      25.259   4.285  50.739  1.00  0.00     0.034 A 
HETATM   14  C6  UNL     1      26.235   3.506  50.147  1.00  0.00     0.032 A 
HETATM   15  C7  UNL     1      27.077   3.957  49.178  1.00  0.00     0.046 A 
HETATM   16  C8  UNL     1      26.901   5.277  48.806  1.00  0.00     0.138 A 
HETATM   17  F1  UNL     1      27.737   5.767  47.839  1.00  0.00    -0.204 F 
HETATM   18  C9  UNL     1      25.977   6.136  49.316  1.00  0.00     0.074 A 
HETATM   19 CL1  UNL     1      25.820   7.792  48.755  1.00  0.00    -0.081 Cl
HETATM   20  C10 UNL     1      25.170   5.605  50.285  1.00  0.00     0.056 A 
ENDBRANCH  11  13
ENDBRANCH   2  11
BRANCH   1  21
HETATM   21  N1  UNL     1      25.110   1.626  52.963  1.00  0.00    -0.381 N 
HETATM   22  H5  UNL     1      25.604   2.484  53.313  1.00  0.00     0.160 HD
BRANCH  21  23
HETATM   23  C2  UNL     1      26.072   0.589  52.920  1.00  0.00     0.122 C 
HETATM   24  C1  UNL     1      26.629   0.213  51.593  1.00  0.00     0.035 C 
BRANCH  23  25
HETATM   25  C17 UNL     1      27.204   0.963  53.883  1.00  0.00     0.223 C 
HETATM   26  C18 UNL     1      27.808   2.293  53.600  1.00  0.00     0.059 C 
BRANCH  25  27
HETATM   27  N5  UNL     1      26.638   1.005  55.240  1.00  0.00     0.096 N 
HETATM   28  H17 UNL     1      25.749   0.486  55.282  1.00  0.00     0.314 HD
HETATM   29  H18 UNL     1      26.654   1.957  55.610  1.00  0.00     0.314 HD
ENDBRANCH  25  27
BRANCH  25  30
HETATM   30  C19 UNL     1      28.183  -0.135  53.893  1.00  0.00     0.274 C 
HETATM   31  O1  UNL     1      29.131  -0.189  54.665  1.00  0.00    -0.304 OA
ENDBRANCH  25  30
ENDBRANCH  23  25
ENDBRANCH  21  23
ENDBRANCH   1  21
TORSDOF 7
ENDMDL
MODEL 6
REMARK VINA RESULT:      -7.7      3.324      5.240
REMARK  7 active torsions:
REMARK  status: ('A' for Active; 'I' for Inactive)
REMARK    1  A    between atoms: C2_2  and  N1_3 
REMARK    2  A    between atoms: C2_2  and  C17_23 
REMARK    3  A    between atoms: N1_3  and  C3_4 
REMARK    4  A    between atoms: C4_5  and  N2_6 
REMARK    5  A    between atoms: N2_6  and  C5_7 
REMARK    6  A    between atoms: C17_23  and  N5_25 
REMARK    7  A    between atoms: C17_23  and  C19_26 
ROOT
HETATM    1  C3  UNL     1      24.581   1.926  52.692  1.00  0.00     0.057 C 
HETATM    2  C4  UNL     1      23.784   0.916  53.086  1.00  0.00     0.081 C 
HETATM    3  C11 UNL     1      24.204  -0.387  53.653  1.00  0.00     0.091 C 
HETATM    4  C12 UNL     1      23.203  -0.881  54.581  1.00  0.00     0.103 C 
HETATM    5  N3  UNL     1      22.417  -1.259  55.322  1.00  0.00    -0.191 NA
HETATM    6  C13 UNL     1      25.232  -1.216  53.580  1.00  0.00     0.141 C 
HETATM    7  N4  UNL     1      26.446  -1.144  52.845  1.00  0.00    -0.272 NA
HETATM    8  C14 UNL     1      27.191  -0.161  52.400  1.00  0.00     0.116 C 
HETATM    9  C15 UNL     1      27.050   1.308  52.496  1.00  0.00     0.021 C 
HETATM   10  C16 UNL     1      26.040   2.169  52.611  1.00  0.00     0.033 C 
ENDROOT
BRANCH   2  11
HETATM   11  N2  UNL     1      22.392   1.131  52.989  1.00  0.00    -0.353 N 
HETATM   12  H6  UNL     1      22.175   1.766  53.788  1.00  0.00     0.166 HD
BRANCH  11  13
HETATM   13  C5  UNL     1      21.208   0.830  52.278  1.00  0.00     0.034 A 
HETATM   14  C6  UNL     1      21.086   1.180  50.946  1.00  0.00     0.032 A 
HETATM   15  C7  UNL     1      19.982   0.918  50.195  1.00  0.00     0.046 A 
HETATM   16  C8  UNL     1      18.958   0.263  50.853  1.00  0.00     0.138 A 
HETATM   17  F1  UNL     1      17.829  -0.010  50.129  1.00  0.00    -0.204 F 
HETATM   18  C9  UNL     1      18.966  -0.131  52.156  1.00  0.00     0.074 A 
HETATM   19 CL1  UNL     1      17.618  -0.980  52.891  1.00  0.00    -0.081 Cl
HETATM   20  C10 UNL     1      20.111   0.171  52.841  1.00  0.00     0.056 A 
ENDBRANCH  11  13
ENDBRANCH   2  11
BRANCH   1  21
HETATM   21  N1  UNL     1      23.860   3.065  52.235  1.00  0.00    -0.381 N 
HETATM   22  H5  UNL     1      22.952   3.315  52.700  1.00  0.00     0.160 HD
BRANCH  21  23
HETATM   23  C2  UNL     1      24.090   4.040  51.235  1.00  0.00     0.122 C 
HETATM   24  C1  UNL     1      23.629   3.739  49.854  1.00  0.00     0.035 C 
BRANCH  23  25
HETATM   25  C17 UNL     1      23.481   5.359  51.722  1.00  0.00     0.223 C 
HETATM   26  C18 UNL     1      21.996   5.398  51.627  1.00  0.00     0.059 C 
BRANCH  25  27
HETATM   27  N5  UNL     1      23.846   5.523  53.137  1.00  0.00     0.096 N 
HETATM   28  H17 UNL     1      23.007   5.503  53.735  1.00  0.00     0.314 HD
HETATM   29  H18 UNL     1      24.499   6.299  53.256  1.00  0.00     0.314 HD
ENDBRANCH  25  27
BRANCH  25  30
HETATM   30  C19 UNL     1      24.142   6.463  51.008  1.00  0.00     0.274 C 
HETATM   31  O1  UNL     1      23.819   7.637  51.131  1.00  0.00    -0.304 OA
ENDBRANCH  25  30
ENDBRANCH  23  25
ENDBRANCH  21  23
ENDBRANCH   1  21
TORSDOF 7
ENDMDL
MODEL 7
REMARK VINA RESULT:      -7.4      2.867      5.218
REMARK  7 active torsions:
REMARK  status: ('A' for Active; 'I' for Inactive)
REMARK    1  A    between atoms: C2_2  and  N1_3 
REMARK    2  A    between atoms: C2_2  and  C17_23 
REMARK    3  A    between atoms: N1_3  and  C3_4 
REMARK    4  A    between atoms: C4_5  and  N2_6 
REMARK    5  A    between atoms: N2_6  and  C5_7 
REMARK    6  A    between atoms: C17_23  and  N5_25 
REMARK    7  A    between atoms: C17_23  and  C19_26 
ROOT
HETATM    1  C3  UNL     1      22.387  -0.015  52.901  1.00  0.00     0.057 C 
HETATM    2  C4  UNL     1      23.622   0.466  52.665  1.00  0.00     0.081 C 
HETATM    3  C11 UNL     1      24.901  -0.036  53.220  1.00  0.00     0.091 C 
HETATM    4  C12 UNL     1      25.982   0.181  52.276  1.00  0.00     0.103 C 
HETATM    5  N3  UNL     1      26.828   0.343  51.523  1.00  0.00    -0.191 NA
HETATM    6  C13 UNL     1      25.338  -0.647  54.309  1.00  0.00     0.141 C 
HETATM    7  N4  UNL     1      24.657  -1.091  55.474  1.00  0.00    -0.272 NA
HETATM    8  C14 UNL     1      23.435  -1.497  55.723  1.00  0.00     0.116 C 
HETATM    9  C15 UNL     1      22.249  -1.655  54.853  1.00  0.00     0.021 C 
HETATM   10  C16 UNL     1      21.799  -1.090  53.734  1.00  0.00     0.033 C 
ENDROOT
BRANCH   2  11
HETATM   11  N2  UNL     1      23.720   1.544  51.758  1.00  0.00    -0.353 N 
HETATM   12  H6  UNL     1      23.669   1.092  50.819  1.00  0.00     0.166 HD
BRANCH  11  13
HETATM   13  C5  UNL     1      23.871   2.941  51.613  1.00  0.00     0.034 A 
HETATM   14  C6  UNL     1      23.325   3.803  52.546  1.00  0.00     0.032 A 
HETATM   15  C7  UNL     1      23.436   5.157  52.478  1.00  0.00     0.046 A 
HETATM   16  C8  UNL     1      24.143   5.642  51.394  1.00  0.00     0.138 A 
HETATM   17  F1  UNL     1      24.267   7.001  51.290  1.00  0.00    -0.204 F 
HETATM   18  C9  UNL     1      24.725   4.893  50.417  1.00  0.00     0.074 A 
HETATM   19 CL1  UNL     1      25.625   5.609  49.092  1.00  0.00    -0.081 Cl
HETATM   20  C10 UNL     1      24.567   3.541  50.559  1.00  0.00     0.056 A 
ENDBRANCH  11  13
ENDBRANCH   2  11
BRANCH   1  21
HETATM   21  N1  UNL     1      21.371   0.666  52.174  1.00  0.00    -0.381 N 
HETATM   22  H5  UNL     1      21.394   1.714  52.123  1.00  0.00     0.160 HD
BRANCH  21  23
HETATM   23  C2  UNL     1      20.249   0.244  51.421  1.00  0.00     0.122 C 
HETATM   24  C1  UNL     1      19.008  -0.107  52.162  1.00  0.00     0.035 C 
BRANCH  23  25
HETATM   25  C17 UNL     1      19.955   1.325  50.377  1.00  0.00     0.223 C 
HETATM   26  C18 UNL     1      18.523   1.386  49.972  1.00  0.00     0.059 C 
BRANCH  25  27
HETATM   27  N5  UNL     1      20.310   2.624  50.968  1.00  0.00     0.096 N 
HETATM   28  H17 UNL     1      21.209   2.565  51.467  1.00  0.00     0.314 HD
HETATM   29  H18 UNL     1      19.513   3.028  51.463  1.00  0.00     0.314 HD
ENDBRANCH  25  27
BRANCH  25  30
HETATM   30  C19 UNL     1      20.876   1.136  49.245  1.00  0.00     0.274 C 
HETATM   31  O1  UNL     1      22.094   1.145  49.355  1.00  0.00    -0.304 OA
ENDBRANCH  25  30
ENDBRANCH  23  25
ENDBRANCH  21  23
ENDBRANCH   1  21
TORSDOF 7
ENDMDL
MODEL 8
REMARK VINA RESULT:      -7.4      2.875      5.303
REMARK  7 active torsions:
REMARK  status: ('A' for Active; 'I' for Inactive)
REMARK    1  A    between atoms: C2_2  and  N1_3 
REMARK    2  A    between atoms: C2_2  and  C17_23 
REMARK    3  A    between atoms: N1_3  and  C3_4 
REMARK    4  A    between atoms: C4_5  and  N2_6 
REMARK    5  A    between atoms: N2_6  and  C5_7 
REMARK    6  A    between atoms: C17_23  and  N5_25 
REMARK    7  A    between atoms: C17_23  and  C19_26 
ROOT
HETATM    1  C3  UNL     1      24.174   0.771  52.994  1.00  0.00     0.057 C 
HETATM    2  C4  UNL     1      24.741   1.742  52.255  1.00  0.00     0.081 C 
HETATM    3  C11 UNL     1      26.188   2.028  52.110  1.00  0.00     0.091 C 
HETATM    4  C12 UNL     1      26.465   2.576  50.794  1.00  0.00     0.103 C 
HETATM    5  N3  UNL     1      26.680   2.996  49.752  1.00  0.00    -0.191 NA
HETATM    6  C13 UNL     1      27.300   1.905  52.817  1.00  0.00     0.141 C 
HETATM    7  N4  UNL     1      27.531   1.394  54.122  1.00  0.00    -0.272 NA
HETATM    8  C14 UNL     1      26.939   0.496  54.872  1.00  0.00     0.116 C 
HETATM    9  C15 UNL     1      25.760  -0.365  54.641  1.00  0.00     0.021 C 
HETATM   10  C16 UNL     1      24.648  -0.293  53.909  1.00  0.00     0.033 C 
ENDROOT
BRANCH   2  11
HETATM   11  N2  UNL     1      23.868   2.557  51.501  1.00  0.00    -0.353 N 
HETATM   12  H6  UNL     1      23.570   1.946  50.708  1.00  0.00     0.166 HD
BRANCH  11  13
HETATM   13  C5  UNL     1      23.268   3.830  51.380  1.00  0.00     0.034 A 
HETATM   14  C6  UNL     1      21.894   3.963  51.449  1.00  0.00     0.032 A 
HETATM   15  C7  UNL     1      21.244   5.154  51.350  1.00  0.00     0.046 A 
HETATM   16  C8  UNL     1      22.055   6.259  51.170  1.00  0.00     0.138 A 
HETATM   17  F1  UNL     1      21.434   7.474  51.057  1.00  0.00    -0.204 F 
HETATM   18  C9  UNL     1      23.414   6.251  51.089  1.00  0.00     0.074 A 
HETATM   19 CL1  UNL     1      24.354   7.718  50.883  1.00  0.00    -0.081 Cl
HETATM   20  C10 UNL     1      23.989   5.014  51.197  1.00  0.00     0.056 A 
ENDBRANCH  11  13
ENDBRANCH   2  11
BRANCH   1  21
HETATM   21  N1  UNL     1      22.756   0.735  52.880  1.00  0.00    -0.381 N 
HETATM   22  H5  UNL     1      22.224   1.639  52.825  1.00  0.00     0.160 HD
BRANCH  21  23
HETATM   23  C2  UNL     1      21.801  -0.306  52.798  1.00  0.00     0.122 C 
HETATM   24  C1  UNL     1      21.608  -1.168  53.995  1.00  0.00     0.035 C 
BRANCH  23  25
HETATM   25  C17 UNL     1      20.467   0.316  52.373  1.00  0.00     0.223 C 
HETATM   26  C18 UNL     1      19.282  -0.502  52.752  1.00  0.00     0.059 C 
BRANCH  25  27
HETATM   27  N5  UNL     1      20.348   1.618  53.046  1.00  0.00     0.096 N 
HETATM   28  H17 UNL     1      20.367   2.387  52.361  1.00  0.00     0.314 HD
HETATM   29  H18 UNL     1      20.982   1.673  53.845  1.00  0.00     0.314 HD
ENDBRANCH  25  27
BRANCH  25  30
HETATM   30  C19 UNL     1      20.535   0.616  50.934  1.00  0.00     0.274 C 
HETATM   31  O1  UNL     1      21.580   0.646  50.298  1.00  0.00    -0.304 OA
ENDBRANCH  25  30
ENDBRANCH  23  25
ENDBRANCH  21  23
ENDBRANCH   1  21
TORSDOF 7
ENDMDL
MODEL 9
REMARK VINA RESULT:      -7.4      2.331      5.013
REMARK  7 active torsions:
REMARK  status: ('A' for Active; 'I' for Inactive)
REMARK    1  A    between atoms: C2_2  and  N1_3 
REMARK    2  A    between atoms: C2_2  and  C17_23 
REMARK    3  A    between atoms: N1_3  and  C3_4 
REMARK    4  A    between atoms: C4_5  and  N2_6 
REMARK    5  A    between atoms: N2_6  and  C5_7 
REMARK    6  A    between atoms: C17_23  and  N5_25 
REMARK    7  A    between atoms: C17_23  and  C19_26 
ROOT
HETATM    1  C3  UNL     1      24.167   1.023  53.132  1.00  0.00     0.057 C 
HETATM    2  C4  UNL     1      24.844   2.015  52.524  1.00  0.00     0.081 C 
HETATM    3  C11 UNL     1      26.314   2.145  52.390  1.00  0.00     0.091 C 
HETATM    4  C12 UNL     1      26.650   2.837  51.158  1.00  0.00     0.103 C 
HETATM    5  N3  UNL     1      26.909   3.372  50.181  1.00  0.00    -0.191 NA
HETATM    6  C13 UNL     1      27.406   1.792  53.048  1.00  0.00     0.141 C 
HETATM    7  N4  UNL     1      27.580   1.078  54.264  1.00  0.00    -0.272 NA
HETATM    8  C14 UNL     1      26.888   0.159  54.894  1.00  0.00     0.116 C 
HETATM    9  C15 UNL     1      25.612  -0.515  54.569  1.00  0.00     0.021 C 
HETATM   10  C16 UNL     1      24.514  -0.208  53.879  1.00  0.00     0.033 C 
ENDROOT
BRANCH   2  11
HETATM   11  N2  UNL     1      24.072   3.026  51.910  1.00  0.00    -0.353 N 
HETATM   12  H6  UNL     1      23.635   3.533  52.710  1.00  0.00     0.166 HD
BRANCH  11  13
HETATM   13  C5  UNL     1      23.654   3.599  50.689  1.00  0.00     0.034 A 
HETATM   14  C6  UNL     1      23.649   4.972  50.528  1.00  0.00     0.032 A 
HETATM   15  C7  UNL     1      23.268   5.597  49.381  1.00  0.00     0.046 A 
HETATM   16  C8  UNL     1      22.873   4.762  48.353  1.00  0.00     0.138 A 
HETATM   17  F1  UNL     1      22.474   5.357  47.187  1.00  0.00    -0.204 F 
HETATM   18  C9  UNL     1      22.838   3.401  48.395  1.00  0.00     0.074 A 
HETATM   19 CL1  UNL     1      22.340   2.430  47.021  1.00  0.00    -0.081 Cl
HETATM   20  C10 UNL     1      23.235   2.852  49.583  1.00  0.00     0.056 A 
ENDBRANCH  11  13
ENDBRANCH   2  11
BRANCH   1  21
HETATM   21  N1  UNL     1      22.755   1.172  53.045  1.00  0.00    -0.381 N 
HETATM   22  H5  UNL     1      22.354   2.107  52.783  1.00  0.00     0.160 HD
BRANCH  21  23
HETATM   23  C2  UNL     1      21.659   0.293  53.220  1.00  0.00     0.122 C 
HETATM   24  C1  UNL     1      21.093   0.154  54.588  1.00  0.00     0.035 C 
BRANCH  23  25
HETATM   25  C17 UNL     1      20.565   0.708  52.233  1.00  0.00     0.223 C 
HETATM   26  C18 UNL     1      20.953   0.530  50.806  1.00  0.00     0.059 C 
BRANCH  25  27
HETATM   27  N5  UNL     1      19.390  -0.139  52.487  1.00  0.00     0.096 N 
HETATM   28  H17 UNL     1      19.629  -0.914  53.123  1.00  0.00     0.314 HD
HETATM   29  H18 UNL     1      18.911  -0.367  51.614  1.00  0.00     0.314 HD
ENDBRANCH  25  27
BRANCH  25  30
HETATM   30  C19 UNL     1      20.145   2.080  52.558  1.00  0.00     0.274 C 
HETATM   31  O1  UNL     1      20.824   3.070  52.319  1.00  0.00    -0.304 OA
ENDBRANCH  25  30
ENDBRANCH  23  25
ENDBRANCH  21  23
ENDBRANCH   1  21
TORSDOF 7
ENDMDL
