MODEL 1
REMARK VINA RESULT:      -7.7      0.000      0.000
REMARK  6 active torsions:
REMARK  status: ('A' for Active; 'I' for Inactive)
REMARK    1  A    between atoms: C2_2  and  N1_3 
REMARK    2  A    between atoms: C2_2  and  C17_22 
REMARK    3  A    between atoms: N1_3  and  C3_4 
REMARK    4  A    between atoms: C10_12  and  C11_13 
REMARK    5  A    between atoms: C12_14  and  C13_15 
REMARK    6  A    between atoms: C14_16  and  N3_17 
ROOT
HETATM    1  C3  UNL     1      22.323   1.849  50.306  1.00  0.00     0.062 A 
HETATM    2  C4  UNL     1      21.725   2.746  49.438  1.00  0.00     0.032 A 
HETATM    3  C5  UNL     1      22.342   3.890  48.980  1.00  0.00     0.011 A 
HETATM    4  C6  UNL     1      23.629   4.143  49.419  1.00  0.00    -0.033 A 
HETATM    5  C7  UNL     1      24.346   5.365  48.958  1.00  0.00     0.050 C 
HETATM    6  C8  UNL     1      24.285   3.314  50.269  1.00  0.00     0.064 A 
HETATM    7  C9  UNL     1      23.604   2.191  50.684  1.00  0.00     0.088 A 
HETATM    8  N2  UNL     1      24.118   1.193  51.572  1.00  0.00    -0.338 N 
HETATM    9  C10 UNL     1      25.250   1.267  52.468  1.00  0.00     0.124 C 
HETATM   10  N4  UNL     1      26.245   2.016  52.206  1.00  0.00    -0.253 NA
HETATM   11  C16 UNL     1      26.664   2.922  51.189  1.00  0.00     0.273 C 
HETATM   12  N5  UNL     1      25.604   3.727  50.618  1.00  0.00    -0.370 N 
HETATM   13  H9  UNL     1      23.608   0.280  51.581  1.00  0.00     0.167 HD
HETATM   14  H20 UNL     1      25.801   4.735  50.428  1.00  0.00     0.161 HD
ENDROOT
BRANCH   1  15
HETATM   15  N1  UNL     1      21.623   0.688  50.738  1.00  0.00    -0.354 N 
HETATM   16  H3  UNL     1      22.017   0.058  49.993  1.00  0.00     0.166 HD
BRANCH  15  17
HETATM   17  C2  UNL     1      20.713   0.314  51.744  1.00  0.00     0.033 C 
HETATM   18  C1  UNL     1      19.400   0.361  51.595  1.00  0.00     0.044 C 
BRANCH  17  19
HETATM   19  C17 UNL     1      21.178  -0.159  53.045  1.00  0.00    -0.010 A 
HETATM   20  C18 UNL     1      21.097   0.241  54.305  1.00  0.00     0.013 A 
HETATM   21  C19 UNL     1      21.860  -0.881  54.824  1.00  0.00     0.002 A 
HETATM   22  C20 UNL     1      21.948  -1.289  53.583  1.00  0.00     0.013 A 
ENDBRANCH  17  19
ENDBRANCH  15  17
ENDBRANCH   1  15
BRANCH   9  23
HETATM   23  C11 UNL     1      25.192   0.445  53.672  1.00  0.00     0.050 C 
HETATM   24  C12 UNL     1      25.783  -0.722  53.878  1.00  0.00     0.005 C 
BRANCH  24  25
HETATM   25  C13 UNL     1      26.622  -1.426  52.921  1.00  0.00     0.017 C 
HETATM   26  C14 UNL     1      27.921  -1.442  53.020  1.00  0.00     0.082 C 
BRANCH  26  27
HETATM   27  N3  UNL     1      28.676  -0.791  54.051  1.00  0.00    -0.403 N 
HETATM   28  C15 UNL     1      29.315   0.465  53.763  1.00  0.00     0.145 C 
HETATM   29  H14 UNL     1      28.773  -1.210  55.003  1.00  0.00     0.158 HD
ENDBRANCH  26  27
ENDBRANCH  24  25
ENDBRANCH   9  23
TORSDOF 6
ENDMDL
MODEL 2
REMARK VINA RESULT:      -7.7      2.017      6.285
REMARK  6 active torsions:
REMARK  status: ('A' for Active; 'I' for Inactive)
REMARK    1  A    between atoms: C2_2  and  N1_3 
REMARK    2  A    between atoms: C2_2  and  C17_22 
REMARK    3  A    between atoms: N1_3  and  C3_4 
REMARK    4  A    between atoms: C10_12  and  C11_13 
REMARK    5  A    between atoms: C12_14  and  C13_15 
REMARK    6  A    between atoms: C14_16  and  N3_17 
ROOT
HETATM    1  C3  UNL     1      24.961   0.897  52.806  1.00  0.00     0.062 A 
HETATM    2  C4  UNL     1      24.713  -0.213  53.596  1.00  0.00     0.032 A 
HETATM    3  C5  UNL     1      23.452  -0.592  54.004  1.00  0.00     0.011 A 
HETATM    4  C6  UNL     1      22.386   0.186  53.593  1.00  0.00    -0.033 A 
HETATM    5  C7  UNL     1      20.999  -0.175  54.003  1.00  0.00     0.050 C 
HETATM    6  C8  UNL     1      22.544   1.289  52.818  1.00  0.00     0.064 A 
HETATM    7  C9  UNL     1      23.834   1.605  52.451  1.00  0.00     0.088 A 
HETATM    8  N2  UNL     1      24.212   2.720  51.637  1.00  0.00    -0.338 N 
HETATM    9  C10 UNL     1      23.452   3.905  51.305  1.00  0.00     0.124 C 
HETATM   10  N4  UNL     1      22.181   3.872  51.247  1.00  0.00    -0.253 NA
HETATM   11  C16 UNL     1      21.125   2.933  51.425  1.00  0.00     0.273 C 
HETATM   12  N5  UNL     1      21.338   1.973  52.489  1.00  0.00    -0.370 N 
HETATM   13  H9  UNL     1      25.170   2.681  51.222  1.00  0.00     0.167 HD
HETATM   14  H20 UNL     1      20.529   1.734  53.104  1.00  0.00     0.161 HD
ENDROOT
BRANCH   1  15
HETATM   15  N1  UNL     1      26.292   1.228  52.427  1.00  0.00    -0.354 N 
HETATM   16  H3  UNL     1      26.051   1.445  51.425  1.00  0.00     0.166 HD
BRANCH  15  17
HETATM   17  C2  UNL     1      27.571   1.303  53.007  1.00  0.00     0.033 C 
HETATM   18  C1  UNL     1      28.126   2.434  53.409  1.00  0.00     0.044 C 
BRANCH  17  19
HETATM   19  C17 UNL     1      28.382   0.104  53.203  1.00  0.00    -0.010 A 
HETATM   20  C18 UNL     1      28.206  -1.206  53.123  1.00  0.00     0.013 A 
HETATM   21  C19 UNL     1      29.575  -1.522  53.493  1.00  0.00     0.002 A 
HETATM   22  C20 UNL     1      29.764  -0.229  53.576  1.00  0.00     0.013 A 
ENDBRANCH  17  19
ENDBRANCH  15  17
ENDBRANCH   1  15
BRANCH   9  23
HETATM   23  C11 UNL     1      24.212   5.121  51.040  1.00  0.00     0.050 C 
HETATM   24  C12 UNL     1      25.287   5.248  50.278  1.00  0.00     0.005 C 
BRANCH  24  25
HETATM   25  C13 UNL     1      25.934   4.172  49.543  1.00  0.00     0.017 C 
HETATM   26  C14 UNL     1      27.104   4.318  48.989  1.00  0.00     0.082 C 
BRANCH  26  27
HETATM   27  N3  UNL     1      27.890   5.518  49.028  1.00  0.00    -0.403 N 
HETATM   28  C15 UNL     1      29.093   5.592  48.243  1.00  0.00     0.145 C 
HETATM   29  H14 UNL     1      27.608   6.334  49.614  1.00  0.00     0.158 HD
ENDBRANCH  26  27
ENDBRANCH  24  25
ENDBRANCH   9  23
TORSDOF 6
ENDMDL
MODEL 3
REMARK VINA RESULT:      -7.7      1.749      6.989
REMARK  6 active torsions:
REMARK  status: ('A' for Active; 'I' for Inactive)
REMARK    1  A    between atoms: C2_2  and  N1_3 
REMARK    2  A    between atoms: C2_2  and  C17_22 
REMARK    3  A    between atoms: N1_3  and  C3_4 
REMARK    4  A    between atoms: C10_12  and  C11_13 
REMARK    5  A    between atoms: C12_14  and  C13_15 
REMARK    6  A    between atoms: C14_16  and  N3_17 
ROOT
HETATM    1  C3  UNL     1      25.408   0.453  53.356  1.00  0.00     0.062 A 
HETATM    2  C4  UNL     1      25.383  -0.336  54.493  1.00  0.00     0.032 A 
HETATM    3  C5  UNL     1      24.256  -0.989  54.944  1.00  0.00     0.011 A 
HETATM    4  C6  UNL     1      23.094  -0.839  54.210  1.00  0.00    -0.033 A 
HETATM    5  C7  UNL     1      21.843  -1.520  54.650  1.00  0.00     0.050 C 
HETATM    6  C8  UNL     1      23.033  -0.083  53.085  1.00  0.00     0.064 A 
HETATM    7  C9  UNL     1      24.200   0.538  52.697  1.00  0.00     0.088 A 
HETATM    8  N2  UNL     1      24.349   1.372  51.543  1.00  0.00    -0.338 N 
HETATM    9  C10 UNL     1      23.327   2.013  50.745  1.00  0.00     0.124 C 
HETATM   10  N4  UNL     1      22.167   1.502  50.633  1.00  0.00    -0.253 NA
HETATM   11  C16 UNL     1      21.450   0.361  51.096  1.00  0.00     0.273 C 
HETATM   12  N5  UNL     1      21.756  -0.039  52.455  1.00  0.00    -0.370 N 
HETATM   13  H9  UNL     1      25.329   1.548  51.227  1.00  0.00     0.167 HD
HETATM   14  H20 UNL     1      20.965  -0.335  53.069  1.00  0.00     0.161 HD
ENDROOT
BRANCH   1  15
HETATM   15  N1  UNL     1      26.610   1.099  52.952  1.00  0.00    -0.354 N 
HETATM   16  H3  UNL     1      26.166   1.638  52.164  1.00  0.00     0.166 HD
BRANCH  15  17
HETATM   17  C2  UNL     1      27.966   1.141  53.325  1.00  0.00     0.033 C 
HETATM   18  C1  UNL     1      28.605   2.257  53.632  1.00  0.00     0.044 C 
BRANCH  17  19
HETATM   19  C17 UNL     1      28.768  -0.078  53.393  1.00  0.00    -0.010 A 
HETATM   20  C18 UNL     1      30.014  -0.399  53.704  1.00  0.00     0.013 A 
HETATM   21  C19 UNL     1      29.823  -1.819  53.466  1.00  0.00     0.002 A 
HETATM   22  C20 UNL     1      28.588  -1.517  53.155  1.00  0.00     0.013 A 
ENDBRANCH  17  19
ENDBRANCH  15  17
ENDBRANCH   1  15
BRANCH   9  23
HETATM   23  C11 UNL     1      23.696   3.258  50.080  1.00  0.00     0.050 C 
HETATM   24  C12 UNL     1      23.584   4.488  50.557  1.00  0.00     0.005 C 
BRANCH  24  25
HETATM   25  C13 UNL     1      23.059   4.843  51.867  1.00  0.00     0.017 C 
HETATM   26  C14 UNL     1      21.781   4.875  52.115  1.00  0.00     0.082 C 
BRANCH  26  27
HETATM   27  N3  UNL     1      20.750   4.575  51.164  1.00  0.00    -0.403 N 
HETATM   28  C15 UNL     1      19.622   3.787  51.582  1.00  0.00     0.145 C 
HETATM   29  H14 UNL     1      20.803   4.914  50.178  1.00  0.00     0.158 HD
ENDBRANCH  26  27
ENDBRANCH  24  25
ENDBRANCH   9  23
TORSDOF 6
ENDMDL
MODEL 4
REMARK VINA RESULT:      -7.6      1.854      6.238
REMARK  6 active torsions:
REMARK  status: ('A' for Active; 'I' for Inactive)
REMARK    1  A    between atoms: C2_2  and  N1_3 
REMARK    2  A    between atoms: C2_2  and  C17_22 
REMARK    3  A    between atoms: N1_3  and  C3_4 
REMARK    4  A    between atoms: C10_12  and  C11_13 
REMARK    5  A    between atoms: C12_14  and  C13_15 
REMARK    6  A    between atoms: C14_16  and  N3_17 
ROOT
HETATM    1  C3  UNL     1      23.836   0.603  53.382  1.00  0.00     0.062 A 
HETATM    2  C4  UNL     1      23.490  -0.641  53.882  1.00  0.00     0.032 A 
HETATM    3  C5  UNL     1      22.191  -1.095  53.963  1.00  0.00     0.011 A 
HETATM    4  C6  UNL     1      21.190  -0.253  53.516  1.00  0.00    -0.033 A 
HETATM    5  C7  UNL     1      19.767  -0.691  53.579  1.00  0.00     0.050 C 
HETATM    6  C8  UNL     1      21.445   0.981  53.012  1.00  0.00     0.064 A 
HETATM    7  C9  UNL     1      22.767   1.365  52.964  1.00  0.00     0.088 A 
HETATM    8  N2  UNL     1      23.246   2.619  52.466  1.00  0.00    -0.338 N 
HETATM    9  C10 UNL     1      22.515   3.844  52.231  1.00  0.00     0.124 C 
HETATM   10  N4  UNL     1      21.279   3.822  51.928  1.00  0.00    -0.253 NA
HETATM   11  C16 UNL     1      20.245   2.864  51.719  1.00  0.00     0.273 C 
HETATM   12  N5  UNL     1      20.295   1.714  52.599  1.00  0.00    -0.370 N 
HETATM   13  H9  UNL     1      24.265   2.664  52.240  1.00  0.00     0.167 HD
HETATM   14  H20 UNL     1      19.396   1.357  52.992  1.00  0.00     0.161 HD
ENDROOT
BRANCH   1  15
HETATM   15  N1  UNL     1      25.200   1.005  53.332  1.00  0.00    -0.354 N 
HETATM   16  H3  UNL     1      25.014   2.000  53.622  1.00  0.00     0.166 HD
BRANCH  15  17
HETATM   17  C2  UNL     1      26.458   0.449  53.036  1.00  0.00     0.033 C 
HETATM   18  C1  UNL     1      26.628  -0.586  52.231  1.00  0.00     0.044 C 
BRANCH  17  19
HETATM   19  C17 UNL     1      27.681   0.996  53.618  1.00  0.00    -0.010 A 
HETATM   20  C18 UNL     1      28.653   0.565  54.407  1.00  0.00     0.013 A 
HETATM   21  C19 UNL     1      29.372   1.828  54.392  1.00  0.00     0.002 A 
HETATM   22  C20 UNL     1      28.418   2.267  53.611  1.00  0.00     0.013 A 
ENDBRANCH  17  19
ENDBRANCH  15  17
ENDBRANCH   1  15
BRANCH   9  23
HETATM   23  C11 UNL     1      23.263   5.091  52.354  1.00  0.00     0.050 C 
HETATM   24  C12 UNL     1      23.882   5.756  51.391  1.00  0.00     0.005 C 
BRANCH  24  25
HETATM   25  C13 UNL     1      23.938   5.361  49.992  1.00  0.00     0.017 C 
HETATM   26  C14 UNL     1      24.997   4.813  49.468  1.00  0.00     0.082 C 
BRANCH  26  27
HETATM   27  N3  UNL     1      26.212   4.531  50.176  1.00  0.00    -0.403 N 
HETATM   28  C15 UNL     1      26.520   3.169  50.522  1.00  0.00     0.145 C 
HETATM   29  H14 UNL     1      26.875   5.291  50.445  1.00  0.00     0.158 HD
ENDBRANCH  26  27
ENDBRANCH  24  25
ENDBRANCH   9  23
TORSDOF 6
ENDMDL
MODEL 5
REMARK VINA RESULT:      -7.4      1.498      5.240
REMARK  6 active torsions:
REMARK  status: ('A' for Active; 'I' for Inactive)
REMARK    1  A    between atoms: C2_2  and  N1_3 
REMARK    2  A    between atoms: C2_2  and  C17_22 
REMARK    3  A    between atoms: N1_3  and  C3_4 
REMARK    4  A    between atoms: C10_12  and  C11_13 
REMARK    5  A    between atoms: C12_14  and  C13_15 
REMARK    6  A    between atoms: C14_16  and  N3_17 
ROOT
HETATM    1  C3  UNL     1      25.627   1.500  51.640  1.00  0.00     0.062 A 
HETATM    2  C4  UNL     1      26.740   2.175  51.172  1.00  0.00     0.032 A 
HETATM    3  C5  UNL     1      26.671   3.315  50.399  1.00  0.00     0.011 A 
HETATM    4  C6  UNL     1      25.415   3.799  50.084  1.00  0.00    -0.033 A 
HETATM    5  C7  UNL     1      25.279   5.028  49.251  1.00  0.00     0.050 C 
HETATM    6  C8  UNL     1      24.274   3.196  50.503  1.00  0.00     0.064 A 
HETATM    7  C9  UNL     1      24.424   2.061  51.271  1.00  0.00     0.088 A 
HETATM    8  N2  UNL     1      23.351   1.284  51.813  1.00  0.00    -0.338 N 
HETATM    9  C10 UNL     1      21.953   1.276  51.443  1.00  0.00     0.124 C 
HETATM   10  N4  UNL     1      21.396   2.317  50.968  1.00  0.00    -0.253 NA
HETATM   11  C16 UNL     1      21.740   3.660  50.639  1.00  0.00     0.273 C 
HETATM   12  N5  UNL     1      23.068   3.829  50.086  1.00  0.00    -0.370 N 
HETATM   13  H9  UNL     1      23.606   0.626  52.584  1.00  0.00     0.167 HD
HETATM   14  H20 UNL     1      23.185   4.487  49.283  1.00  0.00     0.161 HD
ENDROOT
BRANCH   1  15
HETATM   15  N1  UNL     1      25.775   0.327  52.431  1.00  0.00    -0.354 N 
HETATM   16  H3  UNL     1      24.862   0.443  52.943  1.00  0.00     0.166 HD
BRANCH  15  17
HETATM   17  C2  UNL     1      26.701  -0.717  52.614  1.00  0.00     0.033 C 
HETATM   18  C1  UNL     1      26.446  -1.980  52.314  1.00  0.00     0.044 C 
BRANCH  17  19
HETATM   19  C17 UNL     1      28.030  -0.460  53.161  1.00  0.00    -0.010 A 
HETATM   20  C18 UNL     1      28.640   0.531  53.793  1.00  0.00     0.013 A 
HETATM   21  C19 UNL     1      29.907  -0.174  53.901  1.00  0.00     0.002 A 
HETATM   22  C20 UNL     1      29.316  -1.162  53.278  1.00  0.00     0.013 A 
ENDBRANCH  17  19
ENDBRANCH  15  17
ENDBRANCH   1  15
BRANCH   9  23
HETATM   23  C11 UNL     1      21.226   0.027  51.643  1.00  0.00     0.050 C 
HETATM   24  C12 UNL     1      20.704  -0.427  52.772  1.00  0.00     0.005 C 
BRANCH  24  25
HETATM   25  C13 UNL     1      20.756   0.248  54.060  1.00  0.00     0.017 C 
HETATM   26  C14 UNL     1      21.494  -0.188  55.040  1.00  0.00     0.082 C 
BRANCH  26  27
HETATM   27  N3  UNL     1      22.329  -1.353  54.986  1.00  0.00    -0.403 N 
HETATM   28  C15 UNL     1      23.736  -1.218  55.255  1.00  0.00     0.145 C 
HETATM   29  H14 UNL     1      21.939  -2.294  54.756  1.00  0.00     0.158 HD
ENDBRANCH  26  27
ENDBRANCH  24  25
ENDBRANCH   9  23
TORSDOF 6
ENDMDL
MODEL 6
REMARK VINA RESULT:      -7.2      2.066      7.219
REMARK  6 active torsions:
REMARK  status: ('A' for Active; 'I' for Inactive)
REMARK    1  A    between atoms: C2_2  and  N1_3 
REMARK    2  A    between atoms: C2_2  and  C17_22 
REMARK    3  A    between atoms: N1_3  and  C3_4 
REMARK    4  A    between atoms: C10_12  and  C11_13 
REMARK    5  A    between atoms: C12_14  and  C13_15 
REMARK    6  A    between atoms: C14_16  and  N3_17 
ROOT
HETATM    1  C3  UNL     1      25.490   2.722  51.568  1.00  0.00     0.062 A 
HETATM    2  C4  UNL     1      26.773   2.226  51.722  1.00  0.00     0.032 A 
HETATM    3  C5  UNL     1      27.054   0.997  52.279  1.00  0.00     0.011 A 
HETATM    4  C6  UNL     1      25.986   0.228  52.703  1.00  0.00    -0.033 A 
HETATM    5  C7  UNL     1      26.229  -1.110  53.314  1.00  0.00     0.050 C 
HETATM    6  C8  UNL     1      24.699   0.640  52.588  1.00  0.00     0.064 A 
HETATM    7  C9  UNL     1      24.498   1.880  52.021  1.00  0.00     0.088 A 
HETATM    8  N2  UNL     1      23.222   2.493  51.808  1.00  0.00    -0.338 N 
HETATM    9  C10 UNL     1      21.942   2.163  52.395  1.00  0.00     0.124 C 
HETATM   10  N4  UNL     1      21.677   0.973  52.760  1.00  0.00    -0.253 NA
HETATM   11  C16 UNL     1      22.306  -0.305  52.784  1.00  0.00     0.273 C 
HETATM   12  N5  UNL     1      23.725  -0.278  53.076  1.00  0.00    -0.370 N 
HETATM   13  H9  UNL     1      23.205   3.293  51.135  1.00  0.00     0.167 HD
HETATM   14  H20 UNL     1      24.108  -1.008  53.718  1.00  0.00     0.161 HD
ENDROOT
BRANCH   1  15
HETATM   15  N1  UNL     1      25.277   4.002  50.986  1.00  0.00    -0.354 N 
HETATM   16  H3  UNL     1      25.170   4.506  51.904  1.00  0.00     0.166 HD
BRANCH  15  17
HETATM   17  C2  UNL     1      25.199   4.584  49.707  1.00  0.00     0.033 C 
HETATM   18  C1  UNL     1      24.098   4.593  48.974  1.00  0.00     0.044 C 
BRANCH  17  19
HETATM   19  C17 UNL     1      26.360   5.227  49.098  1.00  0.00    -0.010 A 
HETATM   20  C18 UNL     1      26.697   6.448  48.711  1.00  0.00     0.013 A 
HETATM   21  C19 UNL     1      28.018   6.054  48.249  1.00  0.00     0.002 A 
HETATM   22  C20 UNL     1      27.698   4.842  48.627  1.00  0.00     0.013 A 
ENDBRANCH  17  19
ENDBRANCH  15  17
ENDBRANCH   1  15
BRANCH   9  23
HETATM   23  C11 UNL     1      20.984   3.253  52.541  1.00  0.00     0.050 C 
HETATM   24  C12 UNL     1      20.039   3.614  51.686  1.00  0.00     0.005 C 
BRANCH  24  25
HETATM   25  C13 UNL     1      19.769   2.977  50.406  1.00  0.00     0.017 C 
HETATM   26  C14 UNL     1      18.945   1.975  50.291  1.00  0.00     0.082 C 
BRANCH  26  27
HETATM   27  N3  UNL     1      18.214   1.383  51.374  1.00  0.00    -0.403 N 
HETATM   28  C15 UNL     1      18.374  -0.022  51.639  1.00  0.00     0.145 C 
HETATM   29  H14 UNL     1      17.570   1.948  51.969  1.00  0.00     0.158 HD
ENDBRANCH  26  27
ENDBRANCH  24  25
ENDBRANCH   9  23
TORSDOF 6
ENDMDL
MODEL 7
REMARK VINA RESULT:      -7.0      1.684      4.896
REMARK  6 active torsions:
REMARK  status: ('A' for Active; 'I' for Inactive)
REMARK    1  A    between atoms: C2_2  and  N1_3 
REMARK    2  A    between atoms: C2_2  and  C17_22 
REMARK    3  A    between atoms: N1_3  and  C3_4 
REMARK    4  A    between atoms: C10_12  and  C11_13 
REMARK    5  A    between atoms: C12_14  and  C13_15 
REMARK    6  A    between atoms: C14_16  and  N3_17 
ROOT
HETATM    1  C3  UNL     1      22.080   2.928  51.371  1.00  0.00     0.062 A 
HETATM    2  C4  UNL     1      20.716   3.050  51.166  1.00  0.00     0.032 A 
HETATM    3  C5  UNL     1      19.797   2.108  51.574  1.00  0.00     0.011 A 
HETATM    4  C6  UNL     1      20.276   0.985  52.222  1.00  0.00    -0.033 A 
HETATM    5  C7  UNL     1      19.328  -0.068  52.685  1.00  0.00     0.050 C 
HETATM    6  C8  UNL     1      21.597   0.789  52.461  1.00  0.00     0.064 A 
HETATM    7  C9  UNL     1      22.455   1.774  52.024  1.00  0.00     0.088 A 
HETATM    8  N2  UNL     1      23.878   1.761  52.182  1.00  0.00    -0.338 N 
HETATM    9  C10 UNL     1      24.749   0.651  52.497  1.00  0.00     0.124 C 
HETATM   10  N4  UNL     1      24.333  -0.332  53.191  1.00  0.00    -0.253 NA
HETATM   11  C16 UNL     1      23.138  -0.752  53.843  1.00  0.00     0.273 C 
HETATM   12  N5  UNL     1      21.914  -0.423  53.140  1.00  0.00    -0.370 N 
HETATM   13  H9  UNL     1      24.362   2.678  52.052  1.00  0.00     0.167 HD
HETATM   14  H20 UNL     1      21.157  -1.141  53.111  1.00  0.00     0.161 HD
ENDROOT
BRANCH   1  15
HETATM   15  N1  UNL     1      22.970   3.942  50.920  1.00  0.00    -0.354 N 
HETATM   16  H3  UNL     1      23.119   4.366  51.872  1.00  0.00     0.166 HD
BRANCH  15  17
HETATM   17  C2  UNL     1      23.553   4.381  49.716  1.00  0.00     0.033 C 
HETATM   18  C1  UNL     1      22.859   4.894  48.714  1.00  0.00     0.044 C 
BRANCH  17  19
HETATM   19  C17 UNL     1      24.994   4.291  49.499  1.00  0.00    -0.010 A 
HETATM   20  C18 UNL     1      25.927   3.356  49.578  1.00  0.00     0.013 A 
HETATM   21  C19 UNL     1      27.005   4.243  49.175  1.00  0.00     0.002 A 
HETATM   22  C20 UNL     1      26.093   5.179  49.093  1.00  0.00     0.013 A 
ENDBRANCH  17  19
ENDBRANCH  15  17
ENDBRANCH   1  15
BRANCH   9  23
HETATM   23  C11 UNL     1      26.113   0.719  51.986  1.00  0.00     0.050 C 
HETATM   24  C12 UNL     1      27.237   0.708  52.687  1.00  0.00     0.005 C 
BRANCH  24  25
HETATM   25  C13 UNL     1      27.328   0.625  54.137  1.00  0.00     0.017 C 
HETATM   26  C14 UNL     1      28.441   0.331  54.745  1.00  0.00     0.082 C 
BRANCH  26  27
HETATM   27  N3  UNL     1      29.689   0.059  54.091  1.00  0.00    -0.403 N 
HETATM   28  C15 UNL     1      29.977  -1.285  53.666  1.00  0.00     0.145 C 
HETATM   29  H14 UNL     1      30.390   0.813  53.920  1.00  0.00     0.158 HD
ENDBRANCH  26  27
ENDBRANCH  24  25
ENDBRANCH   9  23
TORSDOF 6
ENDMDL
MODEL 8
REMARK VINA RESULT:      -7.0      1.703      6.193
REMARK  6 active torsions:
REMARK  status: ('A' for Active; 'I' for Inactive)
REMARK    1  A    between atoms: C2_2  and  N1_3 
REMARK    2  A    between atoms: C2_2  and  C17_22 
REMARK    3  A    between atoms: N1_3  and  C3_4 
REMARK    4  A    between atoms: C10_12  and  C11_13 
REMARK    5  A    between atoms: C12_14  and  C13_15 
REMARK    6  A    between atoms: C14_16  and  N3_17 
ROOT
HETATM    1  C3  UNL     1      23.311   0.727  52.864  1.00  0.00     0.062 A 
HETATM    2  C4  UNL     1      22.568   0.080  53.836  1.00  0.00     0.032 A 
HETATM    3  C5  UNL     1      21.232  -0.230  53.694  1.00  0.00     0.011 A 
HETATM    4  C6  UNL     1      20.614   0.130  52.511  1.00  0.00    -0.033 A 
HETATM    5  C7  UNL     1      19.171  -0.178  52.301  1.00  0.00     0.050 C 
HETATM    6  C8  UNL     1      21.271   0.767  51.509  1.00  0.00     0.064 A 
HETATM    7  C9  UNL     1      22.604   1.043  51.724  1.00  0.00     0.088 A 
HETATM    8  N2  UNL     1      23.472   1.701  50.796  1.00  0.00    -0.338 N 
HETATM    9  C10 UNL     1      23.133   2.494  49.635  1.00  0.00     0.124 C 
HETATM   10  N4  UNL     1      22.061   2.275  48.984  1.00  0.00    -0.253 NA
HETATM   11  C16 UNL     1      20.942   1.395  49.028  1.00  0.00     0.273 C 
HETATM   12  N5  UNL     1      20.481   1.063  50.361  1.00  0.00    -0.370 N 
HETATM   13  H9  UNL     1      24.497   1.599  50.975  1.00  0.00     0.167 HD
HETATM   14  H20 UNL     1      19.451   1.031  50.530  1.00  0.00     0.161 HD
ENDROOT
BRANCH   1  15
HETATM   15  N1  UNL     1      24.687   1.016  53.082  1.00  0.00    -0.354 N 
HETATM   16  H3  UNL     1      24.540   2.045  53.252  1.00  0.00     0.166 HD
BRANCH  15  17
HETATM   17  C2  UNL     1      25.920   0.339  53.108  1.00  0.00     0.033 C 
HETATM   18  C1  UNL     1      26.048  -0.955  52.868  1.00  0.00     0.044 C 
BRANCH  17  19
HETATM   19  C17 UNL     1      27.163   1.046  53.410  1.00  0.00    -0.010 A 
HETATM   20  C18 UNL     1      27.575   2.303  53.448  1.00  0.00     0.013 A 
HETATM   21  C19 UNL     1      28.930   1.961  53.845  1.00  0.00     0.002 A 
HETATM   22  C20 UNL     1      28.536   0.713  53.811  1.00  0.00     0.013 A 
ENDBRANCH  17  19
ENDBRANCH  15  17
ENDBRANCH   1  15
BRANCH   9  23
HETATM   23  C11 UNL     1      24.074   3.541  49.255  1.00  0.00     0.050 C 
HETATM   24  C12 UNL     1      23.918   4.849  49.387  1.00  0.00     0.005 C 
BRANCH  24  25
HETATM   25  C13 UNL     1      22.751   5.509  49.951  1.00  0.00     0.017 C 
HETATM   26  C14 UNL     1      22.694   5.869  51.201  1.00  0.00     0.082 C 
BRANCH  26  27
HETATM   27  N3  UNL     1      23.740   5.670  52.163  1.00  0.00    -0.403 N 
HETATM   28  C15 UNL     1      23.672   4.537  53.046  1.00  0.00     0.145 C 
HETATM   29  H14 UNL     1      24.546   6.330  52.235  1.00  0.00     0.158 HD
ENDBRANCH  26  27
ENDBRANCH  24  25
ENDBRANCH   9  23
TORSDOF 6
ENDMDL
MODEL 9
REMARK VINA RESULT:      -7.0      3.229      7.157
REMARK  6 active torsions:
REMARK  status: ('A' for Active; 'I' for Inactive)
REMARK    1  A    between atoms: C2_2  and  N1_3 
REMARK    2  A    between atoms: C2_2  and  C17_22 
REMARK    3  A    between atoms: N1_3  and  C3_4 
REMARK    4  A    between atoms: C10_12  and  C11_13 
REMARK    5  A    between atoms: C12_14  and  C13_15 
REMARK    6  A    between atoms: C14_16  and  N3_17 
ROOT
HETATM    1  C3  UNL     1      25.628   7.127  49.784  1.00  0.00     0.062 A 
HETATM    2  C4  UNL     1      24.945   8.281  49.442  1.00  0.00     0.032 A 
HETATM    3  C5  UNL     1      23.602   8.471  49.683  1.00  0.00     0.011 A 
HETATM    4  C6  UNL     1      22.911   7.446  50.302  1.00  0.00    -0.033 A 
HETATM    5  C7  UNL     1      21.456   7.595  50.588  1.00  0.00     0.050 C 
HETATM    6  C8  UNL     1      23.506   6.283  50.669  1.00  0.00     0.064 A 
HETATM    7  C9  UNL     1      24.851   6.167  50.395  1.00  0.00     0.088 A 
HETATM    8  N2  UNL     1      25.662   5.028  50.704  1.00  0.00    -0.338 N 
HETATM    9  C10 UNL     1      25.252   3.681  51.035  1.00  0.00     0.124 C 
HETATM   10  N4  UNL     1      24.140   3.458  51.612  1.00  0.00    -0.253 NA
HETATM   11  C16 UNL     1      23.021   4.192  52.101  1.00  0.00     0.273 C 
HETATM   12  N5  UNL     1      22.645   5.336  51.294  1.00  0.00    -0.370 N 
HETATM   13  H9  UNL     1      26.695   5.183  50.690  1.00  0.00     0.167 HD
HETATM   14  H20 UNL     1      21.628   5.511  51.135  1.00  0.00     0.161 HD
ENDROOT
BRANCH   1  15
HETATM   15  N1  UNL     1      27.017   7.000  49.502  1.00  0.00    -0.354 N 
HETATM   16  H3  UNL     1      27.335   7.292  50.462  1.00  0.00     0.166 HD
BRANCH  15  17
HETATM   17  C2  UNL     1      27.850   6.641  48.426  1.00  0.00     0.033 C 
HETATM   18  C1  UNL     1      28.561   5.526  48.394  1.00  0.00     0.044 C 
BRANCH  17  19
HETATM   19  C17 UNL     1      27.984   7.502  47.254  1.00  0.00    -0.010 A 
HETATM   20  C18 UNL     1      28.933   7.811  46.385  1.00  0.00     0.013 A 
HETATM   21  C19 UNL     1      28.094   8.724  45.628  1.00  0.00     0.002 A 
HETATM   22  C20 UNL     1      27.145   8.427  46.480  1.00  0.00     0.013 A 
ENDBRANCH  17  19
ENDBRANCH  15  17
ENDBRANCH   1  15
BRANCH   9  23
HETATM   23  C11 UNL     1      26.173   2.607  50.680  1.00  0.00     0.050 C 
HETATM   24  C12 UNL     1      26.518   1.566  51.422  1.00  0.00     0.005 C 
BRANCH  24  25
HETATM   25  C13 UNL     1      26.036   1.287  52.765  1.00  0.00     0.017 C 
HETATM   26  C14 UNL     1      26.634   1.748  53.826  1.00  0.00     0.082 C 
BRANCH  26  27
HETATM   27  N3  UNL     1      27.811   2.569  53.816  1.00  0.00    -0.403 N 
HETATM   28  C15 UNL     1      29.082   1.972  54.125  1.00  0.00     0.145 C 
HETATM   29  H14 UNL     1      27.762   3.587  53.591  1.00  0.00     0.158 HD
ENDBRANCH  26  27
ENDBRANCH  24  25
ENDBRANCH   9  23
TORSDOF 6
ENDMDL
