MODEL 1
REMARK VINA RESULT:      -6.4      0.000      0.000
REMARK  8 active torsions:
REMARK  status: ('A' for Active; 'I' for Inactive)
REMARK    1  A    between atoms: C6_7  and  O1_8 
REMARK    2  A    between atoms: O1_8  and  C7_9 
REMARK    3  A    between atoms: C7_9  and  C8_10 
REMARK    4  A    between atoms: C8_10  and  O2_11 
REMARK    5  A    between atoms: O2_11  and  C9_12 
REMARK    6  A    between atoms: C9_12  and  C10_13 
REMARK    7  A    between atoms: C11_14  and  C12_15 
REMARK    8  A    between atoms: C14_18  and  N3_19 
ROOT
HETATM    1  O2  UNL     1      23.967   3.213  51.661  1.00  0.00    -0.385 OA
ENDROOT
BRANCH   1   2
HETATM    2  C8  UNL     1      22.893   2.471  51.249  1.00  0.00     0.194 C 
BRANCH   2   3
HETATM    3  C7  UNL     1      21.682   2.560  52.154  1.00  0.00     0.194 C 
BRANCH   3   4
HETATM    4  O1  UNL     1      21.653   1.507  53.095  1.00  0.00    -0.379 OA
BRANCH   4   5
HETATM    5  C6  UNL     1      21.507   0.340  52.346  1.00  0.00     0.153 C 
HETATM    6  C2  UNL     1      20.061  -0.009  52.396  1.00  0.00    -0.040 C 
HETATM    7  C1  UNL     1      19.012   0.052  51.348  1.00  0.00     0.048 C 
HETATM    8  C3  UNL     1      19.642  -0.449  53.577  1.00  0.00     0.088 C 
HETATM    9  N1  UNL     1      20.574  -0.544  54.645  1.00  0.00    -0.398 N 
HETATM   10  C4  UNL     1      21.982  -0.820  54.444  1.00  0.00     0.122 C 
HETATM   11  H5  UNL     1      20.338  -0.425  55.664  1.00  0.00     0.158 HD
HETATM   12  C5  UNL     1      22.239  -0.843  52.955  1.00  0.00     0.056 C 
ENDBRANCH   4   5
ENDBRANCH   3   4
ENDBRANCH   2   3
ENDBRANCH   1   2
BRANCH   1  13
HETATM   13  C9  UNL     1      24.902   2.530  52.427  1.00  0.00     0.195 C 
BRANCH  13  14
HETATM   14  C10 UNL     1      25.286   1.219  51.913  1.00  0.00     0.001 C 
HETATM   15  C11 UNL     1      26.210   0.300  52.139  1.00  0.00     0.029 C 
BRANCH  15  16
HETATM   16  C12 UNL     1      27.242   0.443  53.155  1.00  0.00     0.052 A 
HETATM   17  N2  UNL     1      27.556  -0.416  54.060  1.00  0.00    -0.284 NA
HETATM   18  C13 UNL     1      28.616   0.066  54.882  1.00  0.00     0.200 A 
HETATM   19  C14 UNL     1      28.910   1.405  54.312  1.00  0.00     0.005 A 
HETATM   20  C15 UNL     1      28.097   1.614  53.299  1.00  0.00     0.051 A 
BRANCH  19  21
HETATM   21  N3  UNL     1      29.863   2.358  54.706  1.00  0.00    -0.305 NA
HETATM   22  H21 UNL     1      29.742   3.141  55.366  1.00  0.00     0.124 HD
HETATM   23  H22 UNL     1      29.703   3.144  55.383  1.00  0.00     0.124 HD
ENDBRANCH  19  21
ENDBRANCH  15  16
ENDBRANCH  13  14
ENDBRANCH   1  13
TORSDOF 8
ENDMDL
MODEL 2
REMARK VINA RESULT:      -6.3      1.581      6.065
REMARK  8 active torsions:
REMARK  status: ('A' for Active; 'I' for Inactive)
REMARK    1  A    between atoms: C6_7  and  O1_8 
REMARK    2  A    between atoms: O1_8  and  C7_9 
REMARK    3  A    between atoms: C7_9  and  C8_10 
REMARK    4  A    between atoms: C8_10  and  O2_11 
REMARK    5  A    between atoms: O2_11  and  C9_12 
REMARK    6  A    between atoms: C9_12  and  C10_13 
REMARK    7  A    between atoms: C11_14  and  C12_15 
REMARK    8  A    between atoms: C14_18  and  N3_19 
ROOT
HETATM    1  O2  UNL     1      24.111   3.496  51.633  1.00  0.00    -0.385 OA
ENDROOT
BRANCH   1   2
HETATM    2  C8  UNL     1      24.996   2.585  52.144  1.00  0.00     0.194 C 
BRANCH   2   3
HETATM    3  C7  UNL     1      25.038   2.528  53.658  1.00  0.00     0.194 C 
BRANCH   3   4
HETATM    4  O1  UNL     1      26.322   2.183  54.133  1.00  0.00    -0.379 OA
BRANCH   4   5
HETATM    5  C6  UNL     1      27.015   1.701  53.023  1.00  0.00     0.153 C 
HETATM    6  C2  UNL     1      27.149   0.232  53.222  1.00  0.00    -0.040 C 
HETATM    7  C1  UNL     1      26.495  -0.904  52.526  1.00  0.00     0.048 C 
HETATM    8  C3  UNL     1      27.997  -0.118  54.182  1.00  0.00     0.088 C 
HETATM    9  N1  UNL     1      28.674   0.901  54.906  1.00  0.00    -0.398 N 
HETATM   10  C4  UNL     1      29.024   2.182  54.328  1.00  0.00     0.122 C 
HETATM   11  H5  UNL     1      28.978   0.825  55.911  1.00  0.00     0.158 HD
HETATM   12  C5  UNL     1      28.433   2.238  52.939  1.00  0.00     0.056 C 
ENDBRANCH   4   5
ENDBRANCH   3   4
ENDBRANCH   2   3
ENDBRANCH   1   2
BRANCH   1  13
HETATM   13  C9  UNL     1      22.782   3.092  51.626  1.00  0.00     0.195 C 
BRANCH  13  14
HETATM   14  C10 UNL     1      22.531   1.799  50.998  1.00  0.00     0.001 C 
HETATM   15  C11 UNL     1      22.202   0.570  51.359  1.00  0.00     0.029 C 
BRANCH  15  16
HETATM   16  C12 UNL     1      21.978   0.182  52.744  1.00  0.00     0.052 A 
HETATM   17  N2  UNL     1      21.038   0.597  53.518  1.00  0.00    -0.284 NA
HETATM   18  C13 UNL     1      21.132   0.000  54.809  1.00  0.00     0.200 A 
HETATM   19  C14 UNL     1      22.323  -0.878  54.695  1.00  0.00     0.005 A 
HETATM   20  C15 UNL     1      22.811  -0.762  53.478  1.00  0.00     0.051 A 
BRANCH  19  21
HETATM   21  N3  UNL     1      22.911  -1.722  55.651  1.00  0.00    -0.305 NA
HETATM   22  H21 UNL     1      23.396  -2.618  55.495  1.00  0.00     0.124 HD
HETATM   23  H22 UNL     1      23.397  -2.630  55.454  1.00  0.00     0.124 HD
ENDBRANCH  19  21
ENDBRANCH  15  16
ENDBRANCH  13  14
ENDBRANCH   1  13
TORSDOF 8
ENDMDL
MODEL 3
REMARK VINA RESULT:      -6.2      2.522      3.857
REMARK  8 active torsions:
REMARK  status: ('A' for Active; 'I' for Inactive)
REMARK    1  A    between atoms: C6_7  and  O1_8 
REMARK    2  A    between atoms: O1_8  and  C7_9 
REMARK    3  A    between atoms: C7_9  and  C8_10 
REMARK    4  A    between atoms: C8_10  and  O2_11 
REMARK    5  A    between atoms: O2_11  and  C9_12 
REMARK    6  A    between atoms: C9_12  and  C10_13 
REMARK    7  A    between atoms: C11_14  and  C12_15 
REMARK    8  A    between atoms: C14_18  and  N3_19 
ROOT
HETATM    1  O2  UNL     1      26.810   3.072  50.384  1.00  0.00    -0.385 OA
ENDROOT
BRANCH   1   2
HETATM    2  C8  UNL     1      25.699   3.869  50.457  1.00  0.00     0.194 C 
BRANCH   2   3
HETATM    3  C7  UNL     1      24.536   3.406  49.603  1.00  0.00     0.194 C 
BRANCH   3   4
HETATM    4  O1  UNL     1      23.297   3.611  50.251  1.00  0.00    -0.379 OA
BRANCH   4   5
HETATM    5  C6  UNL     1      23.584   3.609  51.616  1.00  0.00     0.153 C 
HETATM    6  C2  UNL     1      22.885   2.426  52.186  1.00  0.00    -0.040 C 
HETATM    7  C1  UNL     1      23.419   1.143  52.707  1.00  0.00     0.048 C 
HETATM    8  C3  UNL     1      21.563   2.539  52.237  1.00  0.00     0.088 C 
HETATM    9  N1  UNL     1      20.958   3.734  51.762  1.00  0.00    -0.398 N 
HETATM   10  C4  UNL     1      21.605   5.028  51.823  1.00  0.00     0.122 C 
HETATM   11  H5  UNL     1      20.000   3.792  51.327  1.00  0.00     0.158 HD
HETATM   12  C5  UNL     1      23.010   4.816  52.337  1.00  0.00     0.056 C 
ENDBRANCH   4   5
ENDBRANCH   3   4
ENDBRANCH   2   3
ENDBRANCH   1   2
BRANCH   1  13
HETATM   13  C9  UNL     1      26.782   1.942  51.192  1.00  0.00     0.195 C 
BRANCH  13  14
HETATM   14  C10 UNL     1      26.955   2.196  52.618  1.00  0.00     0.001 C 
HETATM   15  C11 UNL     1      27.551   1.636  53.658  1.00  0.00     0.029 C 
BRANCH  15  16
HETATM   16  C12 UNL     1      28.309   0.397  53.567  1.00  0.00     0.052 A 
HETATM   17  N2  UNL     1      29.568   0.247  53.784  1.00  0.00    -0.284 NA
HETATM   18  C13 UNL     1      29.964  -1.110  53.600  1.00  0.00     0.200 A 
HETATM   19  C14 UNL     1      28.699  -1.789  53.223  1.00  0.00     0.005 A 
HETATM   20  C15 UNL     1      27.735  -0.893  53.207  1.00  0.00     0.051 A 
BRANCH  19  21
HETATM   21  N3  UNL     1      28.462  -3.138  52.917  1.00  0.00    -0.305 NA
HETATM   22  H21 UNL     1      27.952  -3.837  53.478  1.00  0.00     0.124 HD
HETATM   23  H22 UNL     1      27.937  -3.822  53.515  1.00  0.00     0.124 HD
ENDBRANCH  19  21
ENDBRANCH  15  16
ENDBRANCH  13  14
ENDBRANCH   1  13
TORSDOF 8
ENDMDL
MODEL 4
REMARK VINA RESULT:      -6.1      1.897      6.762
REMARK  8 active torsions:
REMARK  status: ('A' for Active; 'I' for Inactive)
REMARK    1  A    between atoms: C6_7  and  O1_8 
REMARK    2  A    between atoms: O1_8  and  C7_9 
REMARK    3  A    between atoms: C7_9  and  C8_10 
REMARK    4  A    between atoms: C8_10  and  O2_11 
REMARK    5  A    between atoms: O2_11  and  C9_12 
REMARK    6  A    between atoms: C9_12  and  C10_13 
REMARK    7  A    between atoms: C11_14  and  C12_15 
REMARK    8  A    between atoms: C14_18  and  N3_19 
ROOT
HETATM    1  O2  UNL     1      24.610   3.107  52.306  1.00  0.00    -0.385 OA
ENDROOT
BRANCH   1   2
HETATM    2  C8  UNL     1      25.398   2.676  51.273  1.00  0.00     0.194 C 
BRANCH   2   3
HETATM    3  C7  UNL     1      26.817   2.322  51.669  1.00  0.00     0.194 C 
BRANCH   3   4
HETATM    4  O1  UNL     1      26.943   0.953  51.993  1.00  0.00    -0.379 OA
BRANCH   4   5
HETATM    5  C6  UNL     1      27.391   0.922  53.314  1.00  0.00     0.153 C 
HETATM    6  C2  UNL     1      28.445  -0.127  53.371  1.00  0.00    -0.040 C 
HETATM    7  C1  UNL     1      29.916  -0.015  53.532  1.00  0.00     0.048 C 
HETATM    8  C3  UNL     1      27.991  -1.370  53.262  1.00  0.00     0.088 C 
HETATM    9  N1  UNL     1      26.594  -1.580  53.105  1.00  0.00    -0.398 N 
HETATM   10  C4  UNL     1      25.593  -0.696  53.667  1.00  0.00     0.122 C 
HETATM   11  H5  UNL     1      26.160  -2.380  52.576  1.00  0.00     0.158 HD
HETATM   12  C5  UNL     1      26.313   0.479  54.288  1.00  0.00     0.056 C 
ENDBRANCH   4   5
ENDBRANCH   3   4
ENDBRANCH   2   3
ENDBRANCH   1   2
BRANCH   1  13
HETATM   13  C9  UNL     1      23.535   2.283  52.615  1.00  0.00     0.195 C 
BRANCH  13  14
HETATM   14  C10 UNL     1      22.829   1.728  51.465  1.00  0.00     0.001 C 
HETATM   15  C11 UNL     1      21.885   0.835  51.220  1.00  0.00     0.029 C 
BRANCH  15  16
HETATM   16  C12 UNL     1      21.227   0.067  52.267  1.00  0.00     0.052 A 
HETATM   17  N2  UNL     1      21.797  -0.636  53.181  1.00  0.00    -0.284 NA
HETATM   18  C13 UNL     1      20.833  -1.250  54.034  1.00  0.00     0.200 A 
HETATM   19  C14 UNL     1      19.537  -0.791  53.474  1.00  0.00     0.005 A 
HETATM   20  C15 UNL     1      19.782  -0.019  52.437  1.00  0.00     0.051 A 
BRANCH  19  21
HETATM   21  N3  UNL     1      18.228  -1.071  53.898  1.00  0.00    -0.305 NA
HETATM   22  H21 UNL     1      17.925  -1.486  54.791  1.00  0.00     0.124 HD
HETATM   23  H22 UNL     1      17.957  -1.496  54.818  1.00  0.00     0.124 HD
ENDBRANCH  19  21
ENDBRANCH  15  16
ENDBRANCH  13  14
ENDBRANCH   1  13
TORSDOF 8
ENDMDL
MODEL 5
REMARK VINA RESULT:      -6.1      2.829      4.745
REMARK  8 active torsions:
REMARK  status: ('A' for Active; 'I' for Inactive)
REMARK    1  A    between atoms: C6_7  and  O1_8 
REMARK    2  A    between atoms: O1_8  and  C7_9 
REMARK    3  A    between atoms: C7_9  and  C8_10 
REMARK    4  A    between atoms: C8_10  and  O2_11 
REMARK    5  A    between atoms: O2_11  and  C9_12 
REMARK    6  A    between atoms: C9_12  and  C10_13 
REMARK    7  A    between atoms: C11_14  and  C12_15 
REMARK    8  A    between atoms: C14_18  and  N3_19 
ROOT
HETATM    1  O2  UNL     1      23.070   0.620  52.540  1.00  0.00    -0.385 OA
ENDROOT
BRANCH   1   2
HETATM    2  C8  UNL     1      23.314   1.654  51.676  1.00  0.00     0.194 C 
BRANCH   2   3
HETATM    3  C7  UNL     1      24.242   2.722  52.218  1.00  0.00     0.194 C 
BRANCH   3   4
HETATM    4  O1  UNL     1      23.712   4.018  52.036  1.00  0.00    -0.379 OA
BRANCH   4   5
HETATM    5  C6  UNL     1      23.633   4.199  50.655  1.00  0.00     0.153 C 
HETATM    6  C2  UNL     1      24.794   5.051  50.280  1.00  0.00    -0.040 C 
HETATM    7  C1  UNL     1      26.036   4.723  49.537  1.00  0.00     0.048 C 
HETATM    8  C3  UNL     1      24.700   6.315  50.675  1.00  0.00     0.088 C 
HETATM    9  N1  UNL     1      23.545   6.726  51.393  1.00  0.00    -0.398 N 
HETATM   10  C4  UNL     1      22.238   6.132  51.198  1.00  0.00     0.122 C 
HETATM   11  H5  UNL     1      23.527   7.485  52.123  1.00  0.00     0.158 HD
HETATM   12  C5  UNL     1      22.397   4.977  50.237  1.00  0.00     0.056 C 
ENDBRANCH   4   5
ENDBRANCH   3   4
ENDBRANCH   2   3
ENDBRANCH   1   2
BRANCH   1  13
HETATM   13  C9  UNL     1      24.104   0.327  53.420  1.00  0.00     0.195 C 
BRANCH  13  14
HETATM   14  C10 UNL     1      24.951  -0.796  53.029  1.00  0.00     0.001 C 
HETATM   15  C11 UNL     1      26.236  -1.102  53.001  1.00  0.00     0.029 C 
BRANCH  15  16
HETATM   16  C12 UNL     1      27.281  -0.190  53.446  1.00  0.00     0.052 A 
HETATM   17  N2  UNL     1      28.117  -0.385  54.403  1.00  0.00    -0.284 NA
HETATM   18  C13 UNL     1      28.997   0.727  54.553  1.00  0.00     0.200 A 
HETATM   19  C14 UNL     1      28.547   1.665  53.494  1.00  0.00     0.005 A 
HETATM   20  C15 UNL     1      27.539   1.115  52.852  1.00  0.00     0.051 A 
BRANCH  19  21
HETATM   21  N3  UNL     1      29.038   2.936  53.155  1.00  0.00    -0.305 NA
HETATM   22  H21 UNL     1      28.708   3.565  52.409  1.00  0.00     0.124 HD
HETATM   23  H22 UNL     1      28.675   3.550  52.385  1.00  0.00     0.124 HD
ENDBRANCH  19  21
ENDBRANCH  15  16
ENDBRANCH  13  14
ENDBRANCH   1  13
TORSDOF 8
ENDMDL
MODEL 6
REMARK VINA RESULT:      -6.1      3.149      5.020
REMARK  8 active torsions:
REMARK  status: ('A' for Active; 'I' for Inactive)
REMARK    1  A    between atoms: C6_7  and  O1_8 
REMARK    2  A    between atoms: O1_8  and  C7_9 
REMARK    3  A    between atoms: C7_9  and  C8_10 
REMARK    4  A    between atoms: C8_10  and  O2_11 
REMARK    5  A    between atoms: O2_11  and  C9_12 
REMARK    6  A    between atoms: C9_12  and  C10_13 
REMARK    7  A    between atoms: C11_14  and  C12_15 
REMARK    8  A    between atoms: C14_18  and  N3_19 
ROOT
HETATM    1  O2  UNL     1      23.503   3.492  52.614  1.00  0.00    -0.385 OA
ENDROOT
BRANCH   1   2
HETATM    2  C8  UNL     1      23.517   4.849  52.796  1.00  0.00     0.194 C 
BRANCH   2   3
HETATM    3  C7  UNL     1      23.407   5.656  51.518  1.00  0.00     0.194 C 
BRANCH   3   4
HETATM    4  O1  UNL     1      24.630   5.688  50.813  1.00  0.00    -0.379 OA
BRANCH   4   5
HETATM    5  C6  UNL     1      24.306   5.397  49.488  1.00  0.00     0.153 C 
HETATM    6  C2  UNL     1      24.441   3.922  49.342  1.00  0.00    -0.040 C 
HETATM    7  C1  UNL     1      23.411   2.867  49.172  1.00  0.00     0.048 C 
HETATM    8  C3  UNL     1      25.692   3.478  49.367  1.00  0.00     0.088 C 
HETATM    9  N1  UNL     1      26.750   4.415  49.525  1.00  0.00    -0.398 N 
HETATM   10  C4  UNL     1      26.678   5.778  49.041  1.00  0.00     0.122 C 
HETATM   11  H5  UNL     1      27.667   4.213  50.000  1.00  0.00     0.158 HD
HETATM   12  C5  UNL     1      25.287   6.002  48.498  1.00  0.00     0.056 C 
ENDBRANCH   4   5
ENDBRANCH   3   4
ENDBRANCH   2   3
ENDBRANCH   1   2
BRANCH   1  13
HETATM   13  C9  UNL     1      24.649   2.827  53.030  1.00  0.00     0.195 C 
BRANCH  13  14
HETATM   14  C10 UNL     1      24.750   1.437  52.599  1.00  0.00     0.001 C 
HETATM   15  C11 UNL     1      25.586   0.420  52.725  1.00  0.00     0.029 C 
BRANCH  15  16
HETATM   16  C12 UNL     1      26.831   0.503  53.474  1.00  0.00     0.052 A 
HETATM   17  N2  UNL     1      27.386  -0.439  54.152  1.00  0.00    -0.284 NA
HETATM   18  C13 UNL     1      28.600   0.006  54.753  1.00  0.00     0.200 A 
HETATM   19  C14 UNL     1      28.701   1.421  54.316  1.00  0.00     0.005 A 
HETATM   20  C15 UNL     1      27.656   1.700  53.566  1.00  0.00     0.051 A 
BRANCH  19  21
HETATM   21  N3  UNL     1      29.690   2.378  54.596  1.00  0.00    -0.305 NA
HETATM   22  H21 UNL     1      29.607   3.405  54.563  1.00  0.00     0.124 HD
HETATM   23  H22 UNL     1      29.568   3.419  54.551  1.00  0.00     0.124 HD
ENDBRANCH  19  21
ENDBRANCH  15  16
ENDBRANCH  13  14
ENDBRANCH   1  13
TORSDOF 8
ENDMDL
MODEL 7
REMARK VINA RESULT:      -6.1      3.112      6.885
REMARK  8 active torsions:
REMARK  status: ('A' for Active; 'I' for Inactive)
REMARK    1  A    between atoms: C6_7  and  O1_8 
REMARK    2  A    between atoms: O1_8  and  C7_9 
REMARK    3  A    between atoms: C7_9  and  C8_10 
REMARK    4  A    between atoms: C8_10  and  O2_11 
REMARK    5  A    between atoms: O2_11  and  C9_12 
REMARK    6  A    between atoms: C9_12  and  C10_13 
REMARK    7  A    between atoms: C11_14  and  C12_15 
REMARK    8  A    between atoms: C14_18  and  N3_19 
ROOT
HETATM    1  O2  UNL     1      24.042  -0.009  52.483  1.00  0.00    -0.385 OA
ENDROOT
BRANCH   1   2
HETATM    2  C8  UNL     1      24.230  -0.109  53.835  1.00  0.00     0.194 C 
BRANCH   2   3
HETATM    3  C7  UNL     1      25.518  -0.795  54.243  1.00  0.00     0.194 C 
BRANCH   3   4
HETATM    4  O1  UNL     1      26.586   0.122  54.354  1.00  0.00    -0.379 OA
BRANCH   4   5
HETATM    5  C6  UNL     1      27.305   0.005  53.164  1.00  0.00     0.153 C 
HETATM    6  C2  UNL     1      28.676  -0.429  53.547  1.00  0.00    -0.040 C 
HETATM    7  C1  UNL     1      29.367  -1.730  53.363  1.00  0.00     0.048 C 
HETATM    8  C3  UNL     1      29.400   0.504  54.153  1.00  0.00     0.088 C 
HETATM    9  N1  UNL     1      28.824   1.785  54.373  1.00  0.00    -0.398 N 
HETATM   10  C4  UNL     1      27.833   2.369  53.493  1.00  0.00     0.122 C 
HETATM   11  H5  UNL     1      29.057   2.419  55.181  1.00  0.00     0.158 HD
HETATM   12  C5  UNL     1      27.477   1.335  52.451  1.00  0.00     0.056 C 
ENDBRANCH   4   5
ENDBRANCH   3   4
ENDBRANCH   2   3
ENDBRANCH   1   2
BRANCH   1  13
HETATM   13  C9  UNL     1      23.694   1.255  52.024  1.00  0.00     0.195 C 
BRANCH  13  14
HETATM   14  C10 UNL     1      22.341   1.685  52.361  1.00  0.00     0.001 C 
HETATM   15  C11 UNL     1      21.611   2.787  52.309  1.00  0.00     0.029 C 
BRANCH  15  16
HETATM   16  C12 UNL     1      22.118   4.052  51.801  1.00  0.00     0.052 A 
HETATM   17  N2  UNL     1      21.671   4.711  50.790  1.00  0.00    -0.284 NA
HETATM   18  C13 UNL     1      22.415   5.910  50.586  1.00  0.00     0.200 A 
HETATM   19  C14 UNL     1      23.424   5.876  51.675  1.00  0.00     0.005 A 
HETATM   20  C15 UNL     1      23.239   4.781  52.380  1.00  0.00     0.051 A 
BRANCH  19  21
HETATM   21  N3  UNL     1      24.439   6.795  51.985  1.00  0.00    -0.305 NA
HETATM   22  H21 UNL     1      25.015   7.348  51.334  1.00  0.00     0.124 HD
HETATM   23  H22 UNL     1      25.007   7.342  51.292  1.00  0.00     0.124 HD
ENDBRANCH  19  21
ENDBRANCH  15  16
ENDBRANCH  13  14
ENDBRANCH   1  13
TORSDOF 8
ENDMDL
MODEL 8
REMARK VINA RESULT:      -6.0      4.678      6.410
REMARK  8 active torsions:
REMARK  status: ('A' for Active; 'I' for Inactive)
REMARK    1  A    between atoms: C6_7  and  O1_8 
REMARK    2  A    between atoms: O1_8  and  C7_9 
REMARK    3  A    between atoms: C7_9  and  C8_10 
REMARK    4  A    between atoms: C8_10  and  O2_11 
REMARK    5  A    between atoms: O2_11  and  C9_12 
REMARK    6  A    between atoms: C9_12  and  C10_13 
REMARK    7  A    between atoms: C11_14  and  C12_15 
REMARK    8  A    between atoms: C14_18  and  N3_19 
ROOT
HETATM    1  O2  UNL     1      26.858   2.833  49.885  1.00  0.00    -0.385 OA
ENDROOT
BRANCH   1   2
HETATM    2  C8  UNL     1      26.406   2.900  51.175  1.00  0.00     0.194 C 
BRANCH   2   3
HETATM    3  C7  UNL     1      25.404   1.825  51.547  1.00  0.00     0.194 C 
BRANCH   3   4
HETATM    4  O1  UNL     1      25.673   1.277  52.820  1.00  0.00    -0.379 OA
BRANCH   4   5
HETATM    5  C6  UNL     1      25.369  -0.080  52.715  1.00  0.00     0.153 C 
HETATM    6  C2  UNL     1      24.759  -0.473  54.014  1.00  0.00    -0.040 C 
HETATM    7  C1  UNL     1      23.360  -0.825  54.361  1.00  0.00     0.048 C 
HETATM    8  C3  UNL     1      25.611  -0.515  55.032  1.00  0.00     0.088 C 
HETATM    9  N1  UNL     1      26.976  -0.194  54.798  1.00  0.00    -0.398 N 
HETATM   10  C4  UNL     1      27.642  -0.441  53.536  1.00  0.00     0.122 C 
HETATM   11  H5  UNL     1      27.621   0.247  55.505  1.00  0.00     0.158 HD
HETATM   12  C5  UNL     1      26.607  -0.948  52.560  1.00  0.00     0.056 C 
ENDBRANCH   4   5
ENDBRANCH   3   4
ENDBRANCH   2   3
ENDBRANCH   1   2
BRANCH   1  13
HETATM   13  C9  UNL     1      26.932   4.049  49.219  1.00  0.00     0.195 C 
BRANCH  13  14
HETATM   14  C10 UNL     1      25.657   4.734  49.036  1.00  0.00     0.001 C 
HETATM   15  C11 UNL     1      25.201   5.973  48.963  1.00  0.00     0.029 C 
BRANCH  15  16
HETATM   16  C12 UNL     1      26.059   7.144  49.073  1.00  0.00     0.052 A 
HETATM   17  N2  UNL     1      26.759   7.677  48.135  1.00  0.00    -0.284 NA
HETATM   18  C13 UNL     1      27.477   8.814  48.610  1.00  0.00     0.200 A 
HETATM   19  C14 UNL     1      27.087   8.892  50.040  1.00  0.00     0.005 A 
HETATM   20  C15 UNL     1      26.255   7.906  50.299  1.00  0.00     0.051 A 
BRANCH  19  21
HETATM   21  N3  UNL     1      27.479   9.811  51.027  1.00  0.00    -0.305 NA
HETATM   22  H21 UNL     1      28.381   9.865  51.522  1.00  0.00     0.124 HD
HETATM   23  H22 UNL     1      28.410   9.835  51.510  1.00  0.00     0.124 HD
ENDBRANCH  19  21
ENDBRANCH  15  16
ENDBRANCH  13  14
ENDBRANCH   1  13
TORSDOF 8
ENDMDL
MODEL 9
REMARK VINA RESULT:      -6.0      1.822      6.752
REMARK  8 active torsions:
REMARK  status: ('A' for Active; 'I' for Inactive)
REMARK    1  A    between atoms: C6_7  and  O1_8 
REMARK    2  A    between atoms: O1_8  and  C7_9 
REMARK    3  A    between atoms: C7_9  and  C8_10 
REMARK    4  A    between atoms: C8_10  and  O2_11 
REMARK    5  A    between atoms: O2_11  and  C9_12 
REMARK    6  A    between atoms: C9_12  and  C10_13 
REMARK    7  A    between atoms: C11_14  and  C12_15 
REMARK    8  A    between atoms: C14_18  and  N3_19 
ROOT
HETATM    1  O2  UNL     1      22.865   3.482  51.893  1.00  0.00    -0.385 OA
ENDROOT
BRANCH   1   2
HETATM    2  C8  UNL     1      23.931   3.406  52.749  1.00  0.00     0.194 C 
BRANCH   2   3
HETATM    3  C7  UNL     1      25.150   2.712  52.175  1.00  0.00     0.194 C 
BRANCH   3   4
HETATM    4  O1  UNL     1      25.670   1.747  53.065  1.00  0.00    -0.379 OA
BRANCH   4   5
HETATM    5  C6  UNL     1      25.300   0.511  52.536  1.00  0.00     0.153 C 
HETATM    6  C2  UNL     1      24.612  -0.223  53.633  1.00  0.00    -0.040 C 
HETATM    7  C1  UNL     1      23.182  -0.574  53.816  1.00  0.00     0.048 C 
HETATM    8  C3  UNL     1      25.414  -0.631  54.609  1.00  0.00     0.088 C 
HETATM    9  N1  UNL     1      26.803  -0.343  54.523  1.00  0.00    -0.398 N 
HETATM   10  C4  UNL     1      27.511  -0.231  53.264  1.00  0.00     0.122 C 
HETATM   11  H5  UNL     1      27.438  -0.184  55.348  1.00  0.00     0.158 HD
HETATM   12  C5  UNL     1      26.495  -0.344  52.152  1.00  0.00     0.056 C 
ENDBRANCH   4   5
ENDBRANCH   3   4
ENDBRANCH   2   3
ENDBRANCH   1   2
BRANCH   1  13
HETATM   13  C9  UNL     1      21.880   2.522  52.086  1.00  0.00     0.195 C 
BRANCH  13  14
HETATM   14  C10 UNL     1      21.882   1.430  51.119  1.00  0.00     0.001 C 
HETATM   15  C11 UNL     1      21.081   0.453  50.728  1.00  0.00     0.029 C 
BRANCH  15  16
HETATM   16  C12 UNL     1      19.764   0.227  51.304  1.00  0.00     0.052 A 
HETATM   17  N2  UNL     1      18.634   0.599  50.814  1.00  0.00    -0.284 NA
HETATM   18  C13 UNL     1      17.552   0.201  51.654  1.00  0.00     0.200 A 
HETATM   19  C14 UNL     1      18.228  -0.499  52.775  1.00  0.00     0.005 A 
HETATM   20  C15 UNL     1      19.526  -0.477  52.558  1.00  0.00     0.051 A 
BRANCH  19  21
HETATM   21  N3  UNL     1      17.677  -1.110  53.912  1.00  0.00    -0.305 NA
HETATM   22  H21 UNL     1      17.540  -0.702  54.849  1.00  0.00     0.124 HD
HETATM   23  H22 UNL     1      17.554  -0.661  54.853  1.00  0.00     0.124 HD
ENDBRANCH  19  21
ENDBRANCH  15  16
ENDBRANCH  13  14
ENDBRANCH   1  13
TORSDOF 8
ENDMDL
