MODEL 1
REMARK VINA RESULT:      -8.9      0.000      0.000
REMARK  5 active torsions:
REMARK  status: ('A' for Active; 'I' for Inactive)
REMARK       I    between atoms: N1_7  and  C7_8 
REMARK       I    between atoms: C7_8  and  N2_10 
REMARK    1  A    between atoms: N2_10  and  C8_11 
REMARK    2  A    between atoms: N2_10  and  C15_19 
REMARK    3  A    between atoms: C8_11  and  C9_12 
REMARK    4  A    between atoms: C15_19  and  C16_20 
REMARK    5  A    between atoms: C22_26  and  O2_27 
ROOT
HETATM    1  C1  UNL     1      24.540   7.264  50.800  1.00  0.00     0.068 C 
HETATM    2  C2  UNL     1      25.537   6.501  50.033  1.00  0.00     0.013 A 
HETATM    3  C3  UNL     1      26.379   7.083  49.234  1.00  0.00     0.002 A 
HETATM    4  C4  UNL     1      27.416   6.429  48.417  1.00  0.00     0.057 A 
HETATM    5  C5  UNL     1      27.445   4.963  48.568  1.00  0.00    -0.005 A 
HETATM    6  C6  UNL     1      26.597   4.359  49.373  1.00  0.00     0.098 A 
HETATM    7  N1  UNL     1      25.641   5.098  50.110  1.00  0.00    -0.280 N 
HETATM    8  C7  UNL     1      24.791   4.358  50.945  1.00  0.00     0.329 C 
HETATM    9  O1  UNL     1      23.930   5.017  51.563  1.00  0.00    -0.246 OA
HETATM   10  N2  UNL     1      24.309   3.180  51.539  1.00  0.00    -0.325 N 
ENDROOT
BRANCH  10  11
HETATM   11  C8  UNL     1      23.183   3.176  52.405  1.00  0.00     0.166 C 
BRANCH  11  12
HETATM   12  C9  UNL     1      22.076   2.277  52.003  1.00  0.00    -0.040 A 
HETATM   13  C10 UNL     1      21.591   1.317  52.886  1.00  0.00     0.012 A 
HETATM   14  C11 UNL     1      20.573   0.442  52.600  1.00  0.00     0.043 A 
HETATM   15  C12 UNL     1      19.961   0.480  51.368  1.00  0.00     0.116 A 
HETATM   16  F1  UNL     1      18.955  -0.365  51.048  1.00  0.00    -0.206 F 
HETATM   17  C13 UNL     1      20.402   1.405  50.468  1.00  0.00     0.043 A 
HETATM   18  C14 UNL     1      21.428   2.258  50.810  1.00  0.00     0.012 A 
ENDBRANCH  11  12
ENDBRANCH  10  11
BRANCH  10  19
HETATM   19  C15 UNL     1      24.828   1.838  51.458  1.00  0.00     0.169 C 
BRANCH  19  20
HETATM   20  C16 UNL     1      25.728   1.410  52.514  1.00  0.00    -0.006 A 
HETATM   21  C17 UNL     1      25.207   0.433  53.383  1.00  0.00     0.012 A 
HETATM   22  C18 UNL     1      25.866  -0.125  54.457  1.00  0.00     0.001 A 
HETATM   23  C19 UNL     1      27.151   0.290  54.732  1.00  0.00     0.009 A 
HETATM   24  C20 UNL     1      27.718   1.244  53.919  1.00  0.00    -0.028 A 
HETATM   25  C21 UNL     1      29.094   1.734  54.157  1.00  0.00     0.051 C 
HETATM   26  C22 UNL     1      27.014   1.767  52.860  1.00  0.00     0.079 A 
BRANCH  26  27
HETATM   27  O2  UNL     1      27.586   2.714  52.059  1.00  0.00    -0.360 OA
HETATM   28  H23 UNL     1      27.135   3.440  51.553  1.00  0.00     0.217 HD
ENDBRANCH  26  27
ENDBRANCH  19  20
ENDBRANCH  10  19
TORSDOF 5
ENDMDL
MODEL 2
REMARK VINA RESULT:      -8.5      2.493      5.399
REMARK  5 active torsions:
REMARK  status: ('A' for Active; 'I' for Inactive)
REMARK       I    between atoms: N1_7  and  C7_8 
REMARK       I    between atoms: C7_8  and  N2_10 
REMARK    1  A    between atoms: N2_10  and  C8_11 
REMARK    2  A    between atoms: N2_10  and  C15_19 
REMARK    3  A    between atoms: C8_11  and  C9_12 
REMARK    4  A    between atoms: C15_19  and  C16_20 
REMARK    5  A    between atoms: C22_26  and  O2_27 
ROOT
HETATM    1  C1  UNL     1      27.213   5.945  48.329  1.00  0.00     0.068 C 
HETATM    2  C2  UNL     1      26.188   6.612  49.147  1.00  0.00     0.013 A 
HETATM    3  C3  UNL     1      25.897   7.868  48.992  1.00  0.00     0.002 A 
HETATM    4  C4  UNL     1      24.896   8.641  49.746  1.00  0.00     0.057 A 
HETATM    5  C5  UNL     1      24.190   7.848  50.769  1.00  0.00    -0.005 A 
HETATM    6  C6  UNL     1      24.475   6.574  50.938  1.00  0.00     0.098 A 
HETATM    7  N1  UNL     1      25.461   5.938  50.148  1.00  0.00    -0.280 N 
HETATM    8  C7  UNL     1      25.680   4.577  50.404  1.00  0.00     0.329 C 
HETATM    9  O1  UNL     1      26.577   4.035  49.724  1.00  0.00    -0.246 OA
HETATM   10  N2  UNL     1      25.443   3.355  51.055  1.00  0.00    -0.325 N 
ENDROOT
BRANCH  10  11
HETATM   11  C8  UNL     1      26.219   2.195  50.793  1.00  0.00     0.166 C 
BRANCH  11  12
HETATM   12  C9  UNL     1      26.919   1.621  51.967  1.00  0.00    -0.040 A 
HETATM   13  C10 UNL     1      26.728   0.288  52.319  1.00  0.00     0.012 A 
HETATM   14  C11 UNL     1      27.331  -0.326  53.388  1.00  0.00     0.043 A 
HETATM   15  C12 UNL     1      28.190   0.385  54.194  1.00  0.00     0.116 A 
HETATM   16  F1  UNL     1      28.803  -0.184  55.256  1.00  0.00    -0.206 F 
HETATM   17  C13 UNL     1      28.410   1.696  53.888  1.00  0.00     0.043 A 
HETATM   18  C14 UNL     1      27.776   2.261  52.803  1.00  0.00     0.012 A 
ENDBRANCH  11  12
ENDBRANCH  10  11
BRANCH  10  19
HETATM   19  C15 UNL     1      24.419   3.014  52.011  1.00  0.00     0.169 C 
BRANCH  19  20
HETATM   20  C16 UNL     1      23.356   2.134  51.557  1.00  0.00    -0.006 A 
HETATM   21  C17 UNL     1      23.047   1.074  52.429  1.00  0.00     0.012 A 
HETATM   22  C18 UNL     1      22.083   0.112  52.217  1.00  0.00     0.001 A 
HETATM   23  C19 UNL     1      21.338   0.165  51.058  1.00  0.00     0.009 A 
HETATM   24  C20 UNL     1      21.593   1.179  50.164  1.00  0.00    -0.028 A 
HETATM   25  C21 UNL     1      20.831   1.296  48.901  1.00  0.00     0.051 C 
HETATM   26  C22 UNL     1      22.567   2.113  50.427  1.00  0.00     0.079 A 
BRANCH  26  27
HETATM   27  O2  UNL     1      22.812   3.116  49.532  1.00  0.00    -0.360 OA
HETATM   28  H23 UNL     1      23.639   3.277  49.006  1.00  0.00     0.217 HD
ENDBRANCH  26  27
ENDBRANCH  19  20
ENDBRANCH  10  19
TORSDOF 5
ENDMDL
MODEL 3
REMARK VINA RESULT:      -8.5      2.792      6.036
REMARK  5 active torsions:
REMARK  status: ('A' for Active; 'I' for Inactive)
REMARK       I    between atoms: N1_7  and  C7_8 
REMARK       I    between atoms: C7_8  and  N2_10 
REMARK    1  A    between atoms: N2_10  and  C8_11 
REMARK    2  A    between atoms: N2_10  and  C15_19 
REMARK    3  A    between atoms: C8_11  and  C9_12 
REMARK    4  A    between atoms: C15_19  and  C16_20 
REMARK    5  A    between atoms: C22_26  and  O2_27 
ROOT
HETATM    1  C1  UNL     1      21.102   0.660  50.434  1.00  0.00     0.068 C 
HETATM    2  C2  UNL     1      21.745   0.365  51.724  1.00  0.00     0.013 A 
HETATM    3  C3  UNL     1      21.196  -0.420  52.600  1.00  0.00     0.002 A 
HETATM    4  C4  UNL     1      21.740  -0.789  53.918  1.00  0.00     0.057 A 
HETATM    5  C5  UNL     1      23.044  -0.166  54.210  1.00  0.00    -0.005 A 
HETATM    6  C6  UNL     1      23.613   0.631  53.331  1.00  0.00     0.098 A 
HETATM    7  N1  UNL     1      22.991   0.911  52.092  1.00  0.00    -0.280 N 
HETATM    8  C7  UNL     1      23.685   1.767  51.225  1.00  0.00     0.329 C 
HETATM    9  O1  UNL     1      23.110   2.034  50.150  1.00  0.00    -0.246 OA
HETATM   10  N2  UNL     1      24.768   2.575  50.841  1.00  0.00    -0.325 N 
ENDROOT
BRANCH  10  11
HETATM   11  C8  UNL     1      24.766   3.314  49.628  1.00  0.00     0.166 C 
BRANCH  11  12
HETATM   12  C9  UNL     1      25.157   4.738  49.751  1.00  0.00    -0.040 A 
HETATM   13  C10 UNL     1      26.219   5.245  49.007  1.00  0.00     0.012 A 
HETATM   14  C11 UNL     1      26.652   6.547  49.059  1.00  0.00     0.043 A 
HETATM   15  C12 UNL     1      26.022   7.447  49.887  1.00  0.00     0.116 A 
HETATM   16  F1  UNL     1      26.419   8.737  49.965  1.00  0.00    -0.206 F 
HETATM   17  C13 UNL     1      24.975   6.997  50.635  1.00  0.00     0.043 A 
HETATM   18  C14 UNL     1      24.584   5.679  50.544  1.00  0.00     0.012 A 
ENDBRANCH  11  12
ENDBRANCH  10  11
BRANCH  10  19
HETATM   19  C15 UNL     1      26.033   2.782  51.500  1.00  0.00     0.169 C 
BRANCH  19  20
HETATM   20  C16 UNL     1      26.630   1.636  52.163  1.00  0.00    -0.006 A 
HETATM   21  C17 UNL     1      26.422   0.402  51.521  1.00  0.00     0.012 A 
HETATM   22  C18 UNL     1      26.885  -0.821  51.957  1.00  0.00     0.001 A 
HETATM   23  C19 UNL     1      27.622  -0.873  53.121  1.00  0.00     0.009 A 
HETATM   24  C20 UNL     1      27.860   0.302  53.796  1.00  0.00    -0.028 A 
HETATM   25  C21 UNL     1      28.643   0.318  55.051  1.00  0.00     0.051 C 
HETATM   26  C22 UNL     1      27.373   1.494  53.315  1.00  0.00     0.079 A 
BRANCH  26  27
HETATM   27  O2  UNL     1      27.616   2.656  53.993  1.00  0.00    -0.360 OA
HETATM   28  H23 UNL     1      28.255   3.378  53.758  1.00  0.00     0.217 HD
ENDBRANCH  26  27
ENDBRANCH  19  20
ENDBRANCH  10  19
TORSDOF 5
ENDMDL
MODEL 4
REMARK VINA RESULT:      -8.5      3.067      5.689
REMARK  5 active torsions:
REMARK  status: ('A' for Active; 'I' for Inactive)
REMARK       I    between atoms: N1_7  and  C7_8 
REMARK       I    between atoms: C7_8  and  N2_10 
REMARK    1  A    between atoms: N2_10  and  C8_11 
REMARK    2  A    between atoms: N2_10  and  C15_19 
REMARK    3  A    between atoms: C8_11  and  C9_12 
REMARK    4  A    between atoms: C15_19  and  C16_20 
REMARK    5  A    between atoms: C22_26  and  O2_27 
ROOT
HETATM    1  C1  UNL     1      24.180   5.839  50.367  1.00  0.00     0.068 C 
HETATM    2  C2  UNL     1      23.543   4.817  49.522  1.00  0.00     0.013 A 
HETATM    3  C3  UNL     1      23.039   5.104  48.361  1.00  0.00     0.002 A 
HETATM    4  C4  UNL     1      22.379   4.173  47.430  1.00  0.00     0.057 A 
HETATM    5  C5  UNL     1      22.318   2.788  47.932  1.00  0.00    -0.005 A 
HETATM    6  C6  UNL     1      22.824   2.481  49.107  1.00  0.00     0.098 A 
HETATM    7  N1  UNL     1      23.436   3.468  49.915  1.00  0.00    -0.280 N 
HETATM    8  C7  UNL     1      23.951   3.034  51.145  1.00  0.00     0.329 C 
HETATM    9  O1  UNL     1      24.457   3.920  51.864  1.00  0.00    -0.246 OA
HETATM   10  N2  UNL     1      24.249   2.075  52.126  1.00  0.00    -0.325 N 
ENDROOT
BRANCH  10  11
HETATM   11  C8  UNL     1      24.841   2.423  53.370  1.00  0.00     0.166 C 
BRANCH  11  12
HETATM   12  C9  UNL     1      26.148   1.784  53.653  1.00  0.00    -0.040 A 
HETATM   13  C10 UNL     1      27.294   2.193  52.977  1.00  0.00     0.012 A 
HETATM   14  C11 UNL     1      28.543   1.658  53.171  1.00  0.00     0.043 A 
HETATM   15  C12 UNL     1      28.722   0.647  54.087  1.00  0.00     0.116 A 
HETATM   16  F1  UNL     1      29.935   0.095  54.308  1.00  0.00    -0.206 F 
HETATM   17  C13 UNL     1      27.627   0.213  54.775  1.00  0.00     0.043 A 
HETATM   18  C14 UNL     1      26.397   0.786  54.538  1.00  0.00     0.012 A 
ENDBRANCH  11  12
ENDBRANCH  10  11
BRANCH  10  19
HETATM   19  C15 UNL     1      24.088   0.643  52.083  1.00  0.00     0.169 C 
BRANCH  19  20
HETATM   20  C16 UNL     1      22.955   0.081  52.798  1.00  0.00    -0.006 A 
HETATM   21  C17 UNL     1      23.282  -0.633  53.965  1.00  0.00     0.012 A 
HETATM   22  C18 UNL     1      22.385  -1.256  54.806  1.00  0.00     0.001 A 
HETATM   23  C19 UNL     1      21.041  -1.193  54.505  1.00  0.00     0.009 A 
HETATM   24  C20 UNL     1      20.657  -0.508  53.374  1.00  0.00    -0.028 A 
HETATM   25  C21 UNL     1      19.232  -0.401  52.992  1.00  0.00     0.051 C 
HETATM   26  C22 UNL     1      21.596   0.095  52.571  1.00  0.00     0.079 A 
BRANCH  26  27
HETATM   27  O2  UNL     1      21.203   0.772  51.451  1.00  0.00    -0.360 OA
HETATM   28  H23 UNL     1      20.662   0.433  50.690  1.00  0.00     0.217 HD
ENDBRANCH  26  27
ENDBRANCH  19  20
ENDBRANCH  10  19
TORSDOF 5
ENDMDL
MODEL 5
REMARK VINA RESULT:      -8.5      3.038      6.850
REMARK  5 active torsions:
REMARK  status: ('A' for Active; 'I' for Inactive)
REMARK       I    between atoms: N1_7  and  C7_8 
REMARK       I    between atoms: C7_8  and  N2_10 
REMARK    1  A    between atoms: N2_10  and  C8_11 
REMARK    2  A    between atoms: N2_10  and  C15_19 
REMARK    3  A    between atoms: C8_11  and  C9_12 
REMARK    4  A    between atoms: C15_19  and  C16_20 
REMARK    5  A    between atoms: C22_26  and  O2_27 
ROOT
HETATM    1  C1  UNL     1      20.385  -0.750  53.731  1.00  0.00     0.068 C 
HETATM    2  C2  UNL     1      20.503  -0.032  52.453  1.00  0.00     0.013 A 
HETATM    3  C3  UNL     1      19.480   0.166  51.680  1.00  0.00     0.002 A 
HETATM    4  C4  UNL     1      19.475   0.865  50.383  1.00  0.00     0.057 A 
HETATM    5  C5  UNL     1      20.802   1.366  49.981  1.00  0.00    -0.005 A 
HETATM    6  C6  UNL     1      21.849   1.173  50.755  1.00  0.00     0.098 A 
HETATM    7  N1  UNL     1      21.729   0.483  51.984  1.00  0.00    -0.280 N 
HETATM    8  C7  UNL     1      22.904   0.339  52.735  1.00  0.00     0.329 C 
HETATM    9  O1  UNL     1      22.792  -0.302  53.800  1.00  0.00    -0.246 OA
HETATM   10  N2  UNL     1      24.272   0.523  52.995  1.00  0.00    -0.325 N 
ENDROOT
BRANCH  10  11
HETATM   11  C8  UNL     1      24.909  -0.047  54.129  1.00  0.00     0.166 C 
BRANCH  11  12
HETATM   12  C9  UNL     1      26.357  -0.323  53.973  1.00  0.00    -0.040 A 
HETATM   13  C10 UNL     1      27.288   0.305  54.795  1.00  0.00     0.012 A 
HETATM   14  C11 UNL     1      28.645   0.113  54.721  1.00  0.00     0.043 A 
HETATM   15  C12 UNL     1      29.165  -0.752  53.785  1.00  0.00     0.116 A 
HETATM   16  F1  UNL     1      30.495  -0.969  53.680  1.00  0.00    -0.206 F 
HETATM   17  C13 UNL     1      28.291  -1.392  52.956  1.00  0.00     0.043 A 
HETATM   18  C14 UNL     1      26.939  -1.160  53.076  1.00  0.00     0.012 A 
ENDBRANCH  11  12
ENDBRANCH  10  11
BRANCH  10  19
HETATM   19  C15 UNL     1      25.243   1.303  52.270  1.00  0.00     0.169 C 
BRANCH  19  20
HETATM   20  C16 UNL     1      24.855   2.647  51.878  1.00  0.00    -0.006 A 
HETATM   21  C17 UNL     1      24.018   3.315  52.790  1.00  0.00     0.012 A 
HETATM   22  C18 UNL     1      23.519   4.591  52.640  1.00  0.00     0.001 A 
HETATM   23  C19 UNL     1      23.849   5.301  51.505  1.00  0.00     0.009 A 
HETATM   24  C20 UNL     1      24.665   4.702  50.574  1.00  0.00    -0.028 A 
HETATM   25  C21 UNL     1      25.059   5.408  49.334  1.00  0.00     0.051 C 
HETATM   26  C22 UNL     1      25.135   3.426  50.776  1.00  0.00     0.079 A 
BRANCH  26  27
HETATM   27  O2  UNL     1      25.945   2.840  49.844  1.00  0.00    -0.360 OA
HETATM   28  H23 UNL     1      25.876   1.925  49.464  1.00  0.00     0.217 HD
ENDBRANCH  26  27
ENDBRANCH  19  20
ENDBRANCH  10  19
TORSDOF 5
ENDMDL
MODEL 6
REMARK VINA RESULT:      -8.0      2.135      5.104
REMARK  5 active torsions:
REMARK  status: ('A' for Active; 'I' for Inactive)
REMARK       I    between atoms: N1_7  and  C7_8 
REMARK       I    between atoms: C7_8  and  N2_10 
REMARK    1  A    between atoms: N2_10  and  C8_11 
REMARK    2  A    between atoms: N2_10  and  C15_19 
REMARK    3  A    between atoms: C8_11  and  C9_12 
REMARK    4  A    between atoms: C15_19  and  C16_20 
REMARK    5  A    between atoms: C22_26  and  O2_27 
ROOT
HETATM    1  C1  UNL     1      26.851  -1.752  52.822  1.00  0.00     0.068 C 
HETATM    2  C2  UNL     1      27.271  -0.366  53.079  1.00  0.00     0.013 A 
HETATM    3  C3  UNL     1      28.517  -0.048  53.255  1.00  0.00     0.002 A 
HETATM    4  C4  UNL     1      29.056   1.298  53.518  1.00  0.00     0.057 A 
HETATM    5  C5  UNL     1      28.019   2.344  53.576  1.00  0.00    -0.005 A 
HETATM    6  C6  UNL     1      26.752   2.038  53.399  1.00  0.00     0.098 A 
HETATM    7  N1  UNL     1      26.354   0.702  53.152  1.00  0.00    -0.280 N 
HETATM    8  C7  UNL     1      24.980   0.486  52.970  1.00  0.00     0.329 C 
HETATM    9  O1  UNL     1      24.638  -0.701  52.787  1.00  0.00    -0.246 OA
HETATM   10  N2  UNL     1      23.637   0.884  52.867  1.00  0.00    -0.325 N 
ENDROOT
BRANCH  10  11
HETATM   11  C8  UNL     1      22.583  -0.052  52.697  1.00  0.00     0.166 C 
BRANCH  11  12
HETATM   12  C9  UNL     1      21.507   0.365  51.767  1.00  0.00    -0.040 A 
HETATM   13  C10 UNL     1      20.210   0.562  52.232  1.00  0.00     0.012 A 
HETATM   14  C11 UNL     1      19.152   0.945  51.444  1.00  0.00     0.043 A 
HETATM   15  C12 UNL     1      19.341   1.159  50.098  1.00  0.00     0.116 A 
HETATM   16  F1  UNL     1      18.326   1.537  49.290  1.00  0.00    -0.206 F 
HETATM   17  C13 UNL     1      20.596   0.979  49.596  1.00  0.00     0.043 A 
HETATM   18  C14 UNL     1      21.620   0.593  50.433  1.00  0.00     0.012 A 
ENDBRANCH  11  12
ENDBRANCH  10  11
BRANCH  10  19
HETATM   19  C15 UNL     1      23.076   2.211  52.858  1.00  0.00     0.169 C 
BRANCH  19  20
HETATM   20  C16 UNL     1      23.656   3.170  51.933  1.00  0.00    -0.006 A 
HETATM   21  C17 UNL     1      24.272   2.607  50.800  1.00  0.00     0.012 A 
HETATM   22  C18 UNL     1      24.890   3.308  49.788  1.00  0.00     0.001 A 
HETATM   23  C19 UNL     1      24.927   4.684  49.862  1.00  0.00     0.009 A 
HETATM   24  C20 UNL     1      24.341   5.296  50.948  1.00  0.00    -0.028 A 
HETATM   25  C21 UNL     1      24.344   6.768  51.090  1.00  0.00     0.051 C 
HETATM   26  C22 UNL     1      23.737   4.546  51.929  1.00  0.00     0.079 A 
BRANCH  26  27
HETATM   27  O2  UNL     1      23.159   5.163  53.003  1.00  0.00    -0.360 OA
HETATM   28  H23 UNL     1      23.526   5.905  53.551  1.00  0.00     0.217 HD
ENDBRANCH  26  27
ENDBRANCH  19  20
ENDBRANCH  10  19
TORSDOF 5
ENDMDL
MODEL 7
REMARK VINA RESULT:      -7.6      3.098      6.373
REMARK  5 active torsions:
REMARK  status: ('A' for Active; 'I' for Inactive)
REMARK       I    between atoms: N1_7  and  C7_8 
REMARK       I    between atoms: C7_8  and  N2_10 
REMARK    1  A    between atoms: N2_10  and  C8_11 
REMARK    2  A    between atoms: N2_10  and  C15_19 
REMARK    3  A    between atoms: C8_11  and  C9_12 
REMARK    4  A    between atoms: C15_19  and  C16_20 
REMARK    5  A    between atoms: C22_26  and  O2_27 
ROOT
HETATM    1  C1  UNL     1      25.903   2.914  49.980  1.00  0.00     0.068 C 
HETATM    2  C2  UNL     1      24.928   3.768  50.676  1.00  0.00     0.013 A 
HETATM    3  C3  UNL     1      24.786   5.025  50.385  1.00  0.00     0.002 A 
HETATM    4  C4  UNL     1      23.850   5.976  51.008  1.00  0.00     0.057 A 
HETATM    5  C5  UNL     1      23.018   5.372  52.066  1.00  0.00    -0.005 A 
HETATM    6  C6  UNL     1      23.150   4.099  52.372  1.00  0.00     0.098 A 
HETATM    7  N1  UNL     1      24.089   3.282  51.699  1.00  0.00    -0.280 N 
HETATM    8  C7  UNL     1      24.143   1.939  52.096  1.00  0.00     0.329 C 
HETATM    9  O1  UNL     1      25.000   1.237  51.520  1.00  0.00    -0.246 OA
HETATM   10  N2  UNL     1      23.743   0.823  52.850  1.00  0.00    -0.325 N 
ENDROOT
BRANCH  10  11
HETATM   11  C8  UNL     1      24.394  -0.435  52.742  1.00  0.00     0.166 C 
BRANCH  11  12
HETATM   12  C9  UNL     1      25.804  -0.462  53.199  1.00  0.00    -0.040 A 
HETATM   13  C10 UNL     1      26.189   0.233  54.342  1.00  0.00     0.012 A 
HETATM   14  C11 UNL     1      27.469   0.267  54.836  1.00  0.00     0.043 A 
HETATM   15  C12 UNL     1      28.472  -0.419  54.191  1.00  0.00     0.116 A 
HETATM   16  F1  UNL     1      29.745  -0.410  54.646  1.00  0.00    -0.206 F 
HETATM   17  C13 UNL     1      28.143  -1.116  53.066  1.00  0.00     0.043 A 
HETATM   18  C14 UNL     1      26.842  -1.113  52.615  1.00  0.00     0.012 A 
ENDBRANCH  11  12
ENDBRANCH  10  11
BRANCH  10  19
HETATM   19  C15 UNL     1      22.650   0.694  53.781  1.00  0.00     0.169 C 
BRANCH  19  20
HETATM   20  C16 UNL     1      21.351   0.344  53.233  1.00  0.00    -0.006 A 
HETATM   21  C17 UNL     1      20.984   1.052  52.073  1.00  0.00     0.012 A 
HETATM   22  C18 UNL     1      19.805   0.899  51.376  1.00  0.00     0.001 A 
HETATM   23  C19 UNL     1      18.882  -0.020  51.828  1.00  0.00     0.009 A 
HETATM   24  C20 UNL     1      19.183  -0.745  52.959  1.00  0.00    -0.028 A 
HETATM   25  C21 UNL     1      18.239  -1.747  53.499  1.00  0.00     0.051 C 
HETATM   26  C22 UNL     1      20.375  -0.551  53.615  1.00  0.00     0.079 A 
BRANCH  26  27
HETATM   27  O2  UNL     1      20.664  -1.276  54.737  1.00  0.00    -0.360 OA
HETATM   28  H23 UNL     1      20.237  -2.117  55.048  1.00  0.00     0.217 HD
ENDBRANCH  26  27
ENDBRANCH  19  20
ENDBRANCH  10  19
TORSDOF 5
ENDMDL
MODEL 8
REMARK VINA RESULT:      -7.5      2.769      5.840
REMARK  5 active torsions:
REMARK  status: ('A' for Active; 'I' for Inactive)
REMARK       I    between atoms: N1_7  and  C7_8 
REMARK       I    between atoms: C7_8  and  N2_10 
REMARK    1  A    between atoms: N2_10  and  C8_11 
REMARK    2  A    between atoms: N2_10  and  C15_19 
REMARK    3  A    between atoms: C8_11  and  C9_12 
REMARK    4  A    between atoms: C15_19  and  C16_20 
REMARK    5  A    between atoms: C22_26  and  O2_27 
ROOT
HETATM    1  C1  UNL     1      28.176   5.666  48.270  1.00  0.00     0.068 C 
HETATM    2  C2  UNL     1      27.045   6.414  48.840  1.00  0.00     0.013 A 
HETATM    3  C3  UNL     1      26.890   7.686  48.633  1.00  0.00     0.002 A 
HETATM    4  C4  UNL     1      25.804   8.538  49.148  1.00  0.00     0.057 A 
HETATM    5  C5  UNL     1      24.827   7.807  49.977  1.00  0.00    -0.005 A 
HETATM    6  C6  UNL     1      24.971   6.518  50.195  1.00  0.00     0.098 A 
HETATM    7  N1  UNL     1      26.061   5.803  49.644  1.00  0.00    -0.280 N 
HETATM    8  C7  UNL     1      26.116   4.432  49.932  1.00  0.00     0.329 C 
HETATM    9  O1  UNL     1      27.101   3.820  49.469  1.00  0.00    -0.246 OA
HETATM   10  N2  UNL     1      25.647   3.237  50.502  1.00  0.00    -0.325 N 
ENDROOT
BRANCH  10  11
HETATM   11  C8  UNL     1      26.375   2.021  50.413  1.00  0.00     0.166 C 
BRANCH  11  12
HETATM   12  C9  UNL     1      26.866   1.479  51.702  1.00  0.00    -0.040 A 
HETATM   13  C10 UNL     1      27.659   2.259  52.540  1.00  0.00     0.012 A 
HETATM   14  C11 UNL     1      28.160   1.840  53.747  1.00  0.00     0.043 A 
HETATM   15  C12 UNL     1      27.884   0.571  54.202  1.00  0.00     0.116 A 
HETATM   16  F1  UNL     1      28.358   0.122  55.385  1.00  0.00    -0.206 F 
HETATM   17  C13 UNL     1      27.110  -0.231  53.416  1.00  0.00     0.043 A 
HETATM   18  C14 UNL     1      26.636   0.242  52.212  1.00  0.00     0.012 A 
ENDBRANCH  11  12
ENDBRANCH  10  11
BRANCH  10  19
HETATM   19  C15 UNL     1      24.411   2.980  51.197  1.00  0.00     0.169 C 
BRANCH  19  20
HETATM   20  C16 UNL     1      23.178   3.208  50.464  1.00  0.00    -0.006 A 
HETATM   21  C17 UNL     1      23.065   2.498  49.254  1.00  0.00     0.012 A 
HETATM   22  C18 UNL     1      21.995   2.550  48.387  1.00  0.00     0.001 A 
HETATM   23  C19 UNL     1      20.926   3.361  48.702  1.00  0.00     0.009 A 
HETATM   24  C20 UNL     1      20.977   4.083  49.873  1.00  0.00    -0.028 A 
HETATM   25  C21 UNL     1      19.864   4.972  50.273  1.00  0.00     0.051 C 
HETATM   26  C22 UNL     1      22.070   3.992  50.702  1.00  0.00     0.079 A 
BRANCH  26  27
HETATM   27  O2  UNL     1      22.110   4.712  51.862  1.00  0.00    -0.360 OA
HETATM   28  H23 UNL     1      22.098   4.370  52.794  1.00  0.00     0.217 HD
ENDBRANCH  26  27
ENDBRANCH  19  20
ENDBRANCH  10  19
TORSDOF 5
ENDMDL
MODEL 9
REMARK VINA RESULT:      -7.5      2.290      3.010
REMARK  5 active torsions:
REMARK  status: ('A' for Active; 'I' for Inactive)
REMARK       I    between atoms: N1_7  and  C7_8 
REMARK       I    between atoms: C7_8  and  N2_10 
REMARK    1  A    between atoms: N2_10  and  C8_11 
REMARK    2  A    between atoms: N2_10  and  C15_19 
REMARK    3  A    between atoms: C8_11  and  C9_12 
REMARK    4  A    between atoms: C15_19  and  C16_20 
REMARK    5  A    between atoms: C22_26  and  O2_27 
ROOT
HETATM    1  C1  UNL     1      25.939   8.496  49.352  1.00  0.00     0.068 C 
HETATM    2  C2  UNL     1      26.964   7.516  48.963  1.00  0.00     0.013 A 
HETATM    3  C3  UNL     1      28.160   7.878  48.612  1.00  0.00     0.002 A 
HETATM    4  C4  UNL     1      29.266   6.994  48.204  1.00  0.00     0.057 A 
HETATM    5  C5  UNL     1      28.909   5.564  48.216  1.00  0.00    -0.005 A 
HETATM    6  C6  UNL     1      27.700   5.182  48.570  1.00  0.00     0.098 A 
HETATM    7  N1  UNL     1      26.718   6.129  48.944  1.00  0.00    -0.280 N 
HETATM    8  C7  UNL     1      25.466   5.615  49.311  1.00  0.00     0.329 C 
HETATM    9  O1  UNL     1      24.597   6.462  49.605  1.00  0.00    -0.246 OA
HETATM   10  N2  UNL     1      24.541   4.588  49.559  1.00  0.00    -0.325 N 
ENDROOT
BRANCH  10  11
HETATM   11  C8  UNL     1      23.193   4.854  49.916  1.00  0.00     0.166 C 
BRANCH  11  12
HETATM   12  C9  UNL     1      22.173   4.357  48.962  1.00  0.00    -0.040 A 
HETATM   13  C10 UNL     1      21.117   3.567  49.408  1.00  0.00     0.012 A 
HETATM   14  C11 UNL     1      20.130   3.060  48.599  1.00  0.00     0.043 A 
HETATM   15  C12 UNL     1      20.146   3.327  47.249  1.00  0.00     0.116 A 
HETATM   16  F1  UNL     1      19.193   2.846  46.419  1.00  0.00    -0.206 F 
HETATM   17  C13 UNL     1      21.162   4.098  46.765  1.00  0.00     0.043 A 
HETATM   18  C14 UNL     1      22.125   4.578  47.624  1.00  0.00     0.012 A 
ENDBRANCH  11  12
ENDBRANCH  10  11
BRANCH  10  19
HETATM   19  C15 UNL     1      24.740   3.160  49.561  1.00  0.00     0.169 C 
BRANCH  19  20
HETATM   20  C16 UNL     1      25.014   2.531  50.841  1.00  0.00    -0.006 A 
HETATM   21  C17 UNL     1      23.947   1.789  51.380  1.00  0.00     0.012 A 
HETATM   22  C18 UNL     1      23.963   1.107  52.578  1.00  0.00     0.001 A 
HETATM   23  C19 UNL     1      25.112   1.135  53.339  1.00  0.00     0.009 A 
HETATM   24  C20 UNL     1      26.193   1.844  52.866  1.00  0.00    -0.028 A 
HETATM   25  C21 UNL     1      27.457   1.915  53.631  1.00  0.00     0.051 C 
HETATM   26  C22 UNL     1      26.120   2.506  51.663  1.00  0.00     0.079 A 
BRANCH  26  27
HETATM   27  O2  UNL     1      27.198   3.207  51.202  1.00  0.00    -0.360 OA
HETATM   28  H23 UNL     1      28.018   2.852  50.769  1.00  0.00     0.217 HD
ENDBRANCH  26  27
ENDBRANCH  19  20
ENDBRANCH  10  19
TORSDOF 5
ENDMDL
