MODEL 1
REMARK VINA RESULT:      -8.3      0.000      0.000
REMARK  7 active torsions:
REMARK  status: ('A' for Active; 'I' for Inactive)
REMARK    1  A    between atoms: O1_2  and  C2_3 
REMARK    2  A    between atoms: C4_5  and  N1_6 
REMARK       I    between atoms: N2_9  and  C7_10 
REMARK    3  A    between atoms: C13_17  and  N3_18 
REMARK    4  A    between atoms: N3_18  and  C14_19 
REMARK    5  A    between atoms: C16_22  and  C17_23 
REMARK    6  A    between atoms: C18_27  and  P1_28 
REMARK    7  A    between atoms: P1_28  and  N5_29 
ROOT
HETATM    1  C2  UNL     1      25.230   5.987  50.211  1.00  0.00     0.097 A 
HETATM    2  C3  UNL     1      26.145   6.848  49.649  1.00  0.00     0.068 A 
HETATM    3  C4  UNL     1      27.199   6.414  48.879  1.00  0.00     0.033 A 
HETATM    4  C11 UNL     1      27.314   5.058  48.682  1.00  0.00     0.032 A 
HETATM    5  C12 UNL     1      26.385   4.213  49.255  1.00  0.00     0.035 A 
HETATM    6  C13 UNL     1      25.318   4.605  50.031  1.00  0.00     0.082 A 
ENDROOT
BRANCH   6   7
HETATM    7  N3  UNL     1      24.365   3.737  50.618  1.00  0.00    -0.185 N 
HETATM    8  H18 UNL     1      23.361   3.895  50.316  1.00  0.00     0.184 HD
BRANCH   7   9
HETATM    9  C14 UNL     1      24.592   2.696  51.550  1.00  0.00     0.727 A 
HETATM   10  N4  UNL     1      23.689   1.907  52.118  1.00  0.00    -0.074 NA
HETATM   11  C15 UNL     1      23.931   0.937  52.990  1.00  0.00     0.155 A 
HETATM   12  C16 UNL     1      25.224   0.713  53.348  1.00  0.00     0.097 A 
HETATM   13  C18 UNL     1      26.217   1.492  52.801  1.00  0.00     0.108 A 
HETATM   14  N6  UNL     1      25.835   2.434  51.935  1.00  0.00    -0.060 NA
BRANCH  12  15
HETATM   15  C17 UNL     1      25.609  -0.341  54.313  1.00  0.00     0.421 C 
HETATM   16  F1  UNL     1      26.243   0.269  55.376  1.00  0.00    -0.166 F 
HETATM   17  F2  UNL     1      24.406  -0.893  54.771  1.00  0.00    -0.166 F 
HETATM   18  F3  UNL     1      26.404  -1.303  53.721  1.00  0.00    -0.166 F 
ENDBRANCH  12  15
BRANCH  13  19
HETATM   19  P1  UNL     1      28.011   1.292  53.204  1.00  0.00    -0.003 P 
HETATM   20  H20 UNL     1      28.045   1.059  54.657  1.00  0.00     0.080 HD
BRANCH  19  21
HETATM   21  N5  UNL     1      28.782   2.913  52.982  1.00  0.00    -0.307 NA
HETATM   22  H21 UNL     1      28.227   3.669  53.458  1.00  0.00     0.123 HD
HETATM   23  H22 UNL     1      29.738   2.949  53.411  1.00  0.00     0.123 HD
ENDBRANCH  19  21
ENDBRANCH  13  19
ENDBRANCH   7   9
ENDBRANCH   6   7
BRANCH   1  24
HETATM   24  O1  UNL     1      24.181   6.472  50.983  1.00  0.00    -0.354 OA
HETATM   25  C1  UNL     1      23.542   7.703  50.689  1.00  0.00     0.210 C 
ENDBRANCH   1  24
BRANCH   3  26
HETATM   26  N1  UNL     1      28.116   7.331  48.320  1.00  0.00    -0.378 N 
HETATM   27  C5  UNL     1      28.101   8.755  48.434  1.00  0.00     0.143 C 
HETATM   28  C6  UNL     1      29.298   9.187  49.289  1.00  0.00     0.145 C 
HETATM   29  N2  UNL     1      30.474   8.861  48.504  1.00  0.00    -0.349 N 
HETATM   30  C7  UNL     1      31.303   9.955  48.137  1.00  0.00     0.215 C 
HETATM   31  C9  UNL     1      30.521   7.430  48.272  1.00  0.00     0.145 C 
HETATM   32  C8  UNL     1      32.538   9.803  47.340  1.00  0.00     0.117 C 
HETATM   33  O2  UNL     1      30.795  11.013  48.606  1.00  0.00    -0.274 OA
HETATM   34  C10 UNL     1      29.264   7.046  47.519  1.00  0.00     0.143 C 
ENDBRANCH   3  26
TORSDOF 7
ENDMDL
MODEL 2
REMARK VINA RESULT:      -8.1      4.739      9.290
REMARK  7 active torsions:
REMARK  status: ('A' for Active; 'I' for Inactive)
REMARK    1  A    between atoms: O1_2  and  C2_3 
REMARK    2  A    between atoms: C4_5  and  N1_6 
REMARK       I    between atoms: N2_9  and  C7_10 
REMARK    3  A    between atoms: C13_17  and  N3_18 
REMARK    4  A    between atoms: N3_18  and  C14_19 
REMARK    5  A    between atoms: C16_22  and  C17_23 
REMARK    6  A    between atoms: C18_27  and  P1_28 
REMARK    7  A    between atoms: P1_28  and  N5_29 
ROOT
HETATM    1  C2  UNL     1      25.307   5.470  49.845  1.00  0.00     0.097 A 
HETATM    2  C3  UNL     1      24.603   4.728  50.766  1.00  0.00     0.068 A 
HETATM    3  C4  UNL     1      24.955   3.445  51.113  1.00  0.00     0.033 A 
HETATM    4  C11 UNL     1      26.061   2.911  50.494  1.00  0.00     0.032 A 
HETATM    5  C12 UNL     1      26.752   3.672  49.575  1.00  0.00     0.035 A 
HETATM    6  C13 UNL     1      26.434   4.958  49.200  1.00  0.00     0.082 A 
ENDROOT
BRANCH   6   7
HETATM    7  N3  UNL     1      27.145   5.739  48.255  1.00  0.00    -0.185 N 
HETATM    8  H18 UNL     1      26.562   6.129  47.460  1.00  0.00     0.184 HD
BRANCH   7   9
HETATM    9  C14 UNL     1      28.525   6.056  48.248  1.00  0.00     0.727 A 
HETATM   10  N4  UNL     1      29.546   5.215  48.152  1.00  0.00    -0.074 NA
HETATM   11  C15 UNL     1      30.832   5.540  48.148  1.00  0.00     0.155 A 
HETATM   12  C16 UNL     1      31.155   6.858  48.249  1.00  0.00     0.097 A 
HETATM   13  C18 UNL     1      30.148   7.790  48.353  1.00  0.00     0.108 A 
HETATM   14  N6  UNL     1      28.896   7.326  48.344  1.00  0.00    -0.060 NA
BRANCH  12  15
HETATM   15  C17 UNL     1      32.556   7.334  48.255  1.00  0.00     0.421 C 
HETATM   16  F1  UNL     1      32.796   7.928  49.478  1.00  0.00    -0.166 F 
HETATM   17  F2  UNL     1      33.347   6.182  48.160  1.00  0.00    -0.166 F 
HETATM   18  F3  UNL     1      32.803   8.196  47.205  1.00  0.00    -0.166 F 
ENDBRANCH  12  15
BRANCH  13  19
HETATM   19  P1  UNL     1      30.450   9.608  48.496  1.00  0.00    -0.003 P 
HETATM   20  H20 UNL     1      31.842   9.793  48.055  1.00  0.00     0.080 HD
BRANCH  19  21
HETATM   21  N5  UNL     1      30.474   9.997  50.262  1.00  0.00    -0.307 NA
HETATM   22  H21 UNL     1      29.533   9.832  50.703  1.00  0.00     0.123 HD
HETATM   23  H22 UNL     1      31.144   9.383  50.786  1.00  0.00     0.123 HD
ENDBRANCH  19  21
ENDBRANCH  13  19
ENDBRANCH   7   9
ENDBRANCH   6   7
BRANCH   1  24
HETATM   24  O1  UNL     1      24.913   6.765  49.527  1.00  0.00    -0.354 OA
HETATM   25  C1  UNL     1      24.635   7.730  50.527  1.00  0.00     0.210 C 
ENDBRANCH   1  24
BRANCH   3  26
HETATM   26  N1  UNL     1      24.205   2.717  52.063  1.00  0.00    -0.378 N 
HETATM   27  C5  UNL     1      22.798   2.473  52.059  1.00  0.00     0.143 C 
HETATM   28  C6  UNL     1      22.565   0.981  51.800  1.00  0.00     0.145 C 
HETATM   29  N2  UNL     1      23.085   0.297  52.970  1.00  0.00    -0.349 N 
HETATM   30  C7  UNL     1      22.145  -0.457  53.723  1.00  0.00     0.215 C 
HETATM   31  C9  UNL     1      24.505   0.563  53.094  1.00  0.00     0.145 C 
HETATM   32  C8  UNL     1      22.504  -1.213  54.941  1.00  0.00     0.117 C 
HETATM   33  O2  UNL     1      21.015  -0.351  53.168  1.00  0.00    -0.274 OA
HETATM   34  C10 UNL     1      24.682   2.060  53.239  1.00  0.00     0.143 C 
ENDBRANCH   3  26
TORSDOF 7
ENDMDL
MODEL 3
REMARK VINA RESULT:      -8.1      1.473      2.279
REMARK  7 active torsions:
REMARK  status: ('A' for Active; 'I' for Inactive)
REMARK    1  A    between atoms: O1_2  and  C2_3 
REMARK    2  A    between atoms: C4_5  and  N1_6 
REMARK       I    between atoms: N2_9  and  C7_10 
REMARK    3  A    between atoms: C13_17  and  N3_18 
REMARK    4  A    between atoms: N3_18  and  C14_19 
REMARK    5  A    between atoms: C16_22  and  C17_23 
REMARK    6  A    between atoms: C18_27  and  P1_28 
REMARK    7  A    between atoms: P1_28  and  N5_29 
ROOT
HETATM    1  C2  UNL     1      25.520   5.986  49.979  1.00  0.00     0.097 A 
HETATM    2  C3  UNL     1      26.129   7.165  49.612  1.00  0.00     0.068 A 
HETATM    3  C4  UNL     1      27.261   7.205  48.831  1.00  0.00     0.033 A 
HETATM    4  C11 UNL     1      27.779   6.000  48.417  1.00  0.00     0.032 A 
HETATM    5  C12 UNL     1      27.151   4.831  48.796  1.00  0.00     0.035 A 
HETATM    6  C13 UNL     1      26.020   4.746  49.575  1.00  0.00     0.082 A 
ENDROOT
BRANCH   6   7
HETATM    7  N3  UNL     1      25.376   3.546  49.964  1.00  0.00    -0.185 N 
HETATM    8  H18 UNL     1      24.492   3.312  49.427  1.00  0.00     0.184 HD
BRANCH   7   9
HETATM    9  C14 UNL     1      25.769   2.633  50.972  1.00  0.00     0.727 A 
HETATM   10  N4  UNL     1      26.994   2.413  51.430  1.00  0.00    -0.074 NA
HETATM   11  C15 UNL     1      27.335   1.550  52.378  1.00  0.00     0.155 A 
HETATM   12  C16 UNL     1      26.345   0.811  52.950  1.00  0.00     0.097 A 
HETATM   13  C18 UNL     1      25.048   0.984  52.526  1.00  0.00     0.108 A 
HETATM   14  N6  UNL     1      24.844   1.887  51.564  1.00  0.00    -0.060 NA
BRANCH  12  15
HETATM   15  C17 UNL     1      26.610  -0.181  54.015  1.00  0.00     0.421 C 
HETATM   16  F1  UNL     1      26.272  -1.427  53.526  1.00  0.00    -0.166 F 
HETATM   17  F2  UNL     1      27.994  -0.148  54.227  1.00  0.00    -0.166 F 
HETATM   18  F3  UNL     1      25.921   0.123  55.173  1.00  0.00    -0.166 F 
ENDBRANCH  12  15
BRANCH  13  19
HETATM   19  P1  UNL     1      23.613   0.045  53.219  1.00  0.00    -0.003 P 
HETATM   20  H20 UNL     1      23.880  -1.359  52.868  1.00  0.00     0.080 HD
BRANCH  19  21
HETATM   21  N5  UNL     1      22.166   0.497  52.233  1.00  0.00    -0.307 NA
HETATM   22  H21 UNL     1      21.310  -0.029  52.547  1.00  0.00     0.123 HD
HETATM   23  H22 UNL     1      21.928   1.514  52.337  1.00  0.00     0.123 HD
ENDBRANCH  19  21
ENDBRANCH  13  19
ENDBRANCH   7   9
ENDBRANCH   6   7
BRANCH   1  24
HETATM   24  O1  UNL     1      24.377   5.996  50.769  1.00  0.00    -0.354 OA
HETATM   25  C1  UNL     1      23.506   7.114  50.814  1.00  0.00     0.210 C 
ENDBRANCH   1  24
BRANCH   3  26
HETATM   26  N1  UNL     1      27.856   8.435  48.477  1.00  0.00    -0.378 N 
HETATM   27  C5  UNL     1      28.232   9.503  49.348  1.00  0.00     0.143 C 
HETATM   28  C6  UNL     1      29.762   9.595  49.372  1.00  0.00     0.145 C 
HETATM   29  N2  UNL     1      30.147  10.015  48.037  1.00  0.00    -0.349 N 
HETATM   30  C7  UNL     1      30.825  11.260  47.944  1.00  0.00     0.215 C 
HETATM   31  C9  UNL     1      29.725   9.016  47.074  1.00  0.00     0.145 C 
HETATM   32  C8  UNL     1      31.287  11.837  46.665  1.00  0.00     0.117 C 
HETATM   33  O2  UNL     1      30.942  11.736  49.109  1.00  0.00    -0.274 OA
HETATM   34  C10 UNL     1      28.218   8.891  47.172  1.00  0.00     0.143 C 
ENDBRANCH   3  26
TORSDOF 7
ENDMDL
MODEL 4
REMARK VINA RESULT:      -8.0      4.656      9.221
REMARK  7 active torsions:
REMARK  status: ('A' for Active; 'I' for Inactive)
REMARK    1  A    between atoms: O1_2  and  C2_3 
REMARK    2  A    between atoms: C4_5  and  N1_6 
REMARK       I    between atoms: N2_9  and  C7_10 
REMARK    3  A    between atoms: C13_17  and  N3_18 
REMARK    4  A    between atoms: N3_18  and  C14_19 
REMARK    5  A    between atoms: C16_22  and  C17_23 
REMARK    6  A    between atoms: C18_27  and  P1_28 
REMARK    7  A    between atoms: P1_28  and  N5_29 
ROOT
HETATM    1  C2  UNL     1      24.730   5.768  49.873  1.00  0.00     0.097 A 
HETATM    2  C3  UNL     1      24.107   4.950  50.789  1.00  0.00     0.068 A 
HETATM    3  C4  UNL     1      24.579   3.698  51.109  1.00  0.00     0.033 A 
HETATM    4  C11 UNL     1      25.721   3.276  50.468  1.00  0.00     0.032 A 
HETATM    5  C12 UNL     1      26.328   4.113  49.554  1.00  0.00     0.035 A 
HETATM    6  C13 UNL     1      25.890   5.370  49.206  1.00  0.00     0.082 A 
ENDROOT
BRANCH   6   7
HETATM    7  N3  UNL     1      26.514   6.228  48.267  1.00  0.00    -0.185 N 
HETATM    8  H18 UNL     1      26.073   6.243  47.303  1.00  0.00     0.184 HD
BRANCH   7   9
HETATM    9  C14 UNL     1      27.645   7.058  48.462  1.00  0.00     0.727 A 
HETATM   10  N4  UNL     1      27.662   8.373  48.633  1.00  0.00    -0.074 NA
HETATM   11  C15 UNL     1      28.738   9.127  48.814  1.00  0.00     0.155 A 
HETATM   12  C16 UNL     1      29.951   8.510  48.831  1.00  0.00     0.097 A 
HETATM   13  C18 UNL     1      30.013   7.146  48.660  1.00  0.00     0.108 A 
HETATM   14  N6  UNL     1      28.853   6.508  48.487  1.00  0.00    -0.060 NA
BRANCH  12  15
HETATM   15  C17 UNL     1      31.217   9.252  49.025  1.00  0.00     0.421 C 
HETATM   16  F1  UNL     1      30.897  10.567  49.301  1.00  0.00    -0.166 F 
HETATM   17  F2  UNL     1      31.813   8.693  50.162  1.00  0.00    -0.166 F 
HETATM   18  F3  UNL     1      32.043   9.141  47.924  1.00  0.00    -0.166 F 
ENDBRANCH  12  15
BRANCH  13  19
HETATM   19  P1  UNL     1      31.593   6.187  48.661  1.00  0.00    -0.003 P 
HETATM   20  H20 UNL     1      31.339   5.045  47.769  1.00  0.00     0.080 HD
BRANCH  19  21
HETATM   21  N5  UNL     1      31.762   5.456  50.307  1.00  0.00    -0.307 NA
HETATM   22  H21 UNL     1      30.842   5.082  50.655  1.00  0.00     0.123 HD
HETATM   23  H22 UNL     1      32.418   4.638  50.302  1.00  0.00     0.123 HD
ENDBRANCH  19  21
ENDBRANCH  13  19
ENDBRANCH   7   9
ENDBRANCH   6   7
BRANCH   1  24
HETATM   24  O1  UNL     1      24.216   7.026  49.583  1.00  0.00    -0.354 OA
HETATM   25  C1  UNL     1      24.259   8.087  50.521  1.00  0.00     0.210 C 
ENDBRANCH   1  24
BRANCH   3  26
HETATM   26  N1  UNL     1      23.911   2.890  52.054  1.00  0.00    -0.378 N 
HETATM   27  C5  UNL     1      22.527   2.535  52.073  1.00  0.00     0.143 C 
HETATM   28  C6  UNL     1      22.406   1.035  51.779  1.00  0.00     0.145 C 
HETATM   29  N2  UNL     1      23.005   0.367  52.919  1.00  0.00    -0.349 N 
HETATM   30  C7  UNL     1      22.145  -0.479  53.672  1.00  0.00     0.215 C 
HETATM   31  C9  UNL     1      24.402   0.740  53.021  1.00  0.00     0.145 C 
HETATM   32  C8  UNL     1      22.590  -1.234  54.861  1.00  0.00     0.117 C 
HETATM   33  O2  UNL     1      20.998  -0.449  53.142  1.00  0.00    -0.274 OA
HETATM   34  C10 UNL     1      24.464   2.243  53.202  1.00  0.00     0.143 C 
ENDBRANCH   3  26
TORSDOF 7
ENDMDL
MODEL 5
REMARK VINA RESULT:      -8.0      4.703      9.161
REMARK  7 active torsions:
REMARK  status: ('A' for Active; 'I' for Inactive)
REMARK    1  A    between atoms: O1_2  and  C2_3 
REMARK    2  A    between atoms: C4_5  and  N1_6 
REMARK       I    between atoms: N2_9  and  C7_10 
REMARK    3  A    between atoms: C13_17  and  N3_18 
REMARK    4  A    between atoms: N3_18  and  C14_19 
REMARK    5  A    between atoms: C16_22  and  C17_23 
REMARK    6  A    between atoms: C18_27  and  P1_28 
REMARK    7  A    between atoms: P1_28  and  N5_29 
ROOT
HETATM    1  C2  UNL     1      24.794   5.074  49.956  1.00  0.00     0.097 A 
HETATM    2  C3  UNL     1      24.429   3.931  50.631  1.00  0.00     0.068 A 
HETATM    3  C4  UNL     1      25.220   2.807  50.671  1.00  0.00     0.033 A 
HETATM    4  C11 UNL     1      26.418   2.860  49.998  1.00  0.00     0.032 A 
HETATM    5  C12 UNL     1      26.764   4.016  49.329  1.00  0.00     0.035 A 
HETATM    6  C13 UNL     1      26.003   5.161  49.263  1.00  0.00     0.082 A 
ENDROOT
BRANCH   6   7
HETATM    7  N3  UNL     1      26.359   6.348  48.575  1.00  0.00    -0.185 N 
HETATM    8  H18 UNL     1      25.653   6.685  47.860  1.00  0.00     0.184 HD
BRANCH   7   9
HETATM    9  C14 UNL     1      27.532   7.125  48.728  1.00  0.00     0.727 A 
HETATM   10  N4  UNL     1      27.624   8.367  49.185  1.00  0.00    -0.074 NA
HETATM   11  C15 UNL     1      28.739   9.073  49.318  1.00  0.00     0.155 A 
HETATM   12  C16 UNL     1      29.912   8.484  48.959  1.00  0.00     0.097 A 
HETATM   13  C18 UNL     1      29.895   7.196  48.475  1.00  0.00     0.108 A 
HETATM   14  N6  UNL     1      28.703   6.600  48.393  1.00  0.00    -0.060 NA
BRANCH  12  15
HETATM   15  C17 UNL     1      31.214   9.178  49.065  1.00  0.00     0.421 C 
HETATM   16  F1  UNL     1      31.707   9.350  47.787  1.00  0.00    -0.166 F 
HETATM   17  F2  UNL     1      30.928  10.439  49.603  1.00  0.00    -0.166 F 
HETATM   18  F3  UNL     1      32.095   8.482  49.869  1.00  0.00    -0.166 F 
ENDBRANCH  12  15
BRANCH  13  19
HETATM   19  P1  UNL     1      31.415   6.282  47.952  1.00  0.00    -0.003 P 
HETATM   20  H20 UNL     1      30.954   5.359  46.903  1.00  0.00     0.080 HD
BRANCH  19  21
HETATM   21  N5  UNL     1      31.883   5.211  49.331  1.00  0.00    -0.307 NA
HETATM   22  H21 UNL     1      31.038   4.884  49.866  1.00  0.00     0.123 HD
HETATM   23  H22 UNL     1      32.364   4.339  48.999  1.00  0.00     0.123 HD
ENDBRANCH  19  21
ENDBRANCH  13  19
ENDBRANCH   7   9
ENDBRANCH   6   7
BRANCH   1  24
HETATM   24  O1  UNL     1      23.960   6.187  49.944  1.00  0.00    -0.354 OA
HETATM   25  C1  UNL     1      22.609   6.115  50.364  1.00  0.00     0.210 C 
ENDBRANCH   1  24
BRANCH   3  26
HETATM   26  N1  UNL     1      24.809   1.655  51.376  1.00  0.00    -0.378 N 
HETATM   27  C5  UNL     1      25.638   0.686  52.018  1.00  0.00     0.143 C 
HETATM   28  C6  UNL     1      25.439   0.803  53.534  1.00  0.00     0.145 C 
HETATM   29  N2  UNL     1      24.072   0.384  53.779  1.00  0.00    -0.349 N 
HETATM   30  C7  UNL     1      23.907  -0.761  54.606  1.00  0.00     0.215 C 
HETATM   31  C9  UNL     1      23.160   1.275  53.089  1.00  0.00     0.145 C 
HETATM   32  C8  UNL     1      22.587  -1.323  54.957  1.00  0.00     0.117 C 
HETATM   33  O2  UNL     1      25.053  -1.167  54.953  1.00  0.00    -0.274 OA
HETATM   34  C10 UNL     1      23.475   1.198  51.609  1.00  0.00     0.143 C 
ENDBRANCH   3  26
TORSDOF 7
ENDMDL
MODEL 6
REMARK VINA RESULT:      -7.8      2.492      3.185
REMARK  7 active torsions:
REMARK  status: ('A' for Active; 'I' for Inactive)
REMARK    1  A    between atoms: O1_2  and  C2_3 
REMARK    2  A    between atoms: C4_5  and  N1_6 
REMARK       I    between atoms: N2_9  and  C7_10 
REMARK    3  A    between atoms: C13_17  and  N3_18 
REMARK    4  A    between atoms: N3_18  and  C14_19 
REMARK    5  A    between atoms: C16_22  and  C17_23 
REMARK    6  A    between atoms: C18_27  and  P1_28 
REMARK    7  A    between atoms: P1_28  and  N5_29 
ROOT
HETATM    1  C2  UNL     1      25.383   5.124  49.698  1.00  0.00     0.097 A 
HETATM    2  C3  UNL     1      25.546   6.405  49.222  1.00  0.00     0.068 A 
HETATM    3  C4  UNL     1      26.681   6.815  48.563  1.00  0.00     0.033 A 
HETATM    4  C11 UNL     1      27.675   5.880  48.388  1.00  0.00     0.032 A 
HETATM    5  C12 UNL     1      27.490   4.601  48.872  1.00  0.00     0.035 A 
HETATM    6  C13 UNL     1      26.372   4.151  49.537  1.00  0.00     0.082 A 
ENDROOT
BRANCH   6   7
HETATM    7  N3  UNL     1      26.183   2.838  50.034  1.00  0.00    -0.185 N 
HETATM    8  H18 UNL     1      25.543   2.222  49.454  1.00  0.00     0.184 HD
BRANCH   7   9
HETATM    9  C14 UNL     1      26.740   2.258  51.199  1.00  0.00     0.727 A 
HETATM   10  N4  UNL     1      27.675   2.771  51.989  1.00  0.00    -0.074 NA
HETATM   11  C15 UNL     1      28.180   2.205  53.076  1.00  0.00     0.155 A 
HETATM   12  C16 UNL     1      27.706   0.980  53.434  1.00  0.00     0.097 A 
HETATM   13  C18 UNL     1      26.736   0.384  52.662  1.00  0.00     0.108 A 
HETATM   14  N6  UNL     1      26.315   1.065  51.593  1.00  0.00    -0.060 NA
BRANCH  12  15
HETATM   15  C17 UNL     1      28.198   0.257  54.627  1.00  0.00     0.421 C 
HETATM   16  F1  UNL     1      27.102  -0.101  55.386  1.00  0.00    -0.166 F 
HETATM   17  F2  UNL     1      28.801  -0.910  54.141  1.00  0.00    -0.166 F 
HETATM   18  F3  UNL     1      29.097   1.019  55.347  1.00  0.00    -0.166 F 
ENDBRANCH  12  15
BRANCH  13  19
HETATM   19  P1  UNL     1      26.009  -1.274  53.036  1.00  0.00    -0.003 P 
HETATM   20  H20 UNL     1      26.318  -1.507  54.456  1.00  0.00     0.080 HD
BRANCH  19  21
HETATM   21  N5  UNL     1      27.003  -2.495  52.145  1.00  0.00    -0.307 NA
HETATM   22  H21 UNL     1      27.332  -3.261  52.786  1.00  0.00     0.123 HD
HETATM   23  H22 UNL     1      26.448  -2.972  51.393  1.00  0.00     0.123 HD
ENDBRANCH  19  21
ENDBRANCH  13  19
ENDBRANCH   7   9
ENDBRANCH   6   7
BRANCH   1  24
HETATM   24  O1  UNL     1      24.217   4.756  50.359  1.00  0.00    -0.354 OA
HETATM   25  C1  UNL     1      23.830   5.354  51.585  1.00  0.00     0.210 C 
ENDBRANCH   1  24
BRANCH   3  26
HETATM   26  N1  UNL     1      26.809   8.139  48.090  1.00  0.00    -0.378 N 
HETATM   27  C5  UNL     1      25.761   9.033  47.714  1.00  0.00     0.143 C 
HETATM   28  C6  UNL     1      25.701  10.171  48.739  1.00  0.00     0.145 C 
HETATM   29  N2  UNL     1      26.938  10.912  48.571  1.00  0.00    -0.349 N 
HETATM   30  C7  UNL     1      26.804  12.271  48.177  1.00  0.00     0.215 C 
HETATM   31  C9  UNL     1      28.064  10.045  48.857  1.00  0.00     0.145 C 
HETATM   32  C8  UNL     1      27.958  13.168  47.960  1.00  0.00     0.117 C 
HETATM   33  O2  UNL     1      25.573  12.531  48.061  1.00  0.00    -0.274 OA
HETATM   34  C10 UNL     1      28.010   8.885  47.884  1.00  0.00     0.143 C 
ENDBRANCH   3  26
TORSDOF 7
ENDMDL
MODEL 7
REMARK VINA RESULT:      -7.7      8.591     11.721
REMARK  7 active torsions:
REMARK  status: ('A' for Active; 'I' for Inactive)
REMARK    1  A    between atoms: O1_2  and  C2_3 
REMARK    2  A    between atoms: C4_5  and  N1_6 
REMARK       I    between atoms: N2_9  and  C7_10 
REMARK    3  A    between atoms: C13_17  and  N3_18 
REMARK    4  A    between atoms: N3_18  and  C14_19 
REMARK    5  A    between atoms: C16_22  and  C17_23 
REMARK    6  A    between atoms: C18_27  and  P1_28 
REMARK    7  A    between atoms: P1_28  and  N5_29 
ROOT
HETATM    1  C2  UNL     1      18.276  -0.483  52.701  1.00  0.00     0.097 A 
HETATM    2  C3  UNL     1      19.589  -0.354  53.097  1.00  0.00     0.068 A 
HETATM    3  C4  UNL     1      20.365   0.730  52.761  1.00  0.00     0.033 A 
HETATM    4  C11 UNL     1      19.774   1.709  51.995  1.00  0.00     0.032 A 
HETATM    5  C12 UNL     1      18.458   1.560  51.610  1.00  0.00     0.035 A 
HETATM    6  C13 UNL     1      17.647   0.493  51.924  1.00  0.00     0.082 A 
ENDROOT
BRANCH   6   7
HETATM    7  N3  UNL     1      16.296   0.341  51.528  1.00  0.00    -0.185 N 
HETATM    8  H18 UNL     1      16.151  -0.002  50.535  1.00  0.00     0.184 HD
BRANCH   7   9
HETATM    9  C14 UNL     1      15.130   0.591  52.292  1.00  0.00     0.727 A 
HETATM   10  N4  UNL     1      14.337  -0.301  52.871  1.00  0.00    -0.074 NA
HETATM   11  C15 UNL     1      13.249  -0.038  53.583  1.00  0.00     0.155 A 
HETATM   12  C16 UNL     1      12.897   1.266  53.747  1.00  0.00     0.097 A 
HETATM   13  C18 UNL     1      13.672   2.248  53.174  1.00  0.00     0.108 A 
HETATM   14  N6  UNL     1      14.740   1.845  52.483  1.00  0.00    -0.060 NA
BRANCH  12  15
HETATM   15  C17 UNL     1      11.703   1.674  54.520  1.00  0.00     0.421 C 
HETATM   16  F1  UNL     1      11.202   0.551  55.147  1.00  0.00    -0.166 F 
HETATM   17  F2  UNL     1      12.171   2.558  55.501  1.00  0.00    -0.166 F 
HETATM   18  F3  UNL     1      10.759   2.280  53.714  1.00  0.00    -0.166 F 
ENDBRANCH  12  15
BRANCH  13  19
HETATM   19  P1  UNL     1      13.304   4.054  53.320  1.00  0.00    -0.003 P 
HETATM   20  H20 UNL     1      13.652   4.615  52.005  1.00  0.00     0.080 HD
BRANCH  19  21
HETATM   21  N5  UNL     1      14.530   4.749  54.454  1.00  0.00    -0.307 NA
HETATM   22  H21 UNL     1      14.613   5.791  54.336  1.00  0.00     0.123 HD
HETATM   23  H22 UNL     1      14.260   4.597  55.456  1.00  0.00     0.123 HD
ENDBRANCH  19  21
ENDBRANCH  13  19
ENDBRANCH   7   9
ENDBRANCH   6   7
BRANCH   1  24
HETATM   24  O1  UNL     1      17.532  -1.598  53.066  1.00  0.00    -0.354 OA
HETATM   25  C1  UNL     1      18.099  -2.670  53.798  1.00  0.00     0.210 C 
ENDBRANCH   1  24
BRANCH   3  26
HETATM   26  N1  UNL     1      21.707   0.824  53.188  1.00  0.00    -0.378 N 
HETATM   27  C5  UNL     1      22.379  -0.010  54.133  1.00  0.00     0.143 C 
HETATM   28  C6  UNL     1      23.430  -0.840  53.387  1.00  0.00     0.145 C 
HETATM   29  N2  UNL     1      24.420   0.113  52.921  1.00  0.00    -0.349 N 
HETATM   30  C7  UNL     1      25.738  -0.057  53.425  1.00  0.00     0.215 C 
HETATM   31  C9  UNL     1      23.795   1.054  52.012  1.00  0.00     0.145 C 
HETATM   32  C8  UNL     1      26.865   0.823  53.055  1.00  0.00     0.117 C 
HETATM   33  O2  UNL     1      25.740  -1.053  54.202  1.00  0.00    -0.274 OA
HETATM   34  C10 UNL     1      22.696   1.767  52.772  1.00  0.00     0.143 C 
ENDBRANCH   3  26
TORSDOF 7
ENDMDL
MODEL 8
REMARK VINA RESULT:      -7.5      6.154      7.411
REMARK  7 active torsions:
REMARK  status: ('A' for Active; 'I' for Inactive)
REMARK    1  A    between atoms: O1_2  and  C2_3 
REMARK    2  A    between atoms: C4_5  and  N1_6 
REMARK       I    between atoms: N2_9  and  C7_10 
REMARK    3  A    between atoms: C13_17  and  N3_18 
REMARK    4  A    between atoms: N3_18  and  C14_19 
REMARK    5  A    between atoms: C16_22  and  C17_23 
REMARK    6  A    between atoms: C18_27  and  P1_28 
REMARK    7  A    between atoms: P1_28  and  N5_29 
ROOT
HETATM    1  C2  UNL     1      22.192   0.696  51.558  1.00  0.00     0.097 A 
HETATM    2  C3  UNL     1      21.509   1.130  50.444  1.00  0.00     0.068 A 
HETATM    3  C4  UNL     1      21.988   2.121  49.618  1.00  0.00     0.033 A 
HETATM    4  C11 UNL     1      23.201   2.679  49.948  1.00  0.00     0.032 A 
HETATM    5  C12 UNL     1      23.867   2.229  51.069  1.00  0.00     0.035 A 
HETATM    6  C13 UNL     1      23.425   1.242  51.921  1.00  0.00     0.082 A 
ENDROOT
BRANCH   6   7
HETATM    7  N3  UNL     1      24.110   0.780  53.071  1.00  0.00    -0.185 N 
HETATM    8  H18 UNL     1      23.598   0.917  53.989  1.00  0.00     0.184 HD
BRANCH   7   9
HETATM    9  C14 UNL     1      25.384   0.165  53.138  1.00  0.00     0.727 A 
HETATM   10  N4  UNL     1      25.688  -1.096  52.860  1.00  0.00    -0.074 NA
HETATM   11  C15 UNL     1      26.893  -1.647  52.931  1.00  0.00     0.155 A 
HETATM   12  C16 UNL     1      27.930  -0.858  53.326  1.00  0.00     0.097 A 
HETATM   13  C18 UNL     1      27.691   0.462  53.632  1.00  0.00     0.108 A 
HETATM   14  N6  UNL     1      26.431   0.888  53.517  1.00  0.00    -0.060 NA
BRANCH  12  15
HETATM   15  C17 UNL     1      29.314  -1.367  53.441  1.00  0.00     0.421 C 
HETATM   16  F1  UNL     1      30.108  -0.630  52.585  1.00  0.00    -0.166 F 
HETATM   17  F2  UNL     1      29.709  -1.096  54.757  1.00  0.00    -0.166 F 
HETATM   18  F3  UNL     1      29.380  -2.720  53.170  1.00  0.00    -0.166 F 
ENDBRANCH  12  15
BRANCH  13  19
HETATM   19  P1  UNL     1      29.008   1.638  54.180  1.00  0.00    -0.003 P 
HETATM   20  H20 UNL     1      28.488   2.230  55.423  1.00  0.00     0.080 HD
BRANCH  19  21
HETATM   21  N5  UNL     1      29.021   3.001  52.992  1.00  0.00    -0.307 NA
HETATM   22  H21 UNL     1      28.752   2.672  52.029  1.00  0.00     0.123 HD
HETATM   23  H22 UNL     1      28.322   3.742  53.245  1.00  0.00     0.123 HD
ENDBRANCH  19  21
ENDBRANCH  13  19
ENDBRANCH   7   9
ENDBRANCH   6   7
BRANCH   1  24
HETATM   24  O1  UNL     1      21.668  -0.309  52.363  1.00  0.00    -0.354 OA
HETATM   25  C1  UNL     1      20.610  -0.064  53.274  1.00  0.00     0.210 C 
ENDBRANCH   1  24
BRANCH   3  26
HETATM   26  N1  UNL     1      21.256   2.537  48.485  1.00  0.00    -0.378 N 
HETATM   27  C5  UNL     1      19.840   2.684  48.368  1.00  0.00     0.143 C 
HETATM   28  C6  UNL     1      19.516   4.176  48.230  1.00  0.00     0.145 C 
HETATM   29  N2  UNL     1      20.066   4.576  46.948  1.00  0.00    -0.349 N 
HETATM   30  C7  UNL     1      19.132   5.056  45.990  1.00  0.00     0.215 C 
HETATM   31  C9  UNL     1      21.502   4.379  46.954  1.00  0.00     0.145 C 
HETATM   32  C8  UNL     1      19.520   5.503  44.636  1.00  0.00     0.117 C 
HETATM   33  O2  UNL     1      17.980   5.021  46.507  1.00  0.00    -0.274 OA
HETATM   34  C10 UNL     1      21.763   2.907  47.201  1.00  0.00     0.143 C 
ENDBRANCH   3  26
TORSDOF 7
ENDMDL
MODEL 9
REMARK VINA RESULT:      -7.5      7.371      9.551
REMARK  7 active torsions:
REMARK  status: ('A' for Active; 'I' for Inactive)
REMARK    1  A    between atoms: O1_2  and  C2_3 
REMARK    2  A    between atoms: C4_5  and  N1_6 
REMARK       I    between atoms: N2_9  and  C7_10 
REMARK    3  A    between atoms: C13_17  and  N3_18 
REMARK    4  A    between atoms: N3_18  and  C14_19 
REMARK    5  A    between atoms: C16_22  and  C17_23 
REMARK    6  A    between atoms: C18_27  and  P1_28 
REMARK    7  A    between atoms: P1_28  and  N5_29 
ROOT
HETATM    1  C2  UNL     1      22.037   1.603  50.602  1.00  0.00     0.097 A 
HETATM    2  C3  UNL     1      23.247   1.441  51.238  1.00  0.00     0.068 A 
HETATM    3  C4  UNL     1      23.408   0.631  52.338  1.00  0.00     0.033 A 
HETATM    4  C11 UNL     1      22.292  -0.031  52.796  1.00  0.00     0.032 A 
HETATM    5  C12 UNL     1      21.090   0.146  52.143  1.00  0.00     0.035 A 
HETATM    6  C13 UNL     1      20.886   0.946  51.042  1.00  0.00     0.082 A 
ENDROOT
BRANCH   6   7
HETATM    7  N3  UNL     1      19.650   1.126  50.372  1.00  0.00    -0.185 N 
HETATM    8  H18 UNL     1      19.724   1.417  49.356  1.00  0.00     0.184 HD
BRANCH   7   9
HETATM    9  C14 UNL     1      18.345   0.966  50.895  1.00  0.00     0.727 A 
HETATM   10  N4  UNL     1      17.770  -0.157  51.306  1.00  0.00    -0.074 NA
HETATM   11  C15 UNL     1      16.542  -0.279  51.793  1.00  0.00     0.155 A 
HETATM   12  C16 UNL     1      15.783   0.846  51.889  1.00  0.00     0.097 A 
HETATM   13  C18 UNL     1      16.311   2.050  51.482  1.00  0.00     0.108 A 
HETATM   14  N6  UNL     1      17.560   2.030  51.012  1.00  0.00    -0.060 NA
BRANCH  12  15
HETATM   15  C17 UNL     1      14.401   0.828  52.417  1.00  0.00     0.421 C 
HETATM   16  F1  UNL     1      14.154  -0.438  52.909  1.00  0.00    -0.166 F 
HETATM   17  F2  UNL     1      14.392   1.730  53.488  1.00  0.00    -0.166 F 
HETATM   18  F3  UNL     1      13.485   1.193  51.450  1.00  0.00    -0.166 F 
ENDBRANCH  12  15
BRANCH  13  19
HETATM   19  P1  UNL     1      15.387   3.649  51.559  1.00  0.00    -0.003 P 
HETATM   20  H20 UNL     1      15.936   4.453  50.456  1.00  0.00     0.080 HD
BRANCH  19  21
HETATM   21  N5  UNL     1      15.932   4.497  53.061  1.00  0.00    -0.307 NA
HETATM   22  H21 UNL     1      15.247   5.242  53.349  1.00  0.00     0.123 HD
HETATM   23  H22 UNL     1      15.996   3.840  53.875  1.00  0.00     0.123 HD
ENDBRANCH  19  21
ENDBRANCH  13  19
ENDBRANCH   7   9
ENDBRANCH   6   7
BRANCH   1  24
HETATM   24  O1  UNL     1      21.924   2.433  49.494  1.00  0.00    -0.354 OA
HETATM   25  C1  UNL     1      23.056   3.034  48.889  1.00  0.00     0.210 C 
ENDBRANCH   1  24
BRANCH   3  26
HETATM   26  N1  UNL     1      24.667   0.492  52.960  1.00  0.00    -0.378 N 
HETATM   27  C5  UNL     1      25.197  -0.667  53.605  1.00  0.00     0.143 C 
HETATM   28  C6  UNL     1      26.360  -1.203  52.763  1.00  0.00     0.145 C 
HETATM   29  N2  UNL     1      27.397  -0.192  52.845  1.00  0.00    -0.349 N 
HETATM   30  C7  UNL     1      28.624  -0.602  53.434  1.00  0.00     0.215 C 
HETATM   31  C9  UNL     1      26.908   1.051  52.281  1.00  0.00     0.145 C 
HETATM   32  C8  UNL     1      29.784   0.298  53.596  1.00  0.00     0.117 C 
HETATM   33  O2  UNL     1      28.519  -1.817  53.765  1.00  0.00    -0.274 OA
HETATM   34  C10 UNL     1      25.697   1.475  53.085  1.00  0.00     0.143 C 
ENDBRANCH   3  26
TORSDOF 7
ENDMDL
