MODEL 1
REMARK VINA RESULT:      -8.3      0.000      0.000
REMARK  3 active torsions:
REMARK  status: ('A' for Active; 'I' for Inactive)
REMARK    1  A    between atoms: O1_1  and  C1_2 
REMARK    2  A    between atoms: C3_7  and  C4_8 
REMARK    3  A    between atoms: C11_15  and  C12_16 
ROOT
HETATM    1  C1  UNL     1      23.144   2.772  50.947  1.00  0.00     0.277 C 
HETATM    2  N1  UNL     1      22.706   3.988  51.621  1.00  0.00    -0.248 NA
HETATM    3  C2  UNL     1      23.382   4.100  52.715  1.00  0.00     0.227 C 
HETATM    4  N2  UNL     1      24.307   3.036  52.906  1.00  0.00    -0.244 N 
HETATM    5  N3  UNL     1      25.445   2.543  53.554  1.00  0.00    -0.174 NA
HETATM    6  C3  UNL     1      25.987   1.591  52.835  1.00  0.00     0.068 C 
HETATM    7  C10 UNL     1      25.170   1.397  51.584  1.00  0.00     0.105 C 
HETATM    8  C11 UNL     1      23.839   1.990  51.995  1.00  0.00     0.134 C 
ENDROOT
BRANCH   8   9
HETATM    9  C12 UNL     1      23.006   1.029  52.726  1.00  0.00    -0.023 A 
HETATM   10  C13 UNL     1      23.350  -0.314  52.708  1.00  0.00     0.013 A 
HETATM   11  C14 UNL     1      22.628  -1.297  53.349  1.00  0.00     0.043 A 
HETATM   12  C15 UNL     1      21.485  -0.967  54.066  1.00  0.00     0.116 A 
HETATM   13  F1  UNL     1      20.744  -1.892  54.711  1.00  0.00    -0.206 F 
HETATM   14  C16 UNL     1      21.110   0.369  54.106  1.00  0.00     0.043 A 
HETATM   15  C17 UNL     1      21.881   1.297  53.440  1.00  0.00     0.013 A 
ENDBRANCH   8   9
BRANCH   1  16
HETATM   16  O1  UNL     1      21.992   2.119  50.533  1.00  0.00    -0.372 OA
HETATM   17  H1  UNL     1      21.191   2.702  50.476  1.00  0.00     0.212 HD
ENDBRANCH   1  16
BRANCH   6  18
HETATM   18  C4  UNL     1      27.183   0.812  53.144  1.00  0.00    -0.010 A 
HETATM   19  C5  UNL     1      28.325   1.359  53.646  1.00  0.00     0.013 A 
HETATM   20  C6  UNL     1      29.408   0.550  53.910  1.00  0.00     0.001 A 
HETATM   21  C7  UNL     1      29.382  -0.820  53.681  1.00  0.00     0.000 A 
HETATM   22  C8  UNL     1      28.220  -1.391  53.169  1.00  0.00     0.001 A 
HETATM   23  C9  UNL     1      27.157  -0.559  52.917  1.00  0.00     0.013 A 
ENDBRANCH   6  18
TORSDOF 3
ENDMDL
MODEL 2
REMARK VINA RESULT:      -8.1      3.780      5.352
REMARK  3 active torsions:
REMARK  status: ('A' for Active; 'I' for Inactive)
REMARK    1  A    between atoms: O1_1  and  C1_2 
REMARK    2  A    between atoms: C3_7  and  C4_8 
REMARK    3  A    between atoms: C11_15  and  C12_16 
ROOT
HETATM    1  C1  UNL     1      22.697   2.482  50.504  1.00  0.00     0.277 C 
HETATM    2  N1  UNL     1      21.769   3.149  51.410  1.00  0.00    -0.248 NA
HETATM    3  C2  UNL     1      22.272   4.298  51.717  1.00  0.00     0.227 C 
HETATM    4  N2  UNL     1      23.529   4.537  51.094  1.00  0.00    -0.244 N 
HETATM    5  N3  UNL     1      24.515   5.449  50.702  1.00  0.00    -0.174 NA
HETATM    6  C3  UNL     1      25.220   4.945  49.719  1.00  0.00     0.068 C 
HETATM    7  C10 UNL     1      24.691   3.572  49.392  1.00  0.00     0.105 C 
HETATM    8  C11 UNL     1      23.977   3.207  50.676  1.00  0.00     0.134 C 
ENDROOT
BRANCH   8   9
HETATM    9  C12 UNL     1      24.891   2.651  51.679  1.00  0.00    -0.023 A 
HETATM   10  C13 UNL     1      25.997   1.930  51.259  1.00  0.00     0.013 A 
HETATM   11  C14 UNL     1      26.908   1.355  52.119  1.00  0.00     0.043 A 
HETATM   12  C15 UNL     1      26.746   1.482  53.492  1.00  0.00     0.116 A 
HETATM   13  F1  UNL     1      27.609   0.939  54.376  1.00  0.00    -0.206 F 
HETATM   14  C16 UNL     1      25.648   2.199  53.950  1.00  0.00     0.043 A 
HETATM   15  C17 UNL     1      24.779   2.745  53.031  1.00  0.00     0.013 A 
ENDBRANCH   8   9
BRANCH   1  16
HETATM   16  O1  UNL     1      22.811   1.176  50.956  1.00  0.00    -0.372 OA
HETATM   17  H1  UNL     1      22.161   0.546  50.550  1.00  0.00     0.212 HD
ENDBRANCH   1  16
BRANCH   6  18
HETATM   18  C4  UNL     1      26.341   5.563  49.019  1.00  0.00    -0.010 A 
HETATM   19  C5  UNL     1      26.294   6.816  48.485  1.00  0.00     0.013 A 
HETATM   20  C6  UNL     1      27.400   7.323  47.840  1.00  0.00     0.001 A 
HETATM   21  C7  UNL     1      28.578   6.598  47.710  1.00  0.00     0.000 A 
HETATM   22  C8  UNL     1      28.640   5.318  48.251  1.00  0.00     0.001 A 
HETATM   23  C9  UNL     1      27.521   4.839  48.888  1.00  0.00     0.013 A 
ENDBRANCH   6  18
TORSDOF 3
ENDMDL
MODEL 3
REMARK VINA RESULT:      -8.0      2.756      4.817
REMARK  3 active torsions:
REMARK  status: ('A' for Active; 'I' for Inactive)
REMARK    1  A    between atoms: O1_1  and  C1_2 
REMARK    2  A    between atoms: C3_7  and  C4_8 
REMARK    3  A    between atoms: C11_15  and  C12_16 
ROOT
HETATM    1  C1  UNL     1      26.761   0.375  54.478  1.00  0.00     0.277 C 
HETATM    2  N1  UNL     1      27.330  -0.905  54.070  1.00  0.00    -0.248 NA
HETATM    3  C2  UNL     1      27.311  -0.952  52.780  1.00  0.00     0.227 C 
HETATM    4  N2  UNL     1      26.760   0.219  52.190  1.00  0.00    -0.244 N 
HETATM    5  N3  UNL     1      26.603   1.028  51.060  1.00  0.00    -0.174 NA
HETATM    6  C3  UNL     1      26.313   2.253  51.426  1.00  0.00     0.068 C 
HETATM    7  C10 UNL     1      26.261   2.313  52.931  1.00  0.00     0.105 C 
HETATM    8  C11 UNL     1      26.030   0.859  53.286  1.00  0.00     0.134 C 
ENDROOT
BRANCH   8   9
HETATM    9  C12 UNL     1      24.611   0.493  53.220  1.00  0.00    -0.023 A 
HETATM   10  C13 UNL     1      23.659   1.494  53.103  1.00  0.00     0.013 A 
HETATM   11  C14 UNL     1      22.303   1.257  53.047  1.00  0.00     0.043 A 
HETATM   12  C15 UNL     1      21.819  -0.043  53.108  1.00  0.00     0.116 A 
HETATM   13  F1  UNL     1      20.501  -0.328  53.057  1.00  0.00    -0.206 F 
HETATM   14  C16 UNL     1      22.744  -1.072  53.226  1.00  0.00     0.043 A 
HETATM   15  C17 UNL     1      24.085  -0.759  53.276  1.00  0.00     0.013 A 
ENDBRANCH   8   9
BRANCH   1  16
HETATM   16  O1  UNL     1      25.880   0.096  55.513  1.00  0.00    -0.372 OA
HETATM   17  H1  UNL     1      26.313  -0.021  56.398  1.00  0.00     0.212 HD
ENDBRANCH   1  16
BRANCH   6  18
HETATM   18  C4  UNL     1      26.070   3.407  50.566  1.00  0.00    -0.010 A 
HETATM   19  C5  UNL     1      26.958   3.845  49.630  1.00  0.00     0.013 A 
HETATM   20  C6  UNL     1      26.648   4.944  48.859  1.00  0.00     0.001 A 
HETATM   21  C7  UNL     1      25.449   5.632  49.001  1.00  0.00     0.000 A 
HETATM   22  C8  UNL     1      24.534   5.194  49.953  1.00  0.00     0.001 A 
HETATM   23  C9  UNL     1      24.871   4.096  50.706  1.00  0.00     0.013 A 
ENDBRANCH   6  18
TORSDOF 3
ENDMDL
MODEL 4
REMARK VINA RESULT:      -7.9      2.870      4.105
REMARK  3 active torsions:
REMARK  status: ('A' for Active; 'I' for Inactive)
REMARK    1  A    between atoms: O1_1  and  C1_2 
REMARK    2  A    between atoms: C3_7  and  C4_8 
REMARK    3  A    between atoms: C11_15  and  C12_16 
ROOT
HETATM    1  C1  UNL     1      20.808   2.046  52.905  1.00  0.00     0.277 C 
HETATM    2  N1  UNL     1      19.932   0.881  52.943  1.00  0.00    -0.248 NA
HETATM    3  C2  UNL     1      20.668  -0.171  52.804  1.00  0.00     0.227 C 
HETATM    4  N2  UNL     1      22.050   0.133  52.664  1.00  0.00    -0.244 N 
HETATM    5  N3  UNL     1      23.380  -0.297  52.716  1.00  0.00    -0.174 NA
HETATM    6  C3  UNL     1      24.171   0.729  52.915  1.00  0.00     0.068 C 
HETATM    7  C10 UNL     1      23.335   1.980  53.009  1.00  0.00     0.105 C 
HETATM    8  C11 UNL     1      22.067   1.552  52.302  1.00  0.00     0.134 C 
ENDROOT
BRANCH   8   9
HETATM    9  C12 UNL     1      22.170   1.693  50.846  1.00  0.00    -0.023 A 
HETATM   10  C13 UNL     1      22.992   2.678  50.319  1.00  0.00     0.013 A 
HETATM   11  C14 UNL     1      23.149   2.903  48.969  1.00  0.00     0.043 A 
HETATM   12  C15 UNL     1      22.464   2.120  48.048  1.00  0.00     0.116 A 
HETATM   13  F1  UNL     1      22.583   2.300  46.716  1.00  0.00    -0.206 F 
HETATM   14  C16 UNL     1      21.631   1.123  48.539  1.00  0.00     0.043 A 
HETATM   15  C17 UNL     1      21.524   0.957  49.903  1.00  0.00     0.013 A 
ENDBRANCH   8   9
BRANCH   1  16
HETATM   16  O1  UNL     1      20.194   2.967  52.068  1.00  0.00    -0.372 OA
HETATM   17  H1  UNL     1      20.581   3.012  51.156  1.00  0.00     0.212 HD
ENDBRANCH   1  16
BRANCH   6  18
HETATM   18  C4  UNL     1      25.626   0.724  53.033  1.00  0.00    -0.010 A 
HETATM   19  C5  UNL     1      26.388  -0.394  52.867  1.00  0.00     0.013 A 
HETATM   20  C6  UNL     1      27.757  -0.309  52.995  1.00  0.00     0.001 A 
HETATM   21  C7  UNL     1      28.400   0.886  53.292  1.00  0.00     0.000 A 
HETATM   22  C8  UNL     1      27.634   2.034  53.463  1.00  0.00     0.001 A 
HETATM   23  C9  UNL     1      26.271   1.919  53.328  1.00  0.00     0.013 A 
ENDBRANCH   6  18
TORSDOF 3
ENDMDL
MODEL 5
REMARK VINA RESULT:      -7.8      1.719      2.073
REMARK  3 active torsions:
REMARK  status: ('A' for Active; 'I' for Inactive)
REMARK    1  A    between atoms: O1_1  and  C1_2 
REMARK    2  A    between atoms: C3_7  and  C4_8 
REMARK    3  A    between atoms: C11_15  and  C12_16 
ROOT
HETATM    1  C1  UNL     1      23.253   4.361  50.567  1.00  0.00     0.277 C 
HETATM    2  N1  UNL     1      22.863   5.394  51.521  1.00  0.00    -0.248 NA
HETATM    3  C2  UNL     1      23.254   5.018  52.692  1.00  0.00     0.227 C 
HETATM    4  N2  UNL     1      23.918   3.759  52.678  1.00  0.00    -0.244 N 
HETATM    5  N3  UNL     1      24.762   2.846  53.317  1.00  0.00    -0.174 NA
HETATM    6  C3  UNL     1      25.306   2.048  52.431  1.00  0.00     0.068 C 
HETATM    7  C10 UNL     1      24.806   2.426  51.061  1.00  0.00     0.105 C 
HETATM    8  C11 UNL     1      23.529   3.167  51.397  1.00  0.00     0.134 C 
ENDROOT
BRANCH   8   9
HETATM    9  C12 UNL     1      22.396   2.256  51.593  1.00  0.00    -0.023 A 
HETATM   10  C13 UNL     1      22.240   1.178  50.736  1.00  0.00     0.013 A 
HETATM   11  C14 UNL     1      21.205   0.273  50.825  1.00  0.00     0.043 A 
HETATM   12  C15 UNL     1      20.241   0.412  51.815  1.00  0.00     0.116 A 
HETATM   13  F1  UNL     1      19.208  -0.447  51.946  1.00  0.00    -0.206 F 
HETATM   14  C16 UNL     1      20.366   1.481  52.693  1.00  0.00     0.043 A 
HETATM   15  C17 UNL     1      21.427   2.346  52.542  1.00  0.00     0.013 A 
ENDBRANCH   8   9
BRANCH   1  16
HETATM   16  O1  UNL     1      22.151   4.147  49.752  1.00  0.00    -0.372 OA
HETATM   17  H1  UNL     1      22.019   3.202  49.485  1.00  0.00     0.212 HD
ENDBRANCH   1  16
BRANCH   6  18
HETATM   18  C4  UNL     1      26.244   0.956  52.672  1.00  0.00    -0.010 A 
HETATM   19  C5  UNL     1      25.949  -0.353  52.434  1.00  0.00     0.013 A 
HETATM   20  C6  UNL     1      26.895  -1.321  52.689  1.00  0.00     0.001 A 
HETATM   21  C7  UNL     1      28.155  -1.012  53.187  1.00  0.00     0.000 A 
HETATM   22  C8  UNL     1      28.469   0.321  53.433  1.00  0.00     0.001 A 
HETATM   23  C9  UNL     1      27.506   1.264  53.169  1.00  0.00     0.013 A 
ENDBRANCH   6  18
TORSDOF 3
ENDMDL
MODEL 6
REMARK VINA RESULT:      -7.8      2.819      5.596
REMARK  3 active torsions:
REMARK  status: ('A' for Active; 'I' for Inactive)
REMARK    1  A    between atoms: O1_1  and  C1_2 
REMARK    2  A    between atoms: C3_7  and  C4_8 
REMARK    3  A    between atoms: C11_15  and  C12_16 
ROOT
HETATM    1  C1  UNL     1      23.448   4.666  50.968  1.00  0.00     0.277 C 
HETATM    2  N1  UNL     1      23.765   4.613  49.545  1.00  0.00    -0.248 NA
HETATM    3  C2  UNL     1      23.566   3.403  49.141  1.00  0.00     0.227 C 
HETATM    4  N2  UNL     1      23.118   2.539  50.177  1.00  0.00    -0.244 N 
HETATM    5  N3  UNL     1      22.505   1.338  50.551  1.00  0.00    -0.174 NA
HETATM    6  C3  UNL     1      22.007   1.450  51.758  1.00  0.00     0.068 C 
HETATM    7  C10 UNL     1      22.291   2.837  52.277  1.00  0.00     0.105 C 
HETATM    8  C11 UNL     1      23.460   3.253  51.409  1.00  0.00     0.134 C 
ENDROOT
BRANCH   8   9
HETATM    9  C12 UNL     1      24.740   2.762  51.930  1.00  0.00    -0.023 A 
HETATM   10  C13 UNL     1      24.893   2.596  53.298  1.00  0.00     0.013 A 
HETATM   11  C14 UNL     1      26.056   2.154  53.889  1.00  0.00     0.043 A 
HETATM   12  C15 UNL     1      27.162   1.846  53.108  1.00  0.00     0.116 A 
HETATM   13  F1  UNL     1      28.324   1.410  53.638  1.00  0.00    -0.206 F 
HETATM   14  C16 UNL     1      27.045   2.000  51.733  1.00  0.00     0.043 A 
HETATM   15  C17 UNL     1      25.850   2.447  51.212  1.00  0.00     0.013 A 
ENDBRANCH   8   9
BRANCH   1  16
HETATM   16  O1  UNL     1      24.479   5.374  51.570  1.00  0.00    -0.372 OA
HETATM   17  H1  UNL     1      25.292   5.466  51.009  1.00  0.00     0.212 HD
ENDBRANCH   1  16
BRANCH   6  18
HETATM   18  C4  UNL     1      21.289   0.436  52.525  1.00  0.00    -0.010 A 
HETATM   19  C5  UNL     1      19.935   0.286  52.486  1.00  0.00     0.013 A 
HETATM   20  C6  UNL     1      19.338  -0.699  53.242  1.00  0.00     0.001 A 
HETATM   21  C7  UNL     1      20.071  -1.556  54.053  1.00  0.00     0.000 A 
HETATM   22  C8  UNL     1      21.455  -1.414  54.100  1.00  0.00     0.001 A 
HETATM   23  C9  UNL     1      22.022  -0.423  53.336  1.00  0.00     0.013 A 
ENDBRANCH   6  18
TORSDOF 3
ENDMDL
MODEL 7
REMARK VINA RESULT:      -7.6      2.583      5.951
REMARK  3 active torsions:
REMARK  status: ('A' for Active; 'I' for Inactive)
REMARK    1  A    between atoms: O1_1  and  C1_2 
REMARK    2  A    between atoms: C3_7  and  C4_8 
REMARK    3  A    between atoms: C11_15  and  C12_16 
ROOT
HETATM    1  C1  UNL     1      23.437   3.895  52.172  1.00  0.00     0.277 C 
HETATM    2  N1  UNL     1      23.931   4.234  50.842  1.00  0.00    -0.248 NA
HETATM    3  C2  UNL     1      23.419   3.396  50.004  1.00  0.00     0.227 C 
HETATM    4  N2  UNL     1      22.567   2.442  50.626  1.00  0.00    -0.244 N 
HETATM    5  N3  UNL     1      21.553   1.485  50.504  1.00  0.00    -0.174 NA
HETATM    6  C3  UNL     1      20.942   1.337  51.653  1.00  0.00     0.068 C 
HETATM    7  C10 UNL     1      21.572   2.259  52.665  1.00  0.00     0.105 C 
HETATM    8  C11 UNL     1      22.929   2.511  52.043  1.00  0.00     0.134 C 
ENDROOT
BRANCH   8   9
HETATM    9  C12 UNL     1      23.891   1.451  52.363  1.00  0.00    -0.023 A 
HETATM   10  C13 UNL     1      23.575   0.528  53.349  1.00  0.00     0.013 A 
HETATM   11  C14 UNL     1      24.413  -0.496  53.735  1.00  0.00     0.043 A 
HETATM   12  C15 UNL     1      25.652  -0.649  53.127  1.00  0.00     0.116 A 
HETATM   13  F1  UNL     1      26.508  -1.635  53.468  1.00  0.00    -0.206 F 
HETATM   14  C16 UNL     1      26.001   0.256  52.134  1.00  0.00     0.043 A 
HETATM   15  C17 UNL     1      25.113   1.256  51.801  1.00  0.00     0.013 A 
ENDBRANCH   8   9
BRANCH   1  16
HETATM   16  O1  UNL     1      24.537   3.936  53.017  1.00  0.00    -0.372 OA
HETATM   17  H1  UNL     1      24.323   4.191  53.952  1.00  0.00     0.212 HD
ENDBRANCH   1  16
BRANCH   6  18
HETATM   18  C4  UNL     1      19.830   0.443  51.963  1.00  0.00    -0.010 A 
HETATM   19  C5  UNL     1      18.699   0.363  51.207  1.00  0.00     0.013 A 
HETATM   20  C6  UNL     1      17.697  -0.509  51.572  1.00  0.00     0.001 A 
HETATM   21  C7  UNL     1      17.796  -1.322  52.694  1.00  0.00     0.000 A 
HETATM   22  C8  UNL     1      18.946  -1.251  53.473  1.00  0.00     0.001 A 
HETATM   23  C9  UNL     1      19.928  -0.372  53.085  1.00  0.00     0.013 A 
ENDBRANCH   6  18
TORSDOF 3
ENDMDL
MODEL 8
REMARK VINA RESULT:      -7.5      2.964      4.076
REMARK  3 active torsions:
REMARK  status: ('A' for Active; 'I' for Inactive)
REMARK    1  A    between atoms: O1_1  and  C1_2 
REMARK    2  A    between atoms: C3_7  and  C4_8 
REMARK    3  A    between atoms: C11_15  and  C12_16 
ROOT
HETATM    1  C1  UNL     1      19.436   1.403  50.583  1.00  0.00     0.277 C 
HETATM    2  N1  UNL     1      18.529   2.321  51.263  1.00  0.00    -0.248 NA
HETATM    3  C2  UNL     1      19.241   3.260  51.791  1.00  0.00     0.227 C 
HETATM    4  N2  UNL     1      20.634   3.103  51.549  1.00  0.00    -0.244 N 
HETATM    5  N3  UNL     1      21.912   3.670  51.515  1.00  0.00    -0.174 NA
HETATM    6  C3  UNL     1      22.684   2.976  50.715  1.00  0.00     0.068 C 
HETATM    7  C10 UNL     1      21.890   1.831  50.141  1.00  0.00     0.105 C 
HETATM    8  C11 UNL     1      20.770   1.701  51.152  1.00  0.00     0.134 C 
ENDROOT
BRANCH   8   9
HETATM    9  C12 UNL     1      21.161   0.891  52.310  1.00  0.00    -0.023 A 
HETATM   10  C13 UNL     1      22.139  -0.079  52.156  1.00  0.00     0.013 A 
HETATM   11  C14 UNL     1      22.568  -0.902  53.176  1.00  0.00     0.043 A 
HETATM   12  C15 UNL     1      22.015  -0.785  54.444  1.00  0.00     0.116 A 
HETATM   13  F1  UNL     1      22.400  -1.566  55.476  1.00  0.00    -0.206 F 
HETATM   14  C16 UNL     1      21.032   0.177  54.635  1.00  0.00     0.043 A 
HETATM   15  C17 UNL     1      20.653   0.963  53.569  1.00  0.00     0.013 A 
ENDBRANCH   8   9
BRANCH   1  16
HETATM   16  O1  UNL     1      19.030   0.124  50.933  1.00  0.00    -0.372 OA
HETATM   17  H1  UNL     1      18.087  -0.082  50.703  1.00  0.00     0.212 HD
ENDBRANCH   1  16
BRANCH   6  18
HETATM   18  C4  UNL     1      24.087   3.222  50.396  1.00  0.00    -0.010 A 
HETATM   19  C5  UNL     1      25.115   2.499  50.923  1.00  0.00     0.013 A 
HETATM   20  C6  UNL     1      26.411   2.798  50.566  1.00  0.00     0.001 A 
HETATM   21  C7  UNL     1      26.717   3.822  49.679  1.00  0.00     0.000 A 
HETATM   22  C8  UNL     1      25.677   4.568  49.133  1.00  0.00     0.001 A 
HETATM   23  C9  UNL     1      24.395   4.246  49.507  1.00  0.00     0.013 A 
ENDBRANCH   6  18
TORSDOF 3
ENDMDL
MODEL 9
REMARK VINA RESULT:      -7.4      9.190     11.174
REMARK  3 active torsions:
REMARK  status: ('A' for Active; 'I' for Inactive)
REMARK    1  A    between atoms: O1_1  and  C1_2 
REMARK    2  A    between atoms: C3_7  and  C4_8 
REMARK    3  A    between atoms: C11_15  and  C12_16 
ROOT
HETATM    1  C1  UNL     1      32.746   8.418  48.068  1.00  0.00     0.277 C 
HETATM    2  N1  UNL     1      32.971   9.140  46.820  1.00  0.00    -0.248 NA
HETATM    3  C2  UNL     1      31.978   8.890  46.034  1.00  0.00     0.227 C 
HETATM    4  N2  UNL     1      31.016   8.020  46.617  1.00  0.00    -0.244 N 
HETATM    5  N3  UNL     1      29.717   7.499  46.612  1.00  0.00    -0.174 NA
HETATM    6  C3  UNL     1      29.415   7.049  47.805  1.00  0.00     0.068 C 
HETATM    7  C10 UNL     1      30.590   7.269  48.723  1.00  0.00     0.105 C 
HETATM    8  C11 UNL     1      31.729   7.396  47.733  1.00  0.00     0.134 C 
ENDROOT
BRANCH   8   9
HETATM    9  C12 UNL     1      32.254   6.090  47.322  1.00  0.00    -0.023 A 
HETATM   10  C13 UNL     1      32.292   5.057  48.245  1.00  0.00     0.013 A 
HETATM   11  C14 UNL     1      32.778   3.798  47.964  1.00  0.00     0.043 A 
HETATM   12  C15 UNL     1      33.266   3.506  46.697  1.00  0.00     0.116 A 
HETATM   13  F1  UNL     1      33.752   2.290  46.372  1.00  0.00    -0.206 F 
HETATM   14  C16 UNL     1      33.243   4.518  45.746  1.00  0.00     0.043 A 
HETATM   15  C17 UNL     1      32.743   5.752  46.099  1.00  0.00     0.013 A 
ENDBRANCH   8   9
BRANCH   1  16
HETATM   16  O1  UNL     1      33.954   7.818  48.394  1.00  0.00    -0.372 OA
HETATM   17  H1  UNL     1      34.342   8.123  49.254  1.00  0.00     0.212 HD
ENDBRANCH   1  16
BRANCH   6  18
HETATM   18  C4  UNL     1      28.165   6.428  48.233  1.00  0.00    -0.010 A 
HETATM   19  C5  UNL     1      26.985   7.104  48.325  1.00  0.00     0.013 A 
HETATM   20  C6  UNL     1      25.851   6.439  48.738  1.00  0.00     0.001 A 
HETATM   21  C7  UNL     1      25.863   5.090  49.070  1.00  0.00     0.000 A 
HETATM   22  C8  UNL     1      27.062   4.389  48.980  1.00  0.00     0.001 A 
HETATM   23  C9  UNL     1      28.175   5.078  48.564  1.00  0.00     0.013 A 
ENDBRANCH   6  18
TORSDOF 3
ENDMDL
