MODEL 1
REMARK VINA RESULT:      -7.4      0.000      0.000
REMARK  9 active torsions:
REMARK  status: ('A' for Active; 'I' for Inactive)
REMARK    1  A    between atoms: C3_3  and  N1_4 
REMARK    2  A    between atoms: N1_4  and  C4_5 
REMARK    3  A    between atoms: C11_16  and  C12_17 
REMARK    4  A    between atoms: C12_17  and  C14_19 
REMARK    5  A    between atoms: C14_19  and  O1_20 
REMARK    6  A    between atoms: O1_20  and  C15_21 
REMARK    7  A    between atoms: C15_21  and  C16_22 
REMARK    8  A    between atoms: C16_22  and  C17_23 
REMARK    9  A    between atoms: C17_23  and  N4_24 
ROOT
HETATM    1  C1  UNL     1      26.162   2.897  49.914  1.00  0.00     0.054 C 
HETATM    2  C2  UNL     1      25.107   3.212  50.888  1.00  0.00     0.009 A 
HETATM    3  C3  UNL     1      25.330   2.964  52.230  1.00  0.00     0.137 A 
HETATM    4  N2  UNL     1      24.350   3.276  53.065  1.00  0.00    -0.224 NA
HETATM    5  C10 UNL     1      23.206   3.801  52.643  1.00  0.00     0.235 A 
HETATM    6  N3  UNL     1      22.988   4.043  51.332  1.00  0.00    -0.245 NA
HETATM    7  C11 UNL     1      23.938   3.752  50.412  1.00  0.00     0.051 A 
ENDROOT
BRANCH   7   8
HETATM    8  C12 UNL     1      23.584   4.044  49.027  1.00  0.00     0.058 C 
HETATM    9  C13 UNL     1      23.193   5.517  48.957  1.00  0.00     0.018 C 
BRANCH   8  10
HETATM   10  C14 UNL     1      22.429   3.198  48.523  1.00  0.00     0.178 C 
BRANCH  10  11
HETATM   11  O1  UNL     1      22.608   1.862  48.748  1.00  0.00    -0.390 OA
BRANCH  11  12
HETATM   12  C15 UNL     1      21.467   1.162  49.031  1.00  0.00     0.169 C 
BRANCH  12  13
HETATM   13  C16 UNL     1      21.017   1.239  50.479  1.00  0.00     0.045 C 
BRANCH  13  14
HETATM   14  C17 UNL     1      22.130   0.570  51.269  1.00  0.00     0.119 C 
BRANCH  14  15
HETATM   15  N4  UNL     1      21.730  -0.006  52.496  1.00  0.00    -0.408 N 
HETATM   16  C18 UNL     1      20.349  -0.261  52.667  1.00  0.00     0.143 C 
HETATM   17  C19 UNL     1      19.953  -0.911  53.942  1.00  0.00     0.187 C 
HETATM   18  O2  UNL     1      20.960  -1.526  54.642  1.00  0.00    -0.388 OA
HETATM   19  C20 UNL     1      22.196  -0.938  54.583  1.00  0.00     0.187 C 
HETATM   20  C21 UNL     1      22.617  -0.926  53.116  1.00  0.00     0.143 C 
ENDBRANCH  14  15
ENDBRANCH  13  14
ENDBRANCH  12  13
ENDBRANCH  11  12
ENDBRANCH  10  11
ENDBRANCH   8  10
ENDBRANCH   7   8
BRANCH   3  21
HETATM   21  N1  UNL     1      26.565   2.404  52.638  1.00  0.00    -0.340 N 
HETATM   22  H4  UNL     1      27.326   3.073  52.941  1.00  0.00     0.167 HD
BRANCH  21  23
HETATM   23  C4  UNL     1      26.924   1.046  52.693  1.00  0.00     0.035 A 
HETATM   24  C5  UNL     1      26.139  -0.026  52.326  1.00  0.00     0.032 A 
HETATM   25  C6  UNL     1      26.524  -1.347  52.403  1.00  0.00     0.046 A 
HETATM   26  C7  UNL     1      27.780  -1.643  52.877  1.00  0.00     0.138 A 
HETATM   27  F1  UNL     1      28.208  -2.918  52.972  1.00  0.00    -0.204 F 
HETATM   28  C8  UNL     1      28.609  -0.633  53.257  1.00  0.00     0.074 A 
HETATM   29 CL1  UNL     1      30.199  -1.009  53.858  1.00  0.00    -0.081 Cl
HETATM   30  C9  UNL     1      28.165   0.658  53.156  1.00  0.00     0.056 A 
ENDBRANCH  21  23
ENDBRANCH   3  21
TORSDOF 9
ENDMDL
MODEL 2
REMARK VINA RESULT:      -7.4      1.063      1.643
REMARK  9 active torsions:
REMARK  status: ('A' for Active; 'I' for Inactive)
REMARK    1  A    between atoms: C3_3  and  N1_4 
REMARK    2  A    between atoms: N1_4  and  C4_5 
REMARK    3  A    between atoms: C11_16  and  C12_17 
REMARK    4  A    between atoms: C12_17  and  C14_19 
REMARK    5  A    between atoms: C14_19  and  O1_20 
REMARK    6  A    between atoms: O1_20  and  C15_21 
REMARK    7  A    between atoms: C15_21  and  C16_22 
REMARK    8  A    between atoms: C16_22  and  C17_23 
REMARK    9  A    between atoms: C17_23  and  N4_24 
ROOT
HETATM    1  C1  UNL     1      26.233   3.314  49.654  1.00  0.00     0.054 C 
HETATM    2  C2  UNL     1      25.232   3.248  50.727  1.00  0.00     0.009 A 
HETATM    3  C3  UNL     1      25.642   2.976  52.019  1.00  0.00     0.137 A 
HETATM    4  N2  UNL     1      24.699   2.939  52.950  1.00  0.00    -0.224 NA
HETATM    5  C10 UNL     1      23.420   3.151  52.664  1.00  0.00     0.235 A 
HETATM    6  N3  UNL     1      23.019   3.417  51.403  1.00  0.00    -0.245 NA
HETATM    7  C11 UNL     1      23.919   3.472  50.392  1.00  0.00     0.051 A 
ENDROOT
BRANCH   7   8
HETATM    8  C12 UNL     1      23.366   3.753  49.071  1.00  0.00     0.058 C 
HETATM    9  C13 UNL     1      22.463   4.975  49.205  1.00  0.00     0.018 C 
BRANCH   8  10
HETATM   10  C14 UNL     1      22.560   2.596  48.511  1.00  0.00     0.178 C 
BRANCH  10  11
HETATM   11  O1  UNL     1      21.318   2.489  49.072  1.00  0.00    -0.390 OA
BRANCH  11  12
HETATM   12  C15 UNL     1      20.871   1.210  49.257  1.00  0.00     0.169 C 
BRANCH  12  13
HETATM   13  C16 UNL     1      20.594   0.838  50.703  1.00  0.00     0.045 C 
BRANCH  13  14
HETATM   14  C17 UNL     1      21.855   0.131  51.173  1.00  0.00     0.119 C 
BRANCH  14  15
HETATM   15  N4  UNL     1      21.774  -0.444  52.462  1.00  0.00    -0.408 N 
HETATM   16  C18 UNL     1      22.929  -0.363  53.275  1.00  0.00     0.143 C 
HETATM   17  C19 UNL     1      22.810  -0.930  54.642  1.00  0.00     0.187 C 
HETATM   18  O2  UNL     1      21.534  -1.124  55.105  1.00  0.00    -0.388 OA
HETATM   19  C20 UNL     1      20.595  -1.496  54.177  1.00  0.00     0.187 C 
HETATM   20  C21 UNL     1      20.528  -0.380  53.138  1.00  0.00     0.143 C 
ENDBRANCH  14  15
ENDBRANCH  13  14
ENDBRANCH  12  13
ENDBRANCH  11  12
ENDBRANCH  10  11
ENDBRANCH   8  10
ENDBRANCH   7   8
BRANCH   3  21
HETATM   21  N1  UNL     1      27.016   2.757  52.281  1.00  0.00    -0.340 N 
HETATM   22  H4  UNL     1      27.669   3.582  52.177  1.00  0.00     0.167 HD
BRANCH  21  23
HETATM   23  C4  UNL     1      27.645   1.559  52.666  1.00  0.00     0.035 A 
HETATM   24  C5  UNL     1      28.857   1.440  53.311  1.00  0.00     0.032 A 
HETATM   25  C6  UNL     1      29.446   0.245  53.664  1.00  0.00     0.046 A 
HETATM   26  C7  UNL     1      28.795  -0.927  53.363  1.00  0.00     0.138 A 
HETATM   27  F1  UNL     1      29.326  -2.123  53.687  1.00  0.00    -0.204 F 
HETATM   28  C8  UNL     1      27.593  -0.884  52.727  1.00  0.00     0.074 A 
HETATM   29 CL1  UNL     1      26.771  -2.370  52.344  1.00  0.00    -0.081 Cl
HETATM   30  C9  UNL     1      27.063   0.337  52.403  1.00  0.00     0.056 A 
ENDBRANCH  21  23
ENDBRANCH   3  21
TORSDOF 9
ENDMDL
MODEL 3
REMARK VINA RESULT:      -7.4      3.851      6.621
REMARK  9 active torsions:
REMARK  status: ('A' for Active; 'I' for Inactive)
REMARK    1  A    between atoms: C3_3  and  N1_4 
REMARK    2  A    between atoms: N1_4  and  C4_5 
REMARK    3  A    between atoms: C11_16  and  C12_17 
REMARK    4  A    between atoms: C12_17  and  C14_19 
REMARK    5  A    between atoms: C14_19  and  O1_20 
REMARK    6  A    between atoms: O1_20  and  C15_21 
REMARK    7  A    between atoms: C15_21  and  C16_22 
REMARK    8  A    between atoms: C16_22  and  C17_23 
REMARK    9  A    between atoms: C17_23  and  N4_24 
ROOT
HETATM    1  C1  UNL     1      23.892   3.101  52.492  1.00  0.00     0.054 C 
HETATM    2  C2  UNL     1      22.579   3.503  51.969  1.00  0.00     0.009 A 
HETATM    3  C3  UNL     1      22.321   4.842  51.744  1.00  0.00     0.137 A 
HETATM    4  N2  UNL     1      21.124   5.148  51.263  1.00  0.00    -0.224 NA
HETATM    5  C10 UNL     1      20.212   4.218  51.005  1.00  0.00     0.235 A 
HETATM    6  N3  UNL     1      20.463   2.910  51.224  1.00  0.00    -0.245 NA
HETATM    7  C11 UNL     1      21.661   2.513  51.716  1.00  0.00     0.051 A 
ENDROOT
BRANCH   7   8
HETATM    8  C12 UNL     1      21.812   1.076  51.923  1.00  0.00     0.058 C 
HETATM    9  C13 UNL     1      20.942   0.372  50.887  1.00  0.00     0.018 C 
BRANCH   8  10
HETATM   10  C14 UNL     1      21.390   0.633  53.312  1.00  0.00     0.178 C 
BRANCH  10  11
HETATM   11  O1  UNL     1      22.439   0.215  54.082  1.00  0.00    -0.390 OA
BRANCH  11  12
HETATM   12  C15 UNL     1      23.351  -0.577  53.442  1.00  0.00     0.169 C 
BRANCH  12  13
HETATM   13  C16 UNL     1      24.731  -0.596  54.077  1.00  0.00     0.045 C 
BRANCH  13  14
HETATM   14  C17 UNL     1      25.665  -0.083  52.993  1.00  0.00     0.119 C 
BRANCH  14  15
HETATM   15  N4  UNL     1      26.882   0.463  53.461  1.00  0.00    -0.408 N 
HETATM   16  C18 UNL     1      27.259   1.727  52.948  1.00  0.00     0.143 C 
HETATM   17  C19 UNL     1      28.516   2.306  53.487  1.00  0.00     0.187 C 
HETATM   18  O2  UNL     1      28.974   1.764  54.660  1.00  0.00    -0.388 OA
HETATM   19  C20 UNL     1      28.762   0.422  54.840  1.00  0.00     0.187 C 
HETATM   20  C21 UNL     1      27.253   0.198  54.805  1.00  0.00     0.143 C 
ENDBRANCH  14  15
ENDBRANCH  13  14
ENDBRANCH  12  13
ENDBRANCH  11  12
ENDBRANCH  10  11
ENDBRANCH   8  10
ENDBRANCH   7   8
BRANCH   3  21
HETATM   21  N1  UNL     1      23.322   5.801  52.032  1.00  0.00    -0.340 N 
HETATM   22  H4  UNL     1      23.508   6.021  53.049  1.00  0.00     0.167 HD
BRANCH  21  23
HETATM   23  C4  UNL     1      24.118   6.521  51.124  1.00  0.00     0.035 A 
HETATM   24  C5  UNL     1      24.030   7.868  50.845  1.00  0.00     0.032 A 
HETATM   25  C6  UNL     1      24.824   8.538  49.938  1.00  0.00     0.046 A 
HETATM   26  C7  UNL     1      25.782   7.832  49.252  1.00  0.00     0.138 A 
HETATM   27  F1  UNL     1      26.587   8.439  48.355  1.00  0.00    -0.204 F 
HETATM   28  C8  UNL     1      25.926   6.498  49.478  1.00  0.00     0.074 A 
HETATM   29 CL1  UNL     1      27.139   5.606  48.606  1.00  0.00    -0.081 Cl
HETATM   30  C9  UNL     1      25.104   5.893  50.391  1.00  0.00     0.056 A 
ENDBRANCH  21  23
ENDBRANCH   3  21
TORSDOF 9
ENDMDL
MODEL 4
REMARK VINA RESULT:      -7.2      3.448      5.949
REMARK  9 active torsions:
REMARK  status: ('A' for Active; 'I' for Inactive)
REMARK    1  A    between atoms: C3_3  and  N1_4 
REMARK    2  A    between atoms: N1_4  and  C4_5 
REMARK    3  A    between atoms: C11_16  and  C12_17 
REMARK    4  A    between atoms: C12_17  and  C14_19 
REMARK    5  A    between atoms: C14_19  and  O1_20 
REMARK    6  A    between atoms: O1_20  and  C15_21 
REMARK    7  A    between atoms: C15_21  and  C16_22 
REMARK    8  A    between atoms: C16_22  and  C17_23 
REMARK    9  A    between atoms: C17_23  and  N4_24 
ROOT
HETATM    1  C1  UNL     1      23.406   4.138  52.362  1.00  0.00     0.054 C 
HETATM    2  C2  UNL     1      23.113   3.613  51.022  1.00  0.00     0.009 A 
HETATM    3  C3  UNL     1      21.991   2.827  50.833  1.00  0.00     0.137 A 
HETATM    4  N2  UNL     1      21.769   2.388  49.603  1.00  0.00    -0.224 NA
HETATM    5  C10 UNL     1      22.580   2.685  48.594  1.00  0.00     0.235 A 
HETATM    6  N3  UNL     1      23.675   3.452  48.777  1.00  0.00    -0.245 NA
HETATM    7  C11 UNL     1      23.975   3.940  50.004  1.00  0.00     0.051 A 
ENDROOT
BRANCH   7   8
HETATM    8  C12 UNL     1      25.190   4.745  50.082  1.00  0.00     0.058 C 
HETATM    9  C13 UNL     1      25.189   5.690  48.885  1.00  0.00     0.018 C 
BRANCH   8  10
HETATM   10  C14 UNL     1      26.455   3.907  50.054  1.00  0.00     0.178 C 
BRANCH  10  11
HETATM   11  O1  UNL     1      26.263   2.633  50.512  1.00  0.00    -0.390 OA
BRANCH  11  12
HETATM   12  C15 UNL     1      26.977   2.303  51.631  1.00  0.00     0.169 C 
BRANCH  12  13
HETATM   13  C16 UNL     1      26.132   1.952  52.842  1.00  0.00     0.045 C 
BRANCH  13  14
HETATM   14  C17 UNL     1      27.085   1.243  53.791  1.00  0.00     0.119 C 
BRANCH  14  15
HETATM   15  N4  UNL     1      27.468  -0.058  53.393  1.00  0.00    -0.408 N 
HETATM   16  C18 UNL     1      28.777  -0.475  53.731  1.00  0.00     0.143 C 
HETATM   17  C19 UNL     1      29.145  -1.861  53.346  1.00  0.00     0.187 C 
HETATM   18  O2  UNL     1      28.102  -2.702  53.055  1.00  0.00    -0.388 OA
HETATM   19  C20 UNL     1      27.012  -2.139  52.443  1.00  0.00     0.187 C 
HETATM   20  C21 UNL     1      26.471  -1.069  53.388  1.00  0.00     0.143 C 
ENDBRANCH  14  15
ENDBRANCH  13  14
ENDBRANCH  12  13
ENDBRANCH  11  12
ENDBRANCH  10  11
ENDBRANCH   8  10
ENDBRANCH   7   8
BRANCH   3  21
HETATM   21  N1  UNL     1      21.153   2.536  51.936  1.00  0.00    -0.340 N 
HETATM   22  H4  UNL     1      20.502   3.300  52.268  1.00  0.00     0.167 HD
BRANCH  21  23
HETATM   23  C4  UNL     1      21.070   1.339  52.670  1.00  0.00     0.035 A 
HETATM   24  C5  UNL     1      22.081   0.755  53.403  1.00  0.00     0.032 A 
HETATM   25  C6  UNL     1      21.964  -0.427  54.103  1.00  0.00     0.046 A 
HETATM   26  C7  UNL     1      20.760  -1.090  54.084  1.00  0.00     0.138 A 
HETATM   27  F1  UNL     1      20.591  -2.248  54.752  1.00  0.00    -0.204 F 
HETATM   28  C8  UNL     1      19.717  -0.569  53.380  1.00  0.00     0.074 A 
HETATM   29 CL1  UNL     1      18.194  -1.411  53.357  1.00  0.00    -0.081 Cl
HETATM   30  C9  UNL     1      19.901   0.609  52.706  1.00  0.00     0.056 A 
ENDBRANCH  21  23
ENDBRANCH   3  21
TORSDOF 9
ENDMDL
MODEL 5
REMARK VINA RESULT:      -7.1      2.664      5.676
REMARK  9 active torsions:
REMARK  status: ('A' for Active; 'I' for Inactive)
REMARK    1  A    between atoms: C3_3  and  N1_4 
REMARK    2  A    between atoms: N1_4  and  C4_5 
REMARK    3  A    between atoms: C11_16  and  C12_17 
REMARK    4  A    between atoms: C12_17  and  C14_19 
REMARK    5  A    between atoms: C14_19  and  O1_20 
REMARK    6  A    between atoms: O1_20  and  C15_21 
REMARK    7  A    between atoms: C15_21  and  C16_22 
REMARK    8  A    between atoms: C16_22  and  C17_23 
REMARK    9  A    between atoms: C17_23  and  N4_24 
ROOT
HETATM    1  C1  UNL     1      23.299   1.494  52.015  1.00  0.00     0.054 C 
HETATM    2  C2  UNL     1      24.277   2.251  51.222  1.00  0.00     0.009 A 
HETATM    3  C3  UNL     1      25.583   2.343  51.668  1.00  0.00     0.137 A 
HETATM    4  N2  UNL     1      26.425   3.030  50.910  1.00  0.00    -0.224 NA
HETATM    5  C10 UNL     1      26.042   3.606  49.776  1.00  0.00     0.235 A 
HETATM    6  N3  UNL     1      24.768   3.517  49.341  1.00  0.00    -0.245 NA
HETATM    7  C11 UNL     1      23.843   2.833  50.057  1.00  0.00     0.051 A 
ENDROOT
BRANCH   7   8
HETATM    8  C12 UNL     1      22.496   2.818  49.494  1.00  0.00     0.058 C 
HETATM    9  C13 UNL     1      22.621   2.434  48.023  1.00  0.00     0.018 C 
BRANCH   8  10
HETATM   10  C14 UNL     1      21.797   4.160  49.602  1.00  0.00     0.178 C 
BRANCH  10  11
HETATM   11  O1  UNL     1      21.681   4.601  50.890  1.00  0.00    -0.390 OA
BRANCH  11  12
HETATM   12  C15 UNL     1      21.974   5.923  51.082  1.00  0.00     0.169 C 
BRANCH  12  13
HETATM   13  C16 UNL     1      23.442   6.216  51.340  1.00  0.00     0.045 C 
BRANCH  13  14
HETATM   14  C17 UNL     1      23.684   7.578  50.709  1.00  0.00     0.119 C 
BRANCH  14  15
HETATM   15  N4  UNL     1      24.656   7.598  49.683  1.00  0.00    -0.408 N 
HETATM   16  C18 UNL     1      26.004   7.413  50.069  1.00  0.00     0.143 C 
HETATM   17  C19 UNL     1      27.004   7.389  48.973  1.00  0.00     0.187 C 
HETATM   18  O2  UNL     1      26.510   7.174  47.711  1.00  0.00    -0.388 OA
HETATM   19  C20 UNL     1      25.277   7.705  47.437  1.00  0.00     0.187 C 
HETATM   20  C21 UNL     1      24.290   7.073  48.416  1.00  0.00     0.143 C 
ENDBRANCH  14  15
ENDBRANCH  13  14
ENDBRANCH  12  13
ENDBRANCH  11  12
ENDBRANCH  10  11
ENDBRANCH   8  10
ENDBRANCH   7   8
BRANCH   3  21
HETATM   21  N1  UNL     1      25.949   1.714  52.882  1.00  0.00    -0.340 N 
HETATM   22  H4  UNL     1      25.254   1.749  53.678  1.00  0.00     0.167 HD
BRANCH  21  23
HETATM   23  C4  UNL     1      27.144   1.034  53.179  1.00  0.00     0.035 A 
HETATM   24  C5  UNL     1      28.299   1.590  53.685  1.00  0.00     0.032 A 
HETATM   25  C6  UNL     1      29.457   0.892  53.956  1.00  0.00     0.046 A 
HETATM   26  C7  UNL     1      29.484  -0.460  53.712  1.00  0.00     0.138 A 
HETATM   27  F1  UNL     1      30.589  -1.191  53.961  1.00  0.00    -0.204 F 
HETATM   28  C8  UNL     1      28.378  -1.076  53.213  1.00  0.00     0.074 A 
HETATM   29 CL1  UNL     1      28.416  -2.788  52.904  1.00  0.00    -0.081 Cl
HETATM   30  C9  UNL     1      27.261  -0.323  52.966  1.00  0.00     0.056 A 
ENDBRANCH  21  23
ENDBRANCH   3  21
TORSDOF 9
ENDMDL
MODEL 6
REMARK VINA RESULT:      -7.1      3.938      6.302
REMARK  9 active torsions:
REMARK  status: ('A' for Active; 'I' for Inactive)
REMARK    1  A    between atoms: C3_3  and  N1_4 
REMARK    2  A    between atoms: N1_4  and  C4_5 
REMARK    3  A    between atoms: C11_16  and  C12_17 
REMARK    4  A    between atoms: C12_17  and  C14_19 
REMARK    5  A    between atoms: C14_19  and  O1_20 
REMARK    6  A    between atoms: O1_20  and  C15_21 
REMARK    7  A    between atoms: C15_21  and  C16_22 
REMARK    8  A    between atoms: C16_22  and  C17_23 
REMARK    9  A    between atoms: C17_23  and  N4_24 
ROOT
HETATM    1  C1  UNL     1      22.775   2.830  49.061  1.00  0.00     0.054 C 
HETATM    2  C2  UNL     1      22.916   3.549  50.334  1.00  0.00     0.009 A 
HETATM    3  C3  UNL     1      23.611   4.744  50.363  1.00  0.00     0.137 A 
HETATM    4  N2  UNL     1      23.700   5.356  51.535  1.00  0.00    -0.224 NA
HETATM    5  C10 UNL     1      23.150   4.852  52.634  1.00  0.00     0.235 A 
HETATM    6  N3  UNL     1      22.471   3.686  52.607  1.00  0.00    -0.245 NA
HETATM    7  C11 UNL     1      22.335   2.997  51.449  1.00  0.00     0.051 A 
ENDROOT
BRANCH   7   8
HETATM    8  C12 UNL     1      21.593   1.744  51.546  1.00  0.00     0.058 C 
HETATM    9  C13 UNL     1      20.107   2.089  51.505  1.00  0.00     0.018 C 
BRANCH   8  10
HETATM   10  C14 UNL     1      21.891   0.979  52.822  1.00  0.00     0.178 C 
BRANCH  10  11
HETATM   11  O1  UNL     1      22.524  -0.212  52.596  1.00  0.00    -0.390 OA
BRANCH  11  12
HETATM   12  C15 UNL     1      23.703  -0.381  53.269  1.00  0.00     0.169 C 
BRANCH  12  13
HETATM   13  C16 UNL     1      24.608   0.838  53.280  1.00  0.00     0.045 C 
BRANCH  13  14
HETATM   14  C17 UNL     1      25.888   0.381  52.599  1.00  0.00     0.119 C 
BRANCH  14  15
HETATM   15  N4  UNL     1      27.082   0.756  53.255  1.00  0.00    -0.408 N 
HETATM   16  C18 UNL     1      27.602   2.038  52.962  1.00  0.00     0.143 C 
HETATM   17  C19 UNL     1      28.830   2.433  53.696  1.00  0.00     0.187 C 
HETATM   18  O2  UNL     1      29.118   1.706  54.823  1.00  0.00    -0.388 OA
HETATM   19  C20 UNL     1      28.793   0.375  54.793  1.00  0.00     0.187 C 
HETATM   20  C21 UNL     1      27.285   0.287  54.580  1.00  0.00     0.143 C 
ENDBRANCH  14  15
ENDBRANCH  13  14
ENDBRANCH  12  13
ENDBRANCH  11  12
ENDBRANCH  10  11
ENDBRANCH   8  10
ENDBRANCH   7   8
BRANCH   3  21
HETATM   21  N1  UNL     1      24.181   5.246  49.168  1.00  0.00    -0.340 N 
HETATM   22  H4  UNL     1      23.525   5.452  48.365  1.00  0.00     0.167 HD
BRANCH  21  23
HETATM   23  C4  UNL     1      25.536   5.508  48.897  1.00  0.00     0.035 A 
HETATM   24  C5  UNL     1      26.576   4.607  48.970  1.00  0.00     0.032 A 
HETATM   25  C6  UNL     1      27.896   4.905  48.706  1.00  0.00     0.046 A 
HETATM   26  C7  UNL     1      28.223   6.189  48.340  1.00  0.00     0.138 A 
HETATM   27  F1  UNL     1      29.498   6.535  48.069  1.00  0.00    -0.204 F 
HETATM   28  C8  UNL     1      27.245   7.131  48.248  1.00  0.00     0.074 A 
HETATM   29 CL1  UNL     1      27.661   8.757  47.787  1.00  0.00    -0.081 Cl
HETATM   30  C9  UNL     1      25.953   6.769  48.524  1.00  0.00     0.056 A 
ENDBRANCH  21  23
ENDBRANCH   3  21
TORSDOF 9
ENDMDL
MODEL 7
REMARK VINA RESULT:      -7.0      5.424      7.301
REMARK  9 active torsions:
REMARK  status: ('A' for Active; 'I' for Inactive)
REMARK    1  A    between atoms: C3_3  and  N1_4 
REMARK    2  A    between atoms: N1_4  and  C4_5 
REMARK    3  A    between atoms: C11_16  and  C12_17 
REMARK    4  A    between atoms: C12_17  and  C14_19 
REMARK    5  A    between atoms: C14_19  and  O1_20 
REMARK    6  A    between atoms: O1_20  and  C15_21 
REMARK    7  A    between atoms: C15_21  and  C16_22 
REMARK    8  A    between atoms: C16_22  and  C17_23 
REMARK    9  A    between atoms: C17_23  and  N4_24 
ROOT
HETATM    1  C1  UNL     1      26.862   3.993  49.347  1.00  0.00     0.054 C 
HETATM    2  C2  UNL     1      25.842   5.048  49.266  1.00  0.00     0.009 A 
HETATM    3  C3  UNL     1      26.241   6.371  49.219  1.00  0.00     0.137 A 
HETATM    4  N2  UNL     1      25.280   7.281  49.137  1.00  0.00    -0.224 NA
HETATM    5  C10 UNL     1      23.996   6.947  49.102  1.00  0.00     0.235 A 
HETATM    6  N3  UNL     1      23.606   5.655  49.147  1.00  0.00    -0.245 NA
HETATM    7  C11 UNL     1      24.525   4.663  49.233  1.00  0.00     0.051 A 
ENDROOT
BRANCH   7   8
HETATM    8  C12 UNL     1      23.985   3.308  49.289  1.00  0.00     0.058 C 
HETATM    9  C13 UNL     1      22.807   3.246  48.321  1.00  0.00     0.018 C 
BRANCH   8  10
HETATM   10  C14 UNL     1      23.510   2.921  50.678  1.00  0.00     0.178 C 
BRANCH  10  11
HETATM   11  O1  UNL     1      23.217   1.590  50.790  1.00  0.00    -0.390 OA
BRANCH  11  12
HETATM   12  C15 UNL     1      23.262   1.090  52.063  1.00  0.00     0.169 C 
BRANCH  12  13
HETATM   13  C16 UNL     1      24.403   1.620  52.912  1.00  0.00     0.045 C 
BRANCH  13  14
HETATM   14  C17 UNL     1      25.327   0.430  53.112  1.00  0.00     0.119 C 
BRANCH  14  15
HETATM   15  N4  UNL     1      26.638   0.752  53.530  1.00  0.00    -0.408 N 
HETATM   16  C18 UNL     1      27.171   1.984  53.082  1.00  0.00     0.143 C 
HETATM   17  C19 UNL     1      28.530   2.327  53.569  1.00  0.00     0.187 C 
HETATM   18  O2  UNL     1      28.970   1.632  54.667  1.00  0.00    -0.388 OA
HETATM   19  C20 UNL     1      28.569   0.326  54.766  1.00  0.00     0.187 C 
HETATM   20  C21 UNL     1      27.044   0.328  54.822  1.00  0.00     0.143 C 
ENDBRANCH  14  15
ENDBRANCH  13  14
ENDBRANCH  12  13
ENDBRANCH  11  12
ENDBRANCH  10  11
ENDBRANCH   8  10
ENDBRANCH   7   8
BRANCH   3  21
HETATM   21  N1  UNL     1      27.621   6.684  49.259  1.00  0.00    -0.340 N 
HETATM   22  H4  UNL     1      28.205   6.214  50.004  1.00  0.00     0.167 HD
BRANCH  21  23
HETATM   23  C4  UNL     1      28.335   7.561  48.423  1.00  0.00     0.035 A 
HETATM   24  C5  UNL     1      28.459   7.469  47.053  1.00  0.00     0.032 A 
HETATM   25  C6  UNL     1      29.177   8.345  46.267  1.00  0.00     0.046 A 
HETATM   26  C7  UNL     1      29.825   9.395  46.872  1.00  0.00     0.138 A 
HETATM   27  F1  UNL     1      30.540  10.282  46.150  1.00  0.00    -0.204 F 
HETATM   28  C8  UNL     1      29.745   9.548  48.222  1.00  0.00     0.074 A 
HETATM   29 CL1  UNL     1      30.568  10.878  48.985  1.00  0.00    -0.081 Cl
HETATM   30  C9  UNL     1      29.015   8.642  48.944  1.00  0.00     0.056 A 
ENDBRANCH  21  23
ENDBRANCH   3  21
TORSDOF 9
ENDMDL
MODEL 8
REMARK VINA RESULT:      -6.9      1.838      2.575
REMARK  9 active torsions:
REMARK  status: ('A' for Active; 'I' for Inactive)
REMARK    1  A    between atoms: C3_3  and  N1_4 
REMARK    2  A    between atoms: N1_4  and  C4_5 
REMARK    3  A    between atoms: C11_16  and  C12_17 
REMARK    4  A    between atoms: C12_17  and  C14_19 
REMARK    5  A    between atoms: C14_19  and  O1_20 
REMARK    6  A    between atoms: O1_20  and  C15_21 
REMARK    7  A    between atoms: C15_21  and  C16_22 
REMARK    8  A    between atoms: C16_22  and  C17_23 
REMARK    9  A    between atoms: C17_23  and  N4_24 
ROOT
HETATM    1  C1  UNL     1      26.104   3.454  49.711  1.00  0.00     0.054 C 
HETATM    2  C2  UNL     1      25.145   3.811  50.766  1.00  0.00     0.009 A 
HETATM    3  C3  UNL     1      24.787   2.861  51.704  1.00  0.00     0.137 A 
HETATM    4  N2  UNL     1      23.926   3.240  52.638  1.00  0.00    -0.224 NA
HETATM    5  C10 UNL     1      23.427   4.469  52.678  1.00  0.00     0.235 A 
HETATM    6  N3  UNL     1      23.776   5.397  51.762  1.00  0.00    -0.245 NA
HETATM    7  C11 UNL     1      24.649   5.092  50.773  1.00  0.00     0.051 A 
ENDROOT
BRANCH   7   8
HETATM    8  C12 UNL     1      24.940   6.171  49.834  1.00  0.00     0.058 C 
HETATM    9  C13 UNL     1      24.499   7.476  50.489  1.00  0.00     0.018 C 
BRANCH   8  10
HETATM   10  C14 UNL     1      24.218   6.010  48.509  1.00  0.00     0.178 C 
BRANCH  10  11
HETATM   11  O1  UNL     1      22.941   5.542  48.649  1.00  0.00    -0.390 OA
BRANCH  11  12
HETATM   12  C15 UNL     1      22.596   4.528  47.798  1.00  0.00     0.169 C 
BRANCH  12  13
HETATM   13  C16 UNL     1      22.324   3.197  48.476  1.00  0.00     0.045 C 
BRANCH  13  14
HETATM   14  C17 UNL     1      21.395   3.530  49.633  1.00  0.00     0.119 C 
BRANCH  14  15
HETATM   15  N4  UNL     1      21.265   2.516  50.608  1.00  0.00    -0.408 N 
HETATM   16  C18 UNL     1      20.261   2.691  51.589  1.00  0.00     0.143 C 
HETATM   17  C19 UNL     1      20.108   1.593  52.576  1.00  0.00     0.187 C 
HETATM   18  O2  UNL     1      20.669   0.390  52.231  1.00  0.00    -0.388 OA
HETATM   19  C20 UNL     1      21.834   0.441  51.510  1.00  0.00     0.187 C 
HETATM   20  C21 UNL     1      21.523   1.178  50.210  1.00  0.00     0.143 C 
ENDBRANCH  14  15
ENDBRANCH  13  14
ENDBRANCH  12  13
ENDBRANCH  11  12
ENDBRANCH  10  11
ENDBRANCH   8  10
ENDBRANCH   7   8
BRANCH   3  21
HETATM   21  N1  UNL     1      25.344   1.562  51.626  1.00  0.00    -0.340 N 
HETATM   22  H4  UNL     1      24.871   0.868  50.983  1.00  0.00     0.167 HD
BRANCH  21  23
HETATM   23  C4  UNL     1      26.465   1.057  52.308  1.00  0.00     0.035 A 
HETATM   24  C5  UNL     1      27.388   1.789  53.024  1.00  0.00     0.032 A 
HETATM   25  C6  UNL     1      28.482   1.259  53.672  1.00  0.00     0.046 A 
HETATM   26  C7  UNL     1      28.689  -0.099  53.616  1.00  0.00     0.138 A 
HETATM   27  F1  UNL     1      29.742  -0.670  54.234  1.00  0.00    -0.204 F 
HETATM   28  C8  UNL     1      27.816  -0.884  52.927  1.00  0.00     0.074 A 
HETATM   29 CL1  UNL     1      28.081  -2.602  52.856  1.00  0.00    -0.081 Cl
HETATM   30  C9  UNL     1      26.749  -0.292  52.305  1.00  0.00     0.056 A 
ENDBRANCH  21  23
ENDBRANCH   3  21
TORSDOF 9
ENDMDL
MODEL 9
REMARK VINA RESULT:      -6.8      2.083      4.903
REMARK  9 active torsions:
REMARK  status: ('A' for Active; 'I' for Inactive)
REMARK    1  A    between atoms: C3_3  and  N1_4 
REMARK    2  A    between atoms: N1_4  and  C4_5 
REMARK    3  A    between atoms: C11_16  and  C12_17 
REMARK    4  A    between atoms: C12_17  and  C14_19 
REMARK    5  A    between atoms: C14_19  and  O1_20 
REMARK    6  A    between atoms: O1_20  and  C15_21 
REMARK    7  A    between atoms: C15_21  and  C16_22 
REMARK    8  A    between atoms: C16_22  and  C17_23 
REMARK    9  A    between atoms: C17_23  and  N4_24 
ROOT
HETATM    1  C1  UNL     1      23.701   2.640  51.611  1.00  0.00     0.054 C 
HETATM    2  C2  UNL     1      23.354   1.346  52.214  1.00  0.00     0.009 A 
HETATM    3  C3  UNL     1      24.214   0.776  53.134  1.00  0.00     0.137 A 
HETATM    4  N2  UNL     1      23.847  -0.386  53.654  1.00  0.00    -0.224 NA
HETATM    5  C10 UNL     1      22.710  -0.982  53.313  1.00  0.00     0.235 A 
HETATM    6  N3  UNL     1      21.870  -0.426  52.415  1.00  0.00    -0.245 NA
HETATM    7  C11 UNL     1      22.171   0.761  51.835  1.00  0.00     0.051 A 
ENDROOT
BRANCH   7   8
HETATM    8  C12 UNL     1      21.194   1.256  50.870  1.00  0.00     0.058 C 
HETATM    9  C13 UNL     1      19.852   0.615  51.210  1.00  0.00     0.018 C 
BRANCH   8  10
HETATM   10  C14 UNL     1      21.559   0.918  49.436  1.00  0.00     0.178 C 
BRANCH  10  11
HETATM   11  O1  UNL     1      20.763   1.548  48.520  1.00  0.00    -0.390 OA
BRANCH  11  12
HETATM   12  C15 UNL     1      20.971   2.894  48.396  1.00  0.00     0.169 C 
BRANCH  12  13
HETATM   13  C16 UNL     1      22.410   3.291  48.117  1.00  0.00     0.045 C 
BRANCH  13  14
HETATM   14  C17 UNL     1      22.415   4.810  48.182  1.00  0.00     0.119 C 
BRANCH  14  15
HETATM   15  N4  UNL     1      23.286   5.365  49.148  1.00  0.00    -0.408 N 
HETATM   16  C18 UNL     1      24.668   5.112  48.988  1.00  0.00     0.143 C 
HETATM   17  C19 UNL     1      25.571   5.742  49.984  1.00  0.00     0.187 C 
HETATM   18  O2  UNL     1      25.039   6.778  50.708  1.00  0.00    -0.388 OA
HETATM   19  C20 UNL     1      23.708   6.687  51.022  1.00  0.00     0.187 C 
HETATM   20  C21 UNL     1      22.941   6.624  49.704  1.00  0.00     0.143 C 
ENDBRANCH  14  15
ENDBRANCH  13  14
ENDBRANCH  12  13
ENDBRANCH  11  12
ENDBRANCH  10  11
ENDBRANCH   8  10
ENDBRANCH   7   8
BRANCH   3  21
HETATM   21  N1  UNL     1      25.416   1.445  53.470  1.00  0.00    -0.340 N 
HETATM   22  H4  UNL     1      25.349   2.470  53.720  1.00  0.00     0.167 HD
BRANCH  21  23
HETATM   23  C4  UNL     1      26.719   0.917  53.513  1.00  0.00     0.035 A 
HETATM   24  C5  UNL     1      27.876   1.611  53.794  1.00  0.00     0.032 A 
HETATM   25  C6  UNL     1      29.139   1.059  53.817  1.00  0.00     0.046 A 
HETATM   26  C7  UNL     1      29.279  -0.280  53.544  1.00  0.00     0.138 A 
HETATM   27  F1  UNL     1      30.491  -0.871  53.554  1.00  0.00    -0.204 F 
HETATM   28  C8  UNL     1      28.178  -1.027  53.258  1.00  0.00     0.074 A 
HETATM   29 CL1  UNL     1      28.359  -2.723  52.910  1.00  0.00    -0.081 Cl
HETATM   30  C9  UNL     1      26.952  -0.417  53.251  1.00  0.00     0.056 A 
ENDBRANCH  21  23
ENDBRANCH   3  21
TORSDOF 9
ENDMDL
