MODEL 1
REMARK VINA RESULT:      -8.0      0.000      0.000
REMARK  2 active torsions:
REMARK  status: ('A' for Active; 'I' for Inactive)
REMARK    1  A    between atoms: C2_2  and  C3_3 
REMARK       I    between atoms: C3_3  and  N1_5 
REMARK    2  A    between atoms: C8_12  and  C9_13 
ROOT
HETATM    1  C3  UNL     1      28.083  -0.313  53.557  1.00  0.00     0.239 C 
HETATM    2  O1  UNL     1      27.889  -1.551  53.627  1.00  0.00    -0.269 OA
HETATM    3  N1  UNL     1      26.889   0.383  53.220  1.00  0.00    -0.346 N 
HETATM    4  C4  UNL     1      25.773  -0.575  53.054  1.00  0.00     0.135 C 
HETATM    5  C5  UNL     1      24.646   0.323  52.652  1.00  0.00     0.059 C 
HETATM    6  C6  UNL     1      23.261  -0.214  52.925  1.00  0.00     0.186 C 
HETATM    7  O2  UNL     1      22.439   0.592  52.157  1.00  0.00    -0.335 OA
HETATM    8  C7  UNL     1      21.110   0.669  51.988  1.00  0.00     0.171 C 
HETATM    9  N2  UNL     1      20.474  -0.073  52.811  1.00  0.00    -0.279 NA
HETATM   10  C8  UNL     1      20.734   1.596  50.890  1.00  0.00     0.176 C 
HETATM   11  N3  UNL     1      19.335   1.896  50.892  1.00  0.00    -0.258 NA
HETATM   12  C10 UNL     1      18.778   2.998  51.194  1.00  0.00     0.198 C 
HETATM   13  N4  UNL     1      19.624   4.096  51.583  1.00  0.00    -0.379 N 
HETATM   14  C11 UNL     1      20.929   4.148  50.927  1.00  0.00     0.180 C 
HETATM   15  C12 UNL     1      21.594   2.833  50.970  1.00  0.00     0.089 C 
HETATM   16  N5  UNL     1      22.777   2.409  51.058  1.00  0.00    -0.180 NA
HETATM   17  N6  UNL     1      23.975   3.069  51.159  1.00  0.00    -0.286 N 
HETATM   18  C13 UNL     1      24.654   3.081  49.868  1.00  0.00     0.175 C 
HETATM   19  C14 UNL     1      24.168   3.535  52.516  1.00  0.00     0.312 C 
HETATM   20  O3  UNL     1      24.132   2.567  53.457  1.00  0.00    -0.363 OA
HETATM   21  C15 UNL     1      24.988   1.551  53.470  1.00  0.00     0.149 C 
HETATM   22  C16 UNL     1      26.388   1.753  52.979  1.00  0.00     0.158 C 
HETATM   23  H9  UNL     1      21.065  -0.616  53.476  1.00  0.00     0.189 HD
HETATM   24  H13 UNL     1      19.271   4.788  52.299  1.00  0.00     0.160 HD
ENDROOT
BRANCH   1  25
HETATM   25  C2  UNL     1      29.417   0.217  53.812  1.00  0.00     0.048 C 
HETATM   26  C1  UNL     1      30.209  -0.834  53.833  1.00  0.00     0.037 C 
ENDBRANCH   1  25
BRANCH  10  27
HETATM   27  C9  UNL     1      21.107   0.984  49.532  1.00  0.00     0.163 C 
HETATM   28 CL1  UNL     1      20.724   2.093  48.208  1.00  0.00    -0.127 Cl
ENDBRANCH  10  27
TORSDOF 2
ENDMDL
MODEL 2
REMARK VINA RESULT:      -7.5      3.786      6.069
REMARK  2 active torsions:
REMARK  status: ('A' for Active; 'I' for Inactive)
REMARK    1  A    between atoms: C2_2  and  C3_3 
REMARK       I    between atoms: C3_3  and  N1_5 
REMARK    2  A    between atoms: C8_12  and  C9_13 
ROOT
HETATM    1  C3  UNL     1      23.417   0.030  53.082  1.00  0.00     0.239 C 
HETATM    2  O1  UNL     1      24.543  -0.203  53.587  1.00  0.00    -0.269 OA
HETATM    3  N1  UNL     1      23.468   1.128  52.179  1.00  0.00    -0.346 N 
HETATM    4  C4  UNL     1      24.845   1.664  52.110  1.00  0.00     0.135 C 
HETATM    5  C5  UNL     1      24.683   2.824  51.178  1.00  0.00     0.059 C 
HETATM    6  C6  UNL     1      25.939   3.260  50.462  1.00  0.00     0.186 C 
HETATM    7  O2  UNL     1      25.623   4.518  49.979  1.00  0.00    -0.335 OA
HETATM    8  C7  UNL     1      26.280   5.414  49.227  1.00  0.00     0.171 C 
HETATM    9  N2  UNL     1      27.370   4.946  48.756  1.00  0.00    -0.279 NA
HETATM   10  C8  UNL     1      25.561   6.712  49.144  1.00  0.00     0.176 C 
HETATM   11  N3  UNL     1      26.103   7.564  48.130  1.00  0.00    -0.258 NA
HETATM   12  C10 UNL     1      25.568   7.891  47.024  1.00  0.00     0.198 C 
HETATM   13  N4  UNL     1      24.264   7.361  46.724  1.00  0.00    -0.379 N 
HETATM   14  C11 UNL     1      23.385   7.162  47.874  1.00  0.00     0.180 C 
HETATM   15  C12 UNL     1      24.087   6.452  48.959  1.00  0.00     0.089 C 
HETATM   16  N5  UNL     1      23.782   5.621  49.854  1.00  0.00    -0.180 NA
HETATM   17  N6  UNL     1      22.590   5.020  50.171  1.00  0.00    -0.286 N 
HETATM   18  C13 UNL     1      21.993   5.669  51.334  1.00  0.00     0.175 C 
HETATM   19  C14 UNL     1      22.321   3.941  49.245  1.00  0.00     0.312 C 
HETATM   20  O3  UNL     1      23.277   2.989  49.192  1.00  0.00    -0.363 OA
HETATM   21  C15 UNL     1      23.624   2.265  50.250  1.00  0.00     0.149 C 
HETATM   22  C16 UNL     1      22.597   1.917  51.281  1.00  0.00     0.158 C 
HETATM   23  H9  UNL     1      27.587   3.960  49.017  1.00  0.00     0.189 HD
HETATM   24  H13 UNL     1      24.015   7.149  45.719  1.00  0.00     0.160 HD
ENDROOT
BRANCH   1  25
HETATM   25  C2  UNL     1      22.279  -0.799  53.462  1.00  0.00     0.048 C 
HETATM   26  C1  UNL     1      22.338  -0.890  54.773  1.00  0.00     0.037 C 
ENDBRANCH   1  25
BRANCH  10  27
HETATM   27  C9  UNL     1      25.632   7.442  50.493  1.00  0.00     0.163 C 
HETATM   28 CL1  UNL     1      26.783   8.784  50.431  1.00  0.00    -0.127 Cl
ENDBRANCH  10  27
TORSDOF 2
ENDMDL
MODEL 3
REMARK VINA RESULT:      -7.4      8.720     10.338
REMARK  2 active torsions:
REMARK  status: ('A' for Active; 'I' for Inactive)
REMARK    1  A    between atoms: C2_2  and  C3_3 
REMARK       I    between atoms: C3_3  and  N1_5 
REMARK    2  A    between atoms: C8_12  and  C9_13 
ROOT
HETATM    1  C3  UNL     1      33.616   3.400  46.968  1.00  0.00     0.239 C 
HETATM    2  O1  UNL     1      32.825   2.424  46.950  1.00  0.00    -0.269 OA
HETATM    3  N1  UNL     1      32.931   4.619  47.230  1.00  0.00    -0.346 N 
HETATM    4  C4  UNL     1      31.485   4.363  47.405  1.00  0.00     0.135 C 
HETATM    5  C5  UNL     1      30.943   5.743  47.606  1.00  0.00     0.059 C 
HETATM    6  C6  UNL     1      29.626   5.821  48.341  1.00  0.00     0.186 C 
HETATM    7  O2  UNL     1      29.177   7.103  48.077  1.00  0.00    -0.335 OA
HETATM    8  C7  UNL     1      28.105   7.810  48.467  1.00  0.00     0.171 C 
HETATM    9  N2  UNL     1      27.434   7.211  49.373  1.00  0.00    -0.279 NA
HETATM   10  C8  UNL     1      27.987   9.100  47.740  1.00  0.00     0.176 C 
HETATM   11  N3  UNL     1      27.024   9.971  48.341  1.00  0.00    -0.258 NA
HETATM   12  C10 UNL     1      27.245  11.049  48.980  1.00  0.00     0.198 C 
HETATM   13  N4  UNL     1      28.612  11.473  49.133  1.00  0.00    -0.379 N 
HETATM   14  C11 UNL     1      29.502  11.144  48.022  1.00  0.00     0.180 C 
HETATM   15  C12 UNL     1      29.352   9.731  47.626  1.00  0.00     0.089 C 
HETATM   16  N5  UNL     1      30.101   8.824  47.177  1.00  0.00    -0.180 NA
HETATM   17  N6  UNL     1      31.438   8.814  46.873  1.00  0.00    -0.286 N 
HETATM   18  C13 UNL     1      31.628   8.929  45.431  1.00  0.00     0.175 C 
HETATM   19  C14 UNL     1      32.218   8.693  48.086  1.00  0.00     0.312 C 
HETATM   20  O3  UNL     1      31.942   7.601  48.830  1.00  0.00    -0.363 OA
HETATM   21  C15 UNL     1      32.095   6.364  48.368  1.00  0.00     0.149 C 
HETATM   22  C16 UNL     1      33.186   6.068  47.387  1.00  0.00     0.158 C 
HETATM   23  H9  UNL     1      27.807   6.283  49.670  1.00  0.00     0.189 HD
HETATM   24  H13 UNL     1      28.894  11.985  50.013  1.00  0.00     0.160 HD
ENDROOT
BRANCH   1  25
HETATM   25  C2  UNL     1      35.036   3.173  46.732  1.00  0.00     0.048 C 
HETATM   26  C1  UNL     1      35.259   3.610  45.512  1.00  0.00     0.037 C 
ENDBRANCH   1  25
BRANCH  10  27
HETATM   27  C9  UNL     1      27.582   8.848  46.281  1.00  0.00     0.163 C 
HETATM   28 CL1  UNL     1      25.914   8.270  46.174  1.00  0.00    -0.127 Cl
ENDBRANCH  10  27
TORSDOF 2
ENDMDL
MODEL 4
REMARK VINA RESULT:      -7.1      3.818      5.588
REMARK  2 active torsions:
REMARK  status: ('A' for Active; 'I' for Inactive)
REMARK    1  A    between atoms: C2_2  and  C3_3 
REMARK       I    between atoms: C3_3  and  N1_5 
REMARK    2  A    between atoms: C8_12  and  C9_13 
ROOT
HETATM    1  C3  UNL     1      28.576   6.744  47.731  1.00  0.00     0.239 C 
HETATM    2  O1  UNL     1      29.406   5.803  47.676  1.00  0.00    -0.269 OA
HETATM    3  N1  UNL     1      27.363   6.333  48.352  1.00  0.00    -0.346 N 
HETATM    4  C4  UNL     1      27.452   4.911  48.748  1.00  0.00     0.135 C 
HETATM    5  C5  UNL     1      26.091   4.657  49.314  1.00  0.00     0.059 C 
HETATM    6  C6  UNL     1      25.999   3.507  50.289  1.00  0.00     0.186 C 
HETATM    7  O2  UNL     1      24.641   3.253  50.370  1.00  0.00    -0.335 OA
HETATM    8  C7  UNL     1      23.899   2.396  51.089  1.00  0.00     0.171 C 
HETATM    9  N2  UNL     1      24.587   1.784  51.973  1.00  0.00    -0.279 NA
HETATM   10  C8  UNL     1      22.476   2.391  50.663  1.00  0.00     0.176 C 
HETATM   11  N3  UNL     1      21.637   1.703  51.596  1.00  0.00    -0.258 NA
HETATM   12  C10 UNL     1      20.768   2.206  52.377  1.00  0.00     0.198 C 
HETATM   13  N4  UNL     1      20.580   3.633  52.344  1.00  0.00    -0.379 N 
HETATM   14  C11 UNL     1      20.772   4.264  51.040  1.00  0.00     0.180 C 
HETATM   15  C12 UNL     1      22.027   3.809  50.414  1.00  0.00     0.089 C 
HETATM   16  N5  UNL     1      22.906   4.307  49.662  1.00  0.00    -0.180 NA
HETATM   17  N6  UNL     1      23.030   5.557  49.110  1.00  0.00    -0.286 N 
HETATM   18  C13 UNL     1      22.625   5.531  47.709  1.00  0.00     0.175 C 
HETATM   19  C14 UNL     1      23.524   6.487  50.103  1.00  0.00     0.312 C 
HETATM   20  O3  UNL     1      24.706   6.146  50.660  1.00  0.00    -0.363 OA
HETATM   21  C15 UNL     1      25.818   6.006  49.946  1.00  0.00     0.149 C 
HETATM   22  C16 UNL     1      26.035   6.859  48.735  1.00  0.00     0.158 C 
HETATM   23  H9  UNL     1      25.599   2.032  52.008  1.00  0.00     0.189 HD
HETATM   24  H13 UNL     1      20.320   4.137  53.236  1.00  0.00     0.160 HD
ENDROOT
BRANCH   1  25
HETATM   25  C2  UNL     1      28.937   8.047  47.187  1.00  0.00     0.048 C 
HETATM   26  C1  UNL     1      28.351   8.106  46.010  1.00  0.00     0.037 C 
ENDBRANCH   1  25
BRANCH  10  27
HETATM   27  C9  UNL     1      22.339   1.721  49.289  1.00  0.00     0.163 C 
HETATM   28 CL1  UNL     1      20.699   1.105  49.040  1.00  0.00    -0.127 Cl
ENDBRANCH  10  27
TORSDOF 2
ENDMDL
MODEL 5
REMARK VINA RESULT:      -7.0     10.055     12.958
REMARK  2 active torsions:
REMARK  status: ('A' for Active; 'I' for Inactive)
REMARK    1  A    between atoms: C2_2  and  C3_3 
REMARK       I    between atoms: C3_3  and  N1_5 
REMARK    2  A    between atoms: C8_12  and  C9_13 
ROOT
HETATM    1  C3  UNL     1      28.966  12.787  47.118  1.00  0.00     0.239 C 
HETATM    2  O1  UNL     1      28.572  12.909  48.304  1.00  0.00    -0.269 OA
HETATM    3  N1  UNL     1      29.508  11.494  46.879  1.00  0.00    -0.346 N 
HETATM    4  C4  UNL     1      29.441  10.680  48.112  1.00  0.00     0.135 C 
HETATM    5  C5  UNL     1      30.099   9.406  47.684  1.00  0.00     0.059 C 
HETATM    6  C6  UNL     1      29.730   8.183  48.489  1.00  0.00     0.186 C 
HETATM    7  O2  UNL     1      30.707   7.262  48.155  1.00  0.00    -0.335 OA
HETATM    8  C7  UNL     1      30.925   5.980  48.486  1.00  0.00     0.171 C 
HETATM    9  N2  UNL     1      29.951   5.476  49.141  1.00  0.00    -0.279 NA
HETATM   10  C8  UNL     1      32.241   5.490  48.001  1.00  0.00     0.176 C 
HETATM   11  N3  UNL     1      32.356   4.067  48.101  1.00  0.00    -0.258 NA
HETATM   12  C10 UNL     1      32.376   3.221  47.151  1.00  0.00     0.198 C 
HETATM   13  N4  UNL     1      32.273   3.719  45.804  1.00  0.00    -0.379 N 
HETATM   14  C11 UNL     1      32.883   5.025  45.567  1.00  0.00     0.180 C 
HETATM   15  C12 UNL     1      32.472   5.995  46.599  1.00  0.00     0.089 C 
HETATM   16  N5  UNL     1      32.243   7.232  46.651  1.00  0.00    -0.180 NA
HETATM   17  N6  UNL     1      32.290   8.208  45.688  1.00  0.00    -0.286 N 
HETATM   18  C13 UNL     1      33.518   8.984  45.817  1.00  0.00     0.175 C 
HETATM   19  C14 UNL     1      31.103   8.143  44.862  1.00  0.00     0.312 C 
HETATM   20  O3  UNL     1      29.938   8.264  45.535  1.00  0.00    -0.363 OA
HETATM   21  C15 UNL     1      29.631   9.344  46.245  1.00  0.00     0.149 C 
HETATM   22  C16 UNL     1      30.121  10.687  45.801  1.00  0.00     0.158 C 
HETATM   23  H9  UNL     1      29.149   6.118  49.319  1.00  0.00     0.189 HD
HETATM   24  H13 UNL     1      31.778   3.134  45.077  1.00  0.00     0.160 HD
ENDROOT
BRANCH   1  25
HETATM   25  C2  UNL     1      28.826  13.912  46.201  1.00  0.00     0.048 C 
HETATM   26  C1  UNL     1      29.314  14.949  46.847  1.00  0.00     0.037 C 
ENDBRANCH   1  25
BRANCH  10  27
HETATM   27  C9  UNL     1      33.375   6.135  48.810  1.00  0.00     0.163 C 
HETATM   28 CL1  UNL     1      34.902   5.276  48.563  1.00  0.00    -0.127 Cl
ENDBRANCH  10  27
TORSDOF 2
ENDMDL
MODEL 6
REMARK VINA RESULT:      -6.9      2.447      3.766
REMARK  2 active torsions:
REMARK  status: ('A' for Active; 'I' for Inactive)
REMARK    1  A    between atoms: C2_2  and  C3_3 
REMARK       I    between atoms: C3_3  and  N1_5 
REMARK    2  A    between atoms: C8_12  and  C9_13 
ROOT
HETATM    1  C3  UNL     1      26.593   1.204  53.471  1.00  0.00     0.239 C 
HETATM    2  O1  UNL     1      26.506   1.709  54.617  1.00  0.00    -0.269 OA
HETATM    3  N1  UNL     1      25.678   1.810  52.565  1.00  0.00    -0.346 N 
HETATM    4  C4  UNL     1      24.898   2.859  53.257  1.00  0.00     0.135 C 
HETATM    5  C5  UNL     1      23.971   3.325  52.178  1.00  0.00     0.059 C 
HETATM    6  C6  UNL     1      23.423   4.721  52.353  1.00  0.00     0.186 C 
HETATM    7  O2  UNL     1      22.356   4.767  51.473  1.00  0.00    -0.335 OA
HETATM    8  C7  UNL     1      21.489   5.728  51.117  1.00  0.00     0.171 C 
HETATM    9  N2  UNL     1      21.804   6.868  51.598  1.00  0.00    -0.279 NA
HETATM   10  C8  UNL     1      20.394   5.206  50.258  1.00  0.00     0.176 C 
HETATM   11  N3  UNL     1      19.638   6.259  49.651  1.00  0.00    -0.258 NA
HETATM   12  C10 UNL     1      19.619   6.593  48.424  1.00  0.00     0.198 C 
HETATM   13  N4  UNL     1      20.442   5.845  47.510  1.00  0.00    -0.379 N 
HETATM   14  C11 UNL     1      20.611   4.429  47.829  1.00  0.00     0.180 C 
HETATM   15  C12 UNL     1      20.971   4.247  49.248  1.00  0.00     0.089 C 
HETATM   16  N5  UNL     1      21.679   3.449  49.916  1.00  0.00    -0.180 NA
HETATM   17  N6  UNL     1      22.442   2.373  49.537  1.00  0.00    -0.286 N 
HETATM   18  C13 UNL     1      21.736   1.129  49.826  1.00  0.00     0.175 C 
HETATM   19  C14 UNL     1      23.696   2.830  48.978  1.00  0.00     0.312 C 
HETATM   20  O3  UNL     1      24.433   3.607  49.800  1.00  0.00    -0.363 OA
HETATM   21  C15 UNL     1      24.881   3.180  50.976  1.00  0.00     0.149 C 
HETATM   22  C16 UNL     1      25.244   1.739  51.152  1.00  0.00     0.158 C 
HETATM   23  H9  UNL     1      22.667   6.887  52.182  1.00  0.00     0.189 HD
HETATM   24  H13 UNL     1      20.868   6.340  46.680  1.00  0.00     0.160 HD
ENDROOT
BRANCH   1  25
HETATM   25  C2  UNL     1      27.554   0.134  53.232  1.00  0.00     0.048 C 
HETATM   26  C1  UNL     1      26.830  -0.950  53.060  1.00  0.00     0.037 C 
ENDBRANCH   1  25
BRANCH  10  27
HETATM   27  C9  UNL     1      19.444   4.331  51.087  1.00  0.00     0.163 C 
HETATM   28 CL1  UNL     1      17.819   4.314  50.388  1.00  0.00    -0.127 Cl
ENDBRANCH  10  27
TORSDOF 2
ENDMDL
MODEL 7
REMARK VINA RESULT:      -6.9      9.063     10.560
REMARK  2 active torsions:
REMARK  status: ('A' for Active; 'I' for Inactive)
REMARK    1  A    between atoms: C2_2  and  C3_3 
REMARK       I    between atoms: C3_3  and  N1_5 
REMARK    2  A    between atoms: C8_12  and  C9_13 
ROOT
HETATM    1  C3  UNL     1      34.284   5.377  48.216  1.00  0.00     0.239 C 
HETATM    2  O1  UNL     1      34.931   5.845  49.184  1.00  0.00    -0.269 OA
HETATM    3  N1  UNL     1      33.085   6.109  47.988  1.00  0.00    -0.346 N 
HETATM    4  C4  UNL     1      32.967   7.208  48.971  1.00  0.00     0.135 C 
HETATM    5  C5  UNL     1      31.644   7.809  48.614  1.00  0.00     0.059 C 
HETATM    6  C6  UNL     1      31.452   9.247  49.030  1.00  0.00     0.186 C 
HETATM    7  O2  UNL     1      30.085   9.439  48.930  1.00  0.00    -0.335 OA
HETATM    8  C7  UNL     1      29.281  10.498  49.111  1.00  0.00     0.171 C 
HETATM    9  N2  UNL     1      29.936  11.579  49.285  1.00  0.00    -0.279 NA
HETATM   10  C8  UNL     1      27.843  10.127  49.062  1.00  0.00     0.176 C 
HETATM   11  N3  UNL     1      26.993  11.275  48.972  1.00  0.00    -0.258 NA
HETATM   12  C10 UNL     1      26.304  11.654  47.972  1.00  0.00     0.198 C 
HETATM   13  N4  UNL     1      26.360  10.858  46.774  1.00  0.00    -0.379 N 
HETATM   14  C11 UNL     1      26.530   9.421  46.981  1.00  0.00     0.180 C 
HETATM   15  C12 UNL     1      27.622   9.150  47.934  1.00  0.00     0.089 C 
HETATM   16  N5  UNL     1      28.495   8.257  48.093  1.00  0.00    -0.180 NA
HETATM   17  N6  UNL     1      28.778   7.122  47.377  1.00  0.00    -0.286 N 
HETATM   18  C13 UNL     1      28.240   5.950  48.058  1.00  0.00     0.175 C 
HETATM   19  C14 UNL     1      29.517   7.465  46.181  1.00  0.00     0.312 C 
HETATM   20  O3  UNL     1      30.672   8.129  46.400  1.00  0.00    -0.363 OA
HETATM   21  C15 UNL     1      31.669   7.614  47.112  1.00  0.00     0.149 C 
HETATM   22  C16 UNL     1      31.910   6.137  47.090  1.00  0.00     0.158 C 
HETATM   23  H9  UNL     1      30.974  11.486  49.262  1.00  0.00     0.189 HD
HETATM   24  H13 UNL     1      26.278  11.336  45.836  1.00  0.00     0.160 HD
ENDROOT
BRANCH   1  25
HETATM   25  C2  UNL     1      34.808   4.222  47.498  1.00  0.00     0.048 C 
HETATM   26  C1  UNL     1      34.014   3.224  47.820  1.00  0.00     0.037 C 
ENDBRANCH   1  25
BRANCH  10  27
HETATM   27  C9  UNL     1      27.460   9.326  50.314  1.00  0.00     0.163 C 
HETATM   28 CL1  UNL     1      25.755   8.858  50.274  1.00  0.00    -0.127 Cl
ENDBRANCH  10  27
TORSDOF 2
ENDMDL
MODEL 8
REMARK VINA RESULT:      -6.8      2.419      2.932
REMARK  2 active torsions:
REMARK  status: ('A' for Active; 'I' for Inactive)
REMARK    1  A    between atoms: C2_2  and  C3_3 
REMARK       I    between atoms: C3_3  and  N1_5 
REMARK    2  A    between atoms: C8_12  and  C9_13 
ROOT
HETATM    1  C3  UNL     1      25.535   0.210  54.068  1.00  0.00     0.239 C 
HETATM    2  O1  UNL     1      25.018  -0.928  53.949  1.00  0.00    -0.269 OA
HETATM    3  N1  UNL     1      24.889   1.165  53.235  1.00  0.00    -0.346 N 
HETATM    4  C4  UNL     1      23.796   0.520  52.476  1.00  0.00     0.135 C 
HETATM    5  C5  UNL     1      23.291   1.648  51.632  1.00  0.00     0.059 C 
HETATM    6  C6  UNL     1      21.867   1.509  51.150  1.00  0.00     0.186 C 
HETATM    7  O2  UNL     1      21.771   2.444  50.133  1.00  0.00    -0.335 OA
HETATM    8  C7  UNL     1      20.770   2.850  49.338  1.00  0.00     0.171 C 
HETATM    9  N2  UNL     1      19.644   2.359  49.687  1.00  0.00    -0.279 NA
HETATM   10  C8  UNL     1      21.240   3.762  48.263  1.00  0.00     0.176 C 
HETATM   11  N3  UNL     1      20.155   4.413  47.596  1.00  0.00    -0.258 NA
HETATM   12  C10 UNL     1      19.830   5.641  47.658  1.00  0.00     0.198 C 
HETATM   13  N4  UNL     1      20.627   6.507  48.487  1.00  0.00    -0.379 N 
HETATM   14  C11 UNL     1      22.047   6.172  48.566  1.00  0.00     0.180 C 
HETATM   15  C12 UNL     1      22.236   4.736  48.841  1.00  0.00     0.089 C 
HETATM   16  N5  UNL     1      23.065   4.028  49.471  1.00  0.00    -0.180 NA
HETATM   17  N6  UNL     1      24.182   4.361  50.195  1.00  0.00    -0.286 N 
HETATM   18  C13 UNL     1      25.385   4.104  49.411  1.00  0.00     0.175 C 
HETATM   19  C14 UNL     1      23.795   4.856  51.498  1.00  0.00     0.312 C 
HETATM   20  O3  UNL     1      23.051   4.000  52.231  1.00  0.00    -0.363 OA
HETATM   21  C15 UNL     1      23.491   2.801  52.595  1.00  0.00     0.149 C 
HETATM   22  C16 UNL     1      24.948   2.598  52.872  1.00  0.00     0.158 C 
HETATM   23  H9  UNL     1      19.666   1.730  50.518  1.00  0.00     0.189 HD
HETATM   24  H13 UNL     1      20.160   7.316  48.982  1.00  0.00     0.160 HD
ENDROOT
BRANCH   1  25
HETATM   25  C2  UNL     1      26.655   0.392  54.983  1.00  0.00     0.048 C 
HETATM   26  C1  UNL     1      27.728   0.389  54.223  1.00  0.00     0.037 C 
ENDBRANCH   1  25
BRANCH  10  27
HETATM   27  C9  UNL     1      22.059   2.979  47.227  1.00  0.00     0.163 C 
HETATM   28 CL1  UNL     1      21.941   3.725  45.627  1.00  0.00    -0.127 Cl
ENDBRANCH  10  27
TORSDOF 2
ENDMDL
MODEL 9
REMARK VINA RESULT:      -6.7      3.874      6.963
REMARK  2 active torsions:
REMARK  status: ('A' for Active; 'I' for Inactive)
REMARK    1  A    between atoms: C2_2  and  C3_3 
REMARK       I    between atoms: C3_3  and  N1_5 
REMARK    2  A    between atoms: C8_12  and  C9_13 
ROOT
HETATM    1  C3  UNL     1      17.465   0.694  51.584  1.00  0.00     0.239 C 
HETATM    2  O1  UNL     1      16.576   1.573  51.704  1.00  0.00    -0.269 OA
HETATM    3  N1  UNL     1      18.738   1.275  51.323  1.00  0.00    -0.346 N 
HETATM    4  C4  UNL     1      18.624   2.748  51.274  1.00  0.00     0.135 C 
HETATM    5  C5  UNL     1      20.023   3.161  50.937  1.00  0.00     0.059 C 
HETATM    6  C6  UNL     1      20.396   4.569  51.335  1.00  0.00     0.186 C 
HETATM    7  O2  UNL     1      21.550   4.819  50.612  1.00  0.00    -0.335 OA
HETATM    8  C7  UNL     1      22.397   5.858  50.548  1.00  0.00     0.171 C 
HETATM    9  N2  UNL     1      22.152   6.738  51.439  1.00  0.00    -0.279 NA
HETATM   10  C8  UNL     1      23.394   5.704  49.457  1.00  0.00     0.176 C 
HETATM   11  N3  UNL     1      24.459   6.653  49.562  1.00  0.00    -0.258 NA
HETATM   12  C10 UNL     1      25.671   6.429  49.876  1.00  0.00     0.198 C 
HETATM   13  N4  UNL     1      26.052   5.071  50.164  1.00  0.00    -0.379 N 
HETATM   14  C11 UNL     1      25.342   4.044  49.405  1.00  0.00     0.180 C 
HETATM   15  C12 UNL     1      23.886   4.278  49.433  1.00  0.00     0.089 C 
HETATM   16  N5  UNL     1      22.846   3.568  49.438  1.00  0.00    -0.180 NA
HETATM   17  N6  UNL     1      22.673   2.208  49.425  1.00  0.00    -0.286 N 
HETATM   18  C13 UNL     1      22.313   1.759  48.084  1.00  0.00     0.175 C 
HETATM   19  C14 UNL     1      22.904   1.668  50.748  1.00  0.00     0.312 C 
HETATM   20  O3  UNL     1      22.119   2.189  51.716  1.00  0.00    -0.363 OA
HETATM   21  C15 UNL     1      20.794   2.097  51.690  1.00  0.00     0.149 C 
HETATM   22  C16 UNL     1      20.146   0.891  51.083  1.00  0.00     0.158 C 
HETATM   23  H9  UNL     1      21.350   6.528  52.071  1.00  0.00     0.189 HD
HETATM   24  H13 UNL     1      26.802   4.891  50.886  1.00  0.00     0.160 HD
ENDROOT
BRANCH   1  25
HETATM   25  C2  UNL     1      17.103  -0.711  51.716  1.00  0.00     0.048 C 
HETATM   26  C1  UNL     1      17.447  -1.044  52.942  1.00  0.00     0.037 C 
ENDBRANCH   1  25
BRANCH  10  27
HETATM   27  C9  UNL     1      22.713   5.874  48.092  1.00  0.00     0.163 C 
HETATM   28 CL1  UNL     1      23.531   7.107  47.121  1.00  0.00    -0.127 Cl
ENDBRANCH  10  27
TORSDOF 2
ENDMDL
