MODEL 1
REMARK VINA RESULT:      -7.4      0.000      0.000
REMARK  7 active torsions:
REMARK  status: ('A' for Active; 'I' for Inactive)
REMARK    1  A    between atoms: C1_1  and  C10_14 
REMARK    2  A    between atoms: C2_2  and  C3_3 
REMARK    3  A    between atoms: C3_3  and  N1_4 
REMARK    4  A    between atoms: N1_4  and  C4_5 
REMARK    5  A    between atoms: C4_5  and  N2_6 
REMARK    6  A    between atoms: C10_14  and  C11_15 
REMARK    7  A    between atoms: C11_15  and  N5_16 
ROOT
HETATM    1  N1  UNL     1      26.510   3.231  49.357  1.00  0.00    -0.395 N 
HETATM    2  H3  UNL     1      26.664   2.588  48.600  1.00  0.00     0.155 HD
ENDROOT
BRANCH   1   3
HETATM    3  C3  UNL     1      26.607   4.628  49.155  1.00  0.00     0.210 C 
BRANCH   3   4
HETATM    4  C2  UNL     1      27.929   5.039  48.610  1.00  0.00    -0.087 C 
HETATM    5  C1  UNL     1      29.017   5.383  48.183  1.00  0.00    -0.103 C 
BRANCH   5   6
HETATM    6  C10 UNL     1      30.323   5.793  47.665  1.00  0.00     0.124 C 
BRANCH   6   7
HETATM    7  C11 UNL     1      31.295   5.824  48.795  1.00  0.00     0.284 C 
BRANCH   7   8
HETATM    8  N5  UNL     1      32.459   5.024  48.558  1.00  0.00     0.089 N 
HETATM    9  C12 UNL     1      33.654   5.791  48.343  1.00  0.00     0.272 C 
HETATM   10  C13 UNL     1      34.863   4.903  48.323  1.00  0.00     0.030 C 
HETATM   11  C14 UNL     1      34.662   3.517  47.874  1.00  0.00     0.003 C 
HETATM   12  C15 UNL     1      33.291   3.116  47.431  1.00  0.00     0.030 C 
HETATM   13  C16 UNL     1      32.297   4.245  47.342  1.00  0.00     0.272 C 
ENDBRANCH   7   8
ENDBRANCH   6   7
ENDBRANCH   5   6
ENDBRANCH   3   4
ENDBRANCH   1   3
BRANCH   1  14
HETATM   14  C4  UNL     1      26.179   2.769  50.649  1.00  0.00     0.268 C 
BRANCH  14  15
HETATM   15  N2  UNL     1      27.221   2.687  51.610  1.00  0.00    -0.258 NA
HETATM   16  C5  UNL     1      27.222   1.984  52.668  1.00  0.00     0.101 C 
HETATM   17  C6  UNL     1      28.505   2.178  53.413  1.00  0.00     0.080 C 
HETATM   18  N4  UNL     1      26.190   1.118  53.128  1.00  0.00    -0.340 N 
HETATM   19  C7  UNL     1      29.112   0.812  53.660  1.00  0.00     0.029 C 
HETATM   20  C8  UNL     1      28.620   0.190  54.927  1.00  0.00     0.150 C 
HETATM   21  N3  UNL     1      27.313  -0.384  54.710  1.00  0.00    -0.285 NA
HETATM   22  C9  UNL     1      26.323  -0.012  53.981  1.00  0.00     0.202 C 
HETATM   23  H13 UNL     1      25.270   1.449  52.730  1.00  0.00     0.168 HD
ENDBRANCH  14  15
ENDBRANCH   1  14
TORSDOF 7
ENDMDL
MODEL 2
REMARK VINA RESULT:      -7.1      5.049      8.635
REMARK  7 active torsions:
REMARK  status: ('A' for Active; 'I' for Inactive)
REMARK    1  A    between atoms: C1_1  and  C10_14 
REMARK    2  A    between atoms: C2_2  and  C3_3 
REMARK    3  A    between atoms: C3_3  and  N1_4 
REMARK    4  A    between atoms: N1_4  and  C4_5 
REMARK    5  A    between atoms: C4_5  and  N2_6 
REMARK    6  A    between atoms: C10_14  and  C11_15 
REMARK    7  A    between atoms: C11_15  and  N5_16 
ROOT
HETATM    1  N1  UNL     1      25.285   3.327  49.809  1.00  0.00    -0.395 N 
HETATM    2  H3  UNL     1      26.161   3.358  49.316  1.00  0.00     0.155 HD
ENDROOT
BRANCH   1   3
HETATM    3  C3  UNL     1      24.062   3.539  49.130  1.00  0.00     0.210 C 
BRANCH   3   4
HETATM    4  C2  UNL     1      23.034   2.519  49.468  1.00  0.00    -0.087 C 
HETATM    5  C1  UNL     1      22.191   1.690  49.765  1.00  0.00    -0.103 C 
BRANCH   5   6
HETATM    6  C10 UNL     1      21.179   0.693  50.116  1.00  0.00     0.124 C 
BRANCH   6   7
HETATM    7  C11 UNL     1      20.709   0.960  51.506  1.00  0.00     0.284 C 
BRANCH   7   8
HETATM    8  N5  UNL     1      21.361   0.144  52.486  1.00  0.00     0.089 N 
HETATM    9  C12 UNL     1      20.504  -0.257  53.567  1.00  0.00     0.272 C 
HETATM   10  C13 UNL     1      21.178  -1.281  54.431  1.00  0.00     0.030 C 
HETATM   11  C14 UNL     1      22.646  -1.234  54.496  1.00  0.00     0.003 C 
HETATM   12  C15 UNL     1      23.347  -0.150  53.741  1.00  0.00     0.030 C 
HETATM   13  C16 UNL     1      22.438   0.882  53.123  1.00  0.00     0.272 C 
ENDBRANCH   7   8
ENDBRANCH   6   7
ENDBRANCH   5   6
ENDBRANCH   3   4
ENDBRANCH   1   3
BRANCH   1  14
HETATM   14  C4  UNL     1      25.238   3.060  51.194  1.00  0.00     0.268 C 
BRANCH  14  15
HETATM   15  N2  UNL     1      25.728   1.806  51.644  1.00  0.00    -0.258 NA
HETATM   16  C5  UNL     1      26.806   1.599  52.282  1.00  0.00     0.101 C 
HETATM   17  C6  UNL     1      26.961   0.139  52.570  1.00  0.00     0.080 C 
HETATM   18  N4  UNL     1      27.763   2.569  52.694  1.00  0.00    -0.340 N 
HETATM   19  C7  UNL     1      27.182  -0.023  54.059  1.00  0.00     0.029 C 
HETATM   20  C8  UNL     1      28.626   0.073  54.436  1.00  0.00     0.150 C 
HETATM   21  N3  UNL     1      29.023   1.461  54.484  1.00  0.00    -0.285 NA
HETATM   22  C9  UNL     1      28.677   2.478  53.781  1.00  0.00     0.202 C 
HETATM   23  H13 UNL     1      27.697   3.402  52.051  1.00  0.00     0.168 HD
ENDBRANCH  14  15
ENDBRANCH   1  14
TORSDOF 7
ENDMDL
MODEL 3
REMARK VINA RESULT:      -7.0      1.204      1.872
REMARK  7 active torsions:
REMARK  status: ('A' for Active; 'I' for Inactive)
REMARK    1  A    between atoms: C1_1  and  C10_14 
REMARK    2  A    between atoms: C2_2  and  C3_3 
REMARK    3  A    between atoms: C3_3  and  N1_4 
REMARK    4  A    between atoms: N1_4  and  C4_5 
REMARK    5  A    between atoms: C4_5  and  N2_6 
REMARK    6  A    between atoms: C10_14  and  C11_15 
REMARK    7  A    between atoms: C11_15  and  N5_16 
ROOT
HETATM    1  N1  UNL     1      25.665   4.171  50.659  1.00  0.00    -0.395 N 
HETATM    2  H3  UNL     1      25.282   4.618  51.474  1.00  0.00     0.155 HD
ENDROOT
BRANCH   1   3
HETATM    3  C3  UNL     1      25.679   4.831  49.407  1.00  0.00     0.210 C 
BRANCH   3   4
HETATM    4  C2  UNL     1      27.055   5.026  48.877  1.00  0.00    -0.087 C 
HETATM    5  C1  UNL     1      28.186   5.202  48.457  1.00  0.00    -0.103 C 
BRANCH   5   6
HETATM    6  C10 UNL     1      29.543   5.408  47.950  1.00  0.00     0.124 C 
BRANCH   6   7
HETATM    7  C11 UNL     1      30.111   6.629  48.590  1.00  0.00     0.284 C 
BRANCH   7   8
HETATM    8  N5  UNL     1      31.532   6.729  48.448  1.00  0.00     0.089 N 
HETATM    9  C12 UNL     1      32.244   5.583  48.940  1.00  0.00     0.272 C 
HETATM   10  C13 UNL     1      33.694   5.653  48.564  1.00  0.00     0.030 C 
HETATM   11  C14 UNL     1      34.274   6.994  48.397  1.00  0.00     0.003 C 
HETATM   12  C15 UNL     1      33.395   8.175  48.658  1.00  0.00     0.030 C 
HETATM   13  C16 UNL     1      32.040   7.843  49.230  1.00  0.00     0.272 C 
ENDBRANCH   7   8
ENDBRANCH   6   7
ENDBRANCH   5   6
ENDBRANCH   3   4
ENDBRANCH   1   3
BRANCH   1  14
HETATM   14  C4  UNL     1      26.216   2.873  50.731  1.00  0.00     0.268 C 
BRANCH  14  15
HETATM   15  N2  UNL     1      27.297   2.661  51.625  1.00  0.00    -0.258 NA
HETATM   16  C5  UNL     1      27.264   2.008  52.714  1.00  0.00     0.101 C 
HETATM   17  C6  UNL     1      28.611   2.020  53.363  1.00  0.00     0.080 C 
HETATM   18  N4  UNL     1      26.143   1.337  53.281  1.00  0.00    -0.340 N 
HETATM   19  C7  UNL     1      29.012   0.585  53.637  1.00  0.00     0.029 C 
HETATM   20  C8  UNL     1      28.520   0.097  54.961  1.00  0.00     0.150 C 
HETATM   21  N3  UNL     1      27.126  -0.266  54.857  1.00  0.00    -0.285 NA
HETATM   22  C9  UNL     1      26.157   0.232  54.177  1.00  0.00     0.202 C 
HETATM   23  H13 UNL     1      25.261   1.796  52.928  1.00  0.00     0.168 HD
ENDBRANCH  14  15
ENDBRANCH   1  14
TORSDOF 7
ENDMDL
MODEL 4
REMARK VINA RESULT:      -7.0      5.089      8.895
REMARK  7 active torsions:
REMARK  status: ('A' for Active; 'I' for Inactive)
REMARK    1  A    between atoms: C1_1  and  C10_14 
REMARK    2  A    between atoms: C2_2  and  C3_3 
REMARK    3  A    between atoms: C3_3  and  N1_4 
REMARK    4  A    between atoms: N1_4  and  C4_5 
REMARK    5  A    between atoms: C4_5  and  N2_6 
REMARK    6  A    between atoms: C10_14  and  C11_15 
REMARK    7  A    between atoms: C11_15  and  N5_16 
ROOT
HETATM    1  N1  UNL     1      24.536   3.955  51.956  1.00  0.00    -0.395 N 
HETATM    2  H3  UNL     1      24.788   4.198  52.899  1.00  0.00     0.155 HD
ENDROOT
BRANCH   1   3
HETATM    3  C3  UNL     1      23.407   4.537  51.332  1.00  0.00     0.210 C 
BRANCH   3   4
HETATM    4  C2  UNL     1      22.136   3.855  51.696  1.00  0.00    -0.087 C 
HETATM    5  C1  UNL     1      21.094   3.287  51.974  1.00  0.00    -0.103 C 
BRANCH   5   6
HETATM    6  C10 UNL     1      19.843   2.607  52.314  1.00  0.00     0.124 C 
BRANCH   6   7
HETATM    7  C11 UNL     1      20.008   1.149  52.051  1.00  0.00     0.284 C 
BRANCH   7   8
HETATM    8  N5  UNL     1      20.986   0.533  52.895  1.00  0.00     0.089 N 
HETATM    9  C12 UNL     1      22.056  -0.100  52.175  1.00  0.00     0.272 C 
HETATM   10  C13 UNL     1      23.149  -0.527  53.109  1.00  0.00     0.030 C 
HETATM   11  C14 UNL     1      22.757  -0.854  54.488  1.00  0.00     0.003 C 
HETATM   12  C15 UNL     1      21.305  -0.781  54.839  1.00  0.00     0.030 C 
HETATM   13  C16 UNL     1      20.382  -0.536  53.673  1.00  0.00     0.272 C 
ENDBRANCH   7   8
ENDBRANCH   6   7
ENDBRANCH   5   6
ENDBRANCH   3   4
ENDBRANCH   1   3
BRANCH   1  14
HETATM   14  C4  UNL     1      25.305   3.034  51.212  1.00  0.00     0.268 C 
BRANCH  14  15
HETATM   15  N2  UNL     1      25.651   1.806  51.833  1.00  0.00    -0.258 NA
HETATM   16  C5  UNL     1      26.717   1.556  52.477  1.00  0.00     0.101 C 
HETATM   17  C6  UNL     1      26.699   0.145  52.973  1.00  0.00     0.080 C 
HETATM   18  N4  UNL     1      27.799   2.446  52.728  1.00  0.00    -0.340 N 
HETATM   19  C7  UNL     1      26.949   0.171  54.467  1.00  0.00     0.029 C 
HETATM   20  C8  UNL     1      28.406   0.136  54.803  1.00  0.00     0.150 C 
HETATM   21  N3  UNL     1      28.973   1.454  54.641  1.00  0.00    -0.285 NA
HETATM   22  C9  UNL     1      28.731   2.396  53.802  1.00  0.00     0.202 C 
HETATM   23  H13 UNL     1      27.815   3.180  51.970  1.00  0.00     0.168 HD
ENDBRANCH  14  15
ENDBRANCH   1  14
TORSDOF 7
ENDMDL
MODEL 5
REMARK VINA RESULT:      -6.9      1.600      8.375
REMARK  7 active torsions:
REMARK  status: ('A' for Active; 'I' for Inactive)
REMARK    1  A    between atoms: C1_1  and  C10_14 
REMARK    2  A    between atoms: C2_2  and  C3_3 
REMARK    3  A    between atoms: C3_3  and  N1_4 
REMARK    4  A    between atoms: N1_4  and  C4_5 
REMARK    5  A    between atoms: C4_5  and  N2_6 
REMARK    6  A    between atoms: C10_14  and  C11_15 
REMARK    7  A    between atoms: C11_15  and  N5_16 
ROOT
HETATM    1  N1  UNL     1      28.914   6.214  48.975  1.00  0.00    -0.395 N 
HETATM    2  H3  UNL     1      28.769   6.552  49.911  1.00  0.00     0.155 HD
ENDROOT
BRANCH   1   3
HETATM    3  C3  UNL     1      27.883   5.541  48.278  1.00  0.00     0.210 C 
BRANCH   3   4
HETATM    4  C2  UNL     1      27.203   4.514  49.111  1.00  0.00    -0.087 C 
HETATM    5  C1  UNL     1      26.627   3.675  49.782  1.00  0.00    -0.103 C 
BRANCH   5   6
HETATM    6  C10 UNL     1      25.941   2.666  50.590  1.00  0.00     0.124 C 
BRANCH   6   7
HETATM    7  C11 UNL     1      26.859   2.222  51.678  1.00  0.00     0.284 C 
BRANCH   7   8
HETATM    8  N5  UNL     1      26.287   1.217  52.522  1.00  0.00     0.089 N 
HETATM    9  C12 UNL     1      24.859   1.114  52.411  1.00  0.00     0.272 C 
HETATM   10  C13 UNL     1      24.352  -0.093  53.145  1.00  0.00     0.030 C 
HETATM   11  C14 UNL     1      25.141  -0.549  54.299  1.00  0.00     0.003 C 
HETATM   12  C15 UNL     1      26.350   0.244  54.679  1.00  0.00     0.030 C 
HETATM   13  C16 UNL     1      26.527   1.534  53.919  1.00  0.00     0.272 C 
ENDBRANCH   7   8
ENDBRANCH   6   7
ENDBRANCH   5   6
ENDBRANCH   3   4
ENDBRANCH   1   3
BRANCH   1  14
HETATM   14  C4  UNL     1      30.146   6.407  48.314  1.00  0.00     0.268 C 
BRANCH  14  15
HETATM   15  N2  UNL     1      30.755   5.280  47.703  1.00  0.00    -0.258 NA
HETATM   16  C5  UNL     1      31.999   5.043  47.619  1.00  0.00     0.101 C 
HETATM   17  C6  UNL     1      32.230   3.751  46.900  1.00  0.00     0.080 C 
HETATM   18  N4  UNL     1      33.064   5.844  48.120  1.00  0.00    -0.340 N 
HETATM   19  C7  UNL     1      33.104   2.878  47.776  1.00  0.00     0.029 C 
HETATM   20  C8  UNL     1      34.562   3.117  47.547  1.00  0.00     0.150 C 
HETATM   21  N3  UNL     1      34.974   4.309  48.250  1.00  0.00    -0.285 NA
HETATM   22  C9  UNL     1      34.371   5.419  48.487  1.00  0.00     0.202 C 
HETATM   23  H13 UNL     1      32.733   6.844  48.182  1.00  0.00     0.168 HD
ENDBRANCH  14  15
ENDBRANCH   1  14
TORSDOF 7
ENDMDL
MODEL 6
REMARK VINA RESULT:      -6.8      4.607      8.145
REMARK  7 active torsions:
REMARK  status: ('A' for Active; 'I' for Inactive)
REMARK    1  A    between atoms: C1_1  and  C10_14 
REMARK    2  A    between atoms: C2_2  and  C3_3 
REMARK    3  A    between atoms: C3_3  and  N1_4 
REMARK    4  A    between atoms: N1_4  and  C4_5 
REMARK    5  A    between atoms: C4_5  and  N2_6 
REMARK    6  A    between atoms: C10_14  and  C11_15 
REMARK    7  A    between atoms: C11_15  and  N5_16 
ROOT
HETATM    1  N1  UNL     1      26.309   3.806  49.539  1.00  0.00    -0.395 N 
HETATM    2  H3  UNL     1      26.698   3.839  48.612  1.00  0.00     0.155 HD
ENDROOT
BRANCH   1   3
HETATM    3  C3  UNL     1      25.631   4.923  50.083  1.00  0.00     0.210 C 
BRANCH   3   4
HETATM    4  C2  UNL     1      24.419   4.538  50.853  1.00  0.00    -0.087 C 
HETATM    5  C1  UNL     1      23.412   4.231  51.468  1.00  0.00    -0.103 C 
BRANCH   5   6
HETATM    6  C10 UNL     1      22.207   3.859  52.211  1.00  0.00     0.124 C 
BRANCH   6   7
HETATM    7  C11 UNL     1      21.774   2.503  51.767  1.00  0.00     0.284 C 
BRANCH   7   8
HETATM    8  N5  UNL     1      21.869   1.517  52.800  1.00  0.00     0.089 N 
HETATM    9  C12 UNL     1      22.779   0.448  52.497  1.00  0.00     0.272 C 
HETATM   10  C13 UNL     1      22.999  -0.424  53.699  1.00  0.00     0.030 C 
HETATM   11  C14 UNL     1      21.898  -0.508  54.669  1.00  0.00     0.003 C 
HETATM   12  C15 UNL     1      20.637   0.237  54.366  1.00  0.00     0.030 C 
HETATM   13  C16 UNL     1      20.586   0.864  52.996  1.00  0.00     0.272 C 
ENDBRANCH   7   8
ENDBRANCH   6   7
ENDBRANCH   5   6
ENDBRANCH   3   4
ENDBRANCH   1   3
BRANCH   1  14
HETATM   14  C4  UNL     1      26.413   2.642  50.331  1.00  0.00     0.268 C 
BRANCH  14  15
HETATM   15  N2  UNL     1      27.225   2.703  51.494  1.00  0.00    -0.258 NA
HETATM   16  C5  UNL     1      27.232   1.875  52.458  1.00  0.00     0.101 C 
HETATM   17  C6  UNL     1      28.229   2.296  53.490  1.00  0.00     0.080 C 
HETATM   18  N4  UNL     1      26.437   0.701  52.590  1.00  0.00    -0.340 N 
HETATM   19  C7  UNL     1      29.157   1.127  53.748  1.00  0.00     0.029 C 
HETATM   20  C8  UNL     1      28.639   0.209  54.808  1.00  0.00     0.150 C 
HETATM   21  N3  UNL     1      27.631  -0.659  54.246  1.00  0.00    -0.285 NA
HETATM   22  C9  UNL     1      26.735  -0.466  53.346  1.00  0.00     0.202 C 
HETATM   23  H13 UNL     1      25.556   0.825  52.023  1.00  0.00     0.168 HD
ENDBRANCH  14  15
ENDBRANCH   1  14
TORSDOF 7
ENDMDL
MODEL 7
REMARK VINA RESULT:      -6.7      5.789      8.441
REMARK  7 active torsions:
REMARK  status: ('A' for Active; 'I' for Inactive)
REMARK    1  A    between atoms: C1_1  and  C10_14 
REMARK    2  A    between atoms: C2_2  and  C3_3 
REMARK    3  A    between atoms: C3_3  and  N1_4 
REMARK    4  A    between atoms: N1_4  and  C4_5 
REMARK    5  A    between atoms: C4_5  and  N2_6 
REMARK    6  A    between atoms: C10_14  and  C11_15 
REMARK    7  A    between atoms: C11_15  and  N5_16 
ROOT
HETATM    1  N1  UNL     1      20.402  -0.639  54.405  1.00  0.00    -0.395 N 
HETATM    2  H3  UNL     1      19.549  -0.845  54.896  1.00  0.00     0.155 HD
ENDROOT
BRANCH   1   3
HETATM    3  C3  UNL     1      21.430  -1.606  54.297  1.00  0.00     0.210 C 
BRANCH   3   4
HETATM    4  C2  UNL     1      22.720  -1.024  53.839  1.00  0.00    -0.087 C 
HETATM    5  C1  UNL     1      23.776  -0.560  53.446  1.00  0.00    -0.103 C 
BRANCH   5   6
HETATM    6  C10 UNL     1      25.044   0.001  52.978  1.00  0.00     0.124 C 
BRANCH   6   7
HETATM    7  C11 UNL     1      25.898   0.302  54.164  1.00  0.00     0.284 C 
BRANCH   7   8
HETATM    8  N5  UNL     1      27.246  -0.157  54.016  1.00  0.00     0.089 N 
HETATM    9  C12 UNL     1      28.175   0.880  53.665  1.00  0.00     0.272 C 
HETATM   10  C13 UNL     1      29.587   0.382  53.744  1.00  0.00     0.030 C 
HETATM   11  C14 UNL     1      29.801  -1.053  53.503  1.00  0.00     0.003 C 
HETATM   12  C15 UNL     1      28.611  -1.890  53.156  1.00  0.00     0.030 C 
HETATM   13  C16 UNL     1      27.337  -1.117  52.930  1.00  0.00     0.272 C 
ENDBRANCH   7   8
ENDBRANCH   6   7
ENDBRANCH   5   6
ENDBRANCH   3   4
ENDBRANCH   1   3
BRANCH   1  14
HETATM   14  C4  UNL     1      20.605   0.616  53.792  1.00  0.00     0.268 C 
BRANCH  14  15
HETATM   15  N2  UNL     1      20.305   0.735  52.410  1.00  0.00    -0.258 NA
HETATM   16  C5  UNL     1      20.941   1.423  51.553  1.00  0.00     0.101 C 
HETATM   17  C6  UNL     1      20.304   1.283  50.206  1.00  0.00     0.080 C 
HETATM   18  N4  UNL     1      22.098   2.222  51.777  1.00  0.00    -0.340 N 
HETATM   19  C7  UNL     1      21.374   0.848  49.226  1.00  0.00     0.029 C 
HETATM   20  C8  UNL     1      22.100   2.007  48.621  1.00  0.00     0.150 C 
HETATM   21  N3  UNL     1      23.090   2.497  49.550  1.00  0.00    -0.285 NA
HETATM   22  C9  UNL     1      23.096   2.587  50.831  1.00  0.00     0.202 C 
HETATM   23  H13 UNL     1      22.110   2.521  52.788  1.00  0.00     0.168 HD
ENDBRANCH  14  15
ENDBRANCH   1  14
TORSDOF 7
ENDMDL
MODEL 8
REMARK VINA RESULT:      -6.7      2.643      4.471
REMARK  7 active torsions:
REMARK  status: ('A' for Active; 'I' for Inactive)
REMARK    1  A    between atoms: C1_1  and  C10_14 
REMARK    2  A    between atoms: C2_2  and  C3_3 
REMARK    3  A    between atoms: C3_3  and  N1_4 
REMARK    4  A    between atoms: N1_4  and  C4_5 
REMARK    5  A    between atoms: C4_5  and  N2_6 
REMARK    6  A    between atoms: C10_14  and  C11_15 
REMARK    7  A    between atoms: C11_15  and  N5_16 
ROOT
HETATM    1  N1  UNL     1      26.410   3.148  49.520  1.00  0.00    -0.395 N 
HETATM    2  H3  UNL     1      26.730   2.464  48.856  1.00  0.00     0.155 HD
ENDROOT
BRANCH   1   3
HETATM    3  C3  UNL     1      26.197   4.492  49.131  1.00  0.00     0.210 C 
BRANCH   3   4
HETATM    4  C2  UNL     1      27.445   5.164  48.682  1.00  0.00    -0.087 C 
HETATM    5  C1  UNL     1      28.471   5.699  48.298  1.00  0.00    -0.103 C 
BRANCH   5   6
HETATM    6  C10 UNL     1      29.701   6.347  47.841  1.00  0.00     0.124 C 
BRANCH   6   7
HETATM    7  C11 UNL     1      29.425   7.797  47.629  1.00  0.00     0.284 C 
BRANCH   7   8
HETATM    8  N5  UNL     1      28.240   8.247  48.295  1.00  0.00     0.089 N 
HETATM    9  C12 UNL     1      27.323   8.944  47.437  1.00  0.00     0.272 C 
HETATM   10  C13 UNL     1      26.019   9.190  48.137  1.00  0.00     0.030 C 
HETATM   11  C14 UNL     1      26.064   9.320  49.600  1.00  0.00     0.003 C 
HETATM   12  C15 UNL     1      27.399   9.245  50.270  1.00  0.00     0.030 C 
HETATM   13  C16 UNL     1      28.578   9.207  49.332  1.00  0.00     0.272 C 
ENDBRANCH   7   8
ENDBRANCH   6   7
ENDBRANCH   5   6
ENDBRANCH   3   4
ENDBRANCH   1   3
BRANCH   1  14
HETATM   14  C4  UNL     1      26.149   2.795  50.861  1.00  0.00     0.268 C 
BRANCH  14  15
HETATM   15  N2  UNL     1      27.258   2.635  51.732  1.00  0.00    -0.258 NA
HETATM   16  C5  UNL     1      27.283   1.971  52.814  1.00  0.00     0.101 C 
HETATM   17  C6  UNL     1      28.640   2.053  53.437  1.00  0.00     0.080 C 
HETATM   18  N4  UNL     1      26.213   1.234  53.396  1.00  0.00    -0.340 N 
HETATM   19  C7  UNL     1      29.125   0.640  53.688  1.00  0.00     0.029 C 
HETATM   20  C8  UNL     1      28.688   0.114  55.017  1.00  0.00     0.150 C 
HETATM   21  N3  UNL     1      27.314  -0.326  54.937  1.00  0.00    -0.285 NA
HETATM   22  C9  UNL     1      26.306   0.123  54.281  1.00  0.00     0.202 C 
HETATM   23  H13 UNL     1      25.300   1.646  53.065  1.00  0.00     0.168 HD
ENDBRANCH  14  15
ENDBRANCH   1  14
TORSDOF 7
ENDMDL
MODEL 9
REMARK VINA RESULT:      -6.6      2.219      8.006
REMARK  7 active torsions:
REMARK  status: ('A' for Active; 'I' for Inactive)
REMARK    1  A    between atoms: C1_1  and  C10_14 
REMARK    2  A    between atoms: C2_2  and  C3_3 
REMARK    3  A    between atoms: C3_3  and  N1_4 
REMARK    4  A    between atoms: N1_4  and  C4_5 
REMARK    5  A    between atoms: C4_5  and  N2_6 
REMARK    6  A    between atoms: C10_14  and  C11_15 
REMARK    7  A    between atoms: C11_15  and  N5_16 
ROOT
HETATM    1  N1  UNL     1      26.666   3.523  49.691  1.00  0.00    -0.395 N 
HETATM    2  H3  UNL     1      27.377   2.865  49.961  1.00  0.00     0.155 HD
ENDROOT
BRANCH   1   3
HETATM    3  C3  UNL     1      25.309   3.303  50.025  1.00  0.00     0.210 C 
BRANCH   3   4
HETATM    4  C2  UNL     1      25.143   2.362  51.164  1.00  0.00    -0.087 C 
HETATM    5  C1  UNL     1      24.990   1.603  52.105  1.00  0.00    -0.103 C 
BRANCH   5   6
HETATM    6  C10 UNL     1      24.811   0.687  53.233  1.00  0.00     0.124 C 
BRANCH   6   7
HETATM    7  C11 UNL     1      25.579  -0.561  52.959  1.00  0.00     0.284 C 
BRANCH   7   8
HETATM    8  N5  UNL     1      26.986  -0.416  53.184  1.00  0.00     0.089 N 
HETATM    9  C12 UNL     1      27.713  -1.653  53.115  1.00  0.00     0.272 C 
HETATM   10  C13 UNL     1      29.193  -1.404  53.138  1.00  0.00     0.030 C 
HETATM   11  C14 UNL     1      29.653  -0.197  53.840  1.00  0.00     0.003 C 
HETATM   12  C15 UNL     1      28.626   0.659  54.510  1.00  0.00     0.030 C 
HETATM   13  C16 UNL     1      27.234   0.083  54.526  1.00  0.00     0.272 C 
ENDBRANCH   7   8
ENDBRANCH   6   7
ENDBRANCH   5   6
ENDBRANCH   3   4
ENDBRANCH   1   3
BRANCH   1  14
HETATM   14  C4  UNL     1      26.994   4.698  48.981  1.00  0.00     0.268 C 
BRANCH  14  15
HETATM   15  N2  UNL     1      28.331   4.848  48.529  1.00  0.00    -0.258 NA
HETATM   16  C5  UNL     1      28.975   5.937  48.416  1.00  0.00     0.101 C 
HETATM   17  C6  UNL     1      30.355   5.667  47.904  1.00  0.00     0.080 C 
HETATM   18  N4  UNL     1      28.510   7.248  48.719  1.00  0.00    -0.340 N 
HETATM   19  C7  UNL     1      31.340   6.306  48.861  1.00  0.00     0.029 C 
HETATM   20  C8  UNL     1      31.629   7.731  48.515  1.00  0.00     0.150 C 
HETATM   21  N3  UNL     1      30.557   8.573  48.991  1.00  0.00    -0.285 NA
HETATM   22  C9  UNL     1      29.289   8.383  49.077  1.00  0.00     0.202 C 
HETATM   23  H13 UNL     1      27.458   7.260  48.636  1.00  0.00     0.168 HD
ENDBRANCH  14  15
ENDBRANCH   1  14
TORSDOF 7
ENDMDL
