MODEL 1
REMARK VINA RESULT:      -7.3      0.000      0.000
REMARK  7 active torsions:
REMARK  status: ('A' for Active; 'I' for Inactive)
REMARK    1  A    between atoms: O1_2  and  C2_3 
REMARK    2  A    between atoms: C5_6  and  O2_7 
REMARK    3  A    between atoms: C6_8  and  C7_9 
REMARK    4  A    between atoms: C7_9  and  N1_10 
REMARK    5  A    between atoms: N1_10  and  C8_11 
REMARK    6  A    between atoms: C9_12  and  N2_13 
REMARK    7  A    between atoms: N2_13  and  C10_14 
ROOT
HETATM    1  N1  UNL     1      22.558   2.295  51.255  1.00  0.00    -0.393 N 
HETATM    2  H9  UNL     1      21.952   3.162  51.277  1.00  0.00     0.159 HD
ENDROOT
BRANCH   1   3
HETATM    3  C7  UNL     1      22.066   1.014  50.777  1.00  0.00     0.160 C 
BRANCH   3   4
HETATM    4  C6  UNL     1      21.142   0.356  51.731  1.00  0.00    -0.005 A 
HETATM    5  C5  UNL     1      19.791   0.401  51.441  1.00  0.00     0.073 A 
HETATM    6  C4  UNL     1      18.865  -0.193  52.288  1.00  0.00     0.040 A 
HETATM    7  C3  UNL     1      19.285  -0.838  53.433  1.00  0.00     0.039 A 
HETATM    8  C2  UNL     1      20.626  -0.897  53.744  1.00  0.00     0.069 A 
HETATM    9  C16 UNL     1      21.567  -0.300  52.895  1.00  0.00     0.048 A 
BRANCH   5  10
HETATM   10  O2  UNL     1      19.221   1.014  50.326  1.00  0.00    -0.360 OA
HETATM   11  H6  UNL     1      18.529   1.742  50.509  1.00  0.00     0.217 HD
ENDBRANCH   5  10
BRANCH   8  12
HETATM   12  O1  UNL     1      21.290  -1.475  54.816  1.00  0.00    -0.356 OA
HETATM   13  C1  UNL     1      22.628  -1.272  55.156  1.00  0.00     0.210 C 
ENDBRANCH   8  12
ENDBRANCH   3   4
ENDBRANCH   1   3
BRANCH   1  14
HETATM   14  C8  UNL     1      23.905   2.408  51.717  1.00  0.00     0.100 C 
HETATM   15  C9  UNL     1      25.138   2.728  51.348  1.00  0.00     0.105 C 
BRANCH  15  16
HETATM   16  N2  UNL     1      26.267   2.694  52.210  1.00  0.00    -0.365 N 
HETATM   17  H12 UNL     1      26.362   3.695  52.488  1.00  0.00     0.165 HD
BRANCH  16  18
HETATM   18  C10 UNL     1      27.139   1.672  52.673  1.00  0.00     0.033 A 
HETATM   19  C11 UNL     1      28.290   2.076  53.348  1.00  0.00     0.032 A 
HETATM   20  C12 UNL     1      29.087   1.031  53.768  1.00  0.00     0.046 A 
HETATM   21  C13 UNL     1      28.788  -0.304  53.549  1.00  0.00     0.138 A 
HETATM   22  F1  UNL     1      29.680  -1.200  54.028  1.00  0.00    -0.204 F 
HETATM   23  C14 UNL     1      27.639  -0.615  52.878  1.00  0.00     0.074 A 
HETATM   24 CL1  UNL     1      27.354  -2.336  52.653  1.00  0.00    -0.081 Cl
HETATM   25  C15 UNL     1      26.794   0.370  52.429  1.00  0.00     0.056 A 
ENDBRANCH  16  18
ENDBRANCH  15  16
ENDBRANCH   1  14
TORSDOF 7
ENDMDL
MODEL 2
REMARK VINA RESULT:      -7.2      3.665      5.314
REMARK  7 active torsions:
REMARK  status: ('A' for Active; 'I' for Inactive)
REMARK    1  A    between atoms: O1_2  and  C2_3 
REMARK    2  A    between atoms: C5_6  and  O2_7 
REMARK    3  A    between atoms: C6_8  and  C7_9 
REMARK    4  A    between atoms: C7_9  and  N1_10 
REMARK    5  A    between atoms: N1_10  and  C8_11 
REMARK    6  A    between atoms: C9_12  and  N2_13 
REMARK    7  A    between atoms: N2_13  and  C10_14 
ROOT
HETATM    1  N1  UNL     1      21.548   1.319  52.571  1.00  0.00    -0.393 N 
HETATM    2  H9  UNL     1      20.654   1.533  53.098  1.00  0.00     0.159 HD
ENDROOT
BRANCH   1   3
HETATM    3  C7  UNL     1      22.039  -0.037  52.395  1.00  0.00     0.160 C 
BRANCH   3   4
HETATM    4  C6  UNL     1      22.973  -0.459  53.466  1.00  0.00    -0.005 A 
HETATM    5  C5  UNL     1      22.419  -0.955  54.632  1.00  0.00     0.073 A 
HETATM    6  C4  UNL     1      23.229  -1.370  55.680  1.00  0.00     0.040 A 
HETATM    7  C3  UNL     1      24.602  -1.292  55.570  1.00  0.00     0.039 A 
HETATM    8  C2  UNL     1      25.178  -0.801  54.418  1.00  0.00     0.069 A 
HETATM    9  C16 UNL     1      24.367  -0.381  53.356  1.00  0.00     0.048 A 
BRANCH   5  10
HETATM   10  O2  UNL     1      21.054  -1.093  54.887  1.00  0.00    -0.360 OA
HETATM   11  H6  UNL     1      20.423  -0.910  54.106  1.00  0.00     0.217 HD
ENDBRANCH   5  10
BRANCH   8  12
HETATM   12  O1  UNL     1      26.508  -0.624  54.066  1.00  0.00    -0.356 OA
HETATM   13  C1  UNL     1      27.423   0.207  54.712  1.00  0.00     0.210 C 
ENDBRANCH   8  12
ENDBRANCH   3   4
ENDBRANCH   1   3
BRANCH   1  14
HETATM   14  C8  UNL     1      22.282   2.415  52.025  1.00  0.00     0.100 C 
HETATM   15  C9  UNL     1      22.340   3.258  51.002  1.00  0.00     0.105 C 
BRANCH  15  16
HETATM   16  N2  UNL     1      23.323   4.274  50.857  1.00  0.00    -0.365 N 
HETATM   17  H12 UNL     1      22.902   5.065  51.389  1.00  0.00     0.165 HD
BRANCH  16  18
HETATM   18  C10 UNL     1      24.582   4.358  50.203  1.00  0.00     0.033 A 
HETATM   19  C11 UNL     1      25.399   3.229  50.250  1.00  0.00     0.032 A 
HETATM   20  C12 UNL     1      26.603   3.383  49.594  1.00  0.00     0.046 A 
HETATM   21  C13 UNL     1      26.985   4.545  48.944  1.00  0.00     0.138 A 
HETATM   22  F1  UNL     1      28.201   4.525  48.353  1.00  0.00    -0.204 F 
HETATM   23  C14 UNL     1      26.125   5.607  48.946  1.00  0.00     0.074 A 
HETATM   24 CL1  UNL     1      26.705   7.032  48.094  1.00  0.00    -0.081 Cl
HETATM   25  C15 UNL     1      24.908   5.531  49.576  1.00  0.00     0.056 A 
ENDBRANCH  16  18
ENDBRANCH  15  16
ENDBRANCH   1  14
TORSDOF 7
ENDMDL
MODEL 3
REMARK VINA RESULT:      -7.0      5.213      8.131
REMARK  7 active torsions:
REMARK  status: ('A' for Active; 'I' for Inactive)
REMARK    1  A    between atoms: O1_2  and  C2_3 
REMARK    2  A    between atoms: C5_6  and  O2_7 
REMARK    3  A    between atoms: C6_8  and  C7_9 
REMARK    4  A    between atoms: C7_9  and  N1_10 
REMARK    5  A    between atoms: N1_10  and  C8_11 
REMARK    6  A    between atoms: C9_12  and  N2_13 
REMARK    7  A    between atoms: N2_13  and  C10_14 
ROOT
HETATM    1  N1  UNL     1      26.486   4.007  49.231  1.00  0.00    -0.393 N 
HETATM    2  H9  UNL     1      26.800   3.656  48.282  1.00  0.00     0.159 HD
ENDROOT
BRANCH   1   3
HETATM    3  C7  UNL     1      26.207   5.409  49.487  1.00  0.00     0.160 C 
BRANCH   3   4
HETATM    4  C6  UNL     1      26.868   6.318  48.520  1.00  0.00    -0.005 A 
HETATM    5  C5  UNL     1      28.234   6.182  48.354  1.00  0.00     0.073 A 
HETATM    6  C4  UNL     1      28.924   6.997  47.466  1.00  0.00     0.040 A 
HETATM    7  C3  UNL     1      28.251   7.956  46.738  1.00  0.00     0.039 A 
HETATM    8  C2  UNL     1      26.890   8.111  46.886  1.00  0.00     0.069 A 
HETATM    9  C16 UNL     1      26.187   7.292  47.780  1.00  0.00     0.048 A 
BRANCH   5  10
HETATM   10  O2  UNL     1      29.045   5.262  49.018  1.00  0.00    -0.360 OA
HETATM   11  H6  UNL     1      29.687   4.718  48.439  1.00  0.00     0.217 HD
ENDBRANCH   5  10
BRANCH   8  12
HETATM   12  O1  UNL     1      25.999   8.985  46.281  1.00  0.00    -0.356 OA
HETATM   13  C1  UNL     1      25.508   8.884  44.979  1.00  0.00     0.210 C 
ENDBRANCH   8  12
ENDBRANCH   3   4
ENDBRANCH   1   3
BRANCH   1  14
HETATM   14  C8  UNL     1      26.339   3.052  50.282  1.00  0.00     0.100 C 
HETATM   15  C9  UNL     1      25.636   2.757  51.368  1.00  0.00     0.105 C 
BRANCH  15  16
HETATM   16  N2  UNL     1      25.853   1.608  52.175  1.00  0.00    -0.365 N 
HETATM   17  H12 UNL     1      24.880   1.302  52.389  1.00  0.00     0.165 HD
BRANCH  16  18
HETATM   18  C10 UNL     1      27.006   0.929  52.655  1.00  0.00     0.033 A 
HETATM   19  C11 UNL     1      28.024   1.712  53.199  1.00  0.00     0.032 A 
HETATM   20  C12 UNL     1      29.109   0.985  53.644  1.00  0.00     0.046 A 
HETATM   21  C13 UNL     1      29.199  -0.395  53.566  1.00  0.00     0.138 A 
HETATM   22  F1  UNL     1      30.335  -0.947  54.049  1.00  0.00    -0.204 F 
HETATM   23  C14 UNL     1      28.156  -1.088  53.018  1.00  0.00     0.074 A 
HETATM   24 CL1  UNL     1      28.370  -2.832  52.967  1.00  0.00    -0.081 Cl
HETATM   25  C15 UNL     1      27.041  -0.436  52.553  1.00  0.00     0.056 A 
ENDBRANCH  16  18
ENDBRANCH  15  16
ENDBRANCH   1  14
TORSDOF 7
ENDMDL
MODEL 4
REMARK VINA RESULT:      -7.0      5.328      6.754
REMARK  7 active torsions:
REMARK  status: ('A' for Active; 'I' for Inactive)
REMARK    1  A    between atoms: O1_2  and  C2_3 
REMARK    2  A    between atoms: C5_6  and  O2_7 
REMARK    3  A    between atoms: C6_8  and  C7_9 
REMARK    4  A    between atoms: C7_9  and  N1_10 
REMARK    5  A    between atoms: N1_10  and  C8_11 
REMARK    6  A    between atoms: C9_12  and  N2_13 
REMARK    7  A    between atoms: N2_13  and  C10_14 
ROOT
HETATM    1  N1  UNL     1      24.052   3.452  51.240  1.00  0.00    -0.393 N 
HETATM    2  H9  UNL     1      23.216   3.270  50.616  1.00  0.00     0.159 HD
ENDROOT
BRANCH   1   3
HETATM    3  C7  UNL     1      23.993   3.294  52.683  1.00  0.00     0.160 C 
BRANCH   3   4
HETATM    4  C6  UNL     1      24.601   2.026  53.152  1.00  0.00    -0.005 A 
HETATM    5  C5  UNL     1      23.920   0.855  52.876  1.00  0.00     0.073 A 
HETATM    6  C4  UNL     1      24.427  -0.372  53.285  1.00  0.00     0.040 A 
HETATM    7  C3  UNL     1      25.620  -0.435  53.973  1.00  0.00     0.039 A 
HETATM    8  C2  UNL     1      26.318   0.718  54.260  1.00  0.00     0.069 A 
HETATM    9  C16 UNL     1      25.813   1.959  53.852  1.00  0.00     0.048 A 
BRANCH   5  10
HETATM   10  O2  UNL     1      22.708   0.763  52.193  1.00  0.00    -0.360 OA
HETATM   11  H6  UNL     1      22.267   1.645  51.924  1.00  0.00     0.217 HD
ENDBRANCH   5  10
BRANCH   8  12
HETATM   12  O1  UNL     1      27.518   0.917  54.926  1.00  0.00    -0.356 OA
HETATM   13  C1  UNL     1      28.666   0.134  54.800  1.00  0.00     0.210 C 
ENDBRANCH   8  12
ENDBRANCH   3   4
ENDBRANCH   1   3
BRANCH   1  14
HETATM   14  C8  UNL     1      25.270   3.868  50.622  1.00  0.00     0.100 C 
HETATM   15  C9  UNL     1      26.057   3.672  49.572  1.00  0.00     0.105 C 
BRANCH  15  16
HETATM   16  N2  UNL     1      27.275   4.367  49.343  1.00  0.00    -0.365 N 
HETATM   17  H12 UNL     1      27.957   3.804  49.894  1.00  0.00     0.165 HD
BRANCH  16  18
HETATM   18  C10 UNL     1      27.639   5.522  48.599  1.00  0.00     0.033 A 
HETATM   19  C11 UNL     1      26.642   6.467  48.362  1.00  0.00     0.032 A 
HETATM   20  C12 UNL     1      27.069   7.560  47.636  1.00  0.00     0.046 A 
HETATM   21  C13 UNL     1      28.365   7.722  47.175  1.00  0.00     0.138 A 
HETATM   22  F1  UNL     1      28.612   8.854  46.479  1.00  0.00    -0.204 F 
HETATM   23  C14 UNL     1      29.283   6.748  47.451  1.00  0.00     0.074 A 
HETATM   24 CL1  UNL     1      30.896   7.051  46.821  1.00  0.00    -0.081 Cl
HETATM   25  C15 UNL     1      28.934   5.630  48.169  1.00  0.00     0.056 A 
ENDBRANCH  16  18
ENDBRANCH  15  16
ENDBRANCH   1  14
TORSDOF 7
ENDMDL
MODEL 5
REMARK VINA RESULT:      -6.9      4.426      7.239
REMARK  7 active torsions:
REMARK  status: ('A' for Active; 'I' for Inactive)
REMARK    1  A    between atoms: O1_2  and  C2_3 
REMARK    2  A    between atoms: C5_6  and  O2_7 
REMARK    3  A    between atoms: C6_8  and  C7_9 
REMARK    4  A    between atoms: C7_9  and  N1_10 
REMARK    5  A    between atoms: N1_10  and  C8_11 
REMARK    6  A    between atoms: C9_12  and  N2_13 
REMARK    7  A    between atoms: N2_13  and  C10_14 
ROOT
HETATM    1  N1  UNL     1      24.498   4.689  51.246  1.00  0.00    -0.393 N 
HETATM    2  H9  UNL     1      24.434   5.562  51.842  1.00  0.00     0.159 HD
ENDROOT
BRANCH   1   3
HETATM    3  C7  UNL     1      24.492   4.737  49.795  1.00  0.00     0.160 C 
BRANCH   3   4
HETATM    4  C6  UNL     1      25.731   5.321  49.229  1.00  0.00    -0.005 A 
HETATM    5  C5  UNL     1      26.826   4.485  49.101  1.00  0.00     0.073 A 
HETATM    6  C4  UNL     1      28.022   4.960  48.580  1.00  0.00     0.040 A 
HETATM    7  C3  UNL     1      28.132   6.276  48.181  1.00  0.00     0.039 A 
HETATM    8  C2  UNL     1      27.056   7.128  48.298  1.00  0.00     0.069 A 
HETATM    9  C16 UNL     1      25.845   6.657  48.823  1.00  0.00     0.048 A 
BRANCH   5  10
HETATM   10  O2  UNL     1      26.864   3.138  49.460  1.00  0.00    -0.360 OA
HETATM   11  H6  UNL     1      27.655   2.841  50.034  1.00  0.00     0.217 HD
ENDBRANCH   5  10
BRANCH   8  12
HETATM   12  O1  UNL     1      26.914   8.469  47.974  1.00  0.00    -0.356 OA
HETATM   13  C1  UNL     1      27.895   9.453  48.104  1.00  0.00     0.210 C 
ENDBRANCH   8  12
ENDBRANCH   3   4
ENDBRANCH   1   3
BRANCH   1  14
HETATM   14  C8  UNL     1      24.592   3.430  51.913  1.00  0.00     0.100 C 
HETATM   15  C9  UNL     1      24.126   2.725  52.936  1.00  0.00     0.105 C 
BRANCH  15  16
HETATM   16  N2  UNL     1      24.534   1.400  53.248  1.00  0.00    -0.365 N 
HETATM   17  H12 UNL     1      23.627   0.938  53.474  1.00  0.00     0.165 HD
BRANCH  16  18
HETATM   18  C10 UNL     1      25.784   0.725  53.291  1.00  0.00     0.033 A 
HETATM   19  C11 UNL     1      25.833  -0.556  52.741  1.00  0.00     0.032 A 
HETATM   20  C12 UNL     1      27.077  -1.148  52.817  1.00  0.00     0.046 A 
HETATM   21  C13 UNL     1      28.188  -0.543  53.383  1.00  0.00     0.138 A 
HETATM   22  F1  UNL     1      29.329  -1.267  53.375  1.00  0.00    -0.204 F 
HETATM   23  C14 UNL     1      28.054   0.714  53.900  1.00  0.00     0.074 A 
HETATM   24 CL1  UNL     1      29.521   1.391  54.595  1.00  0.00    -0.081 Cl
HETATM   25  C15 UNL     1      26.848   1.370  53.862  1.00  0.00     0.056 A 
ENDBRANCH  16  18
ENDBRANCH  15  16
ENDBRANCH   1  14
TORSDOF 7
ENDMDL
MODEL 6
REMARK VINA RESULT:      -6.9      4.076      6.031
REMARK  7 active torsions:
REMARK  status: ('A' for Active; 'I' for Inactive)
REMARK    1  A    between atoms: O1_2  and  C2_3 
REMARK    2  A    between atoms: C5_6  and  O2_7 
REMARK    3  A    between atoms: C6_8  and  C7_9 
REMARK    4  A    between atoms: C7_9  and  N1_10 
REMARK    5  A    between atoms: N1_10  and  C8_11 
REMARK    6  A    between atoms: C9_12  and  N2_13 
REMARK    7  A    between atoms: N2_13  and  C10_14 
ROOT
HETATM    1  N1  UNL     1      26.521  -0.214  52.441  1.00  0.00    -0.393 N 
HETATM    2  H9  UNL     1      26.752  -1.088  51.890  1.00  0.00     0.159 HD
ENDROOT
BRANCH   1   3
HETATM    3  C7  UNL     1      26.140  -0.258  53.842  1.00  0.00     0.160 C 
BRANCH   3   4
HETATM    4  C6  UNL     1      24.704  -0.565  54.043  1.00  0.00    -0.005 A 
HETATM    5  C5  UNL     1      24.338  -1.129  55.251  1.00  0.00     0.073 A 
HETATM    6  C4  UNL     1      23.012  -1.445  55.512  1.00  0.00     0.040 A 
HETATM    7  C3  UNL     1      22.040  -1.199  54.565  1.00  0.00     0.039 A 
HETATM    8  C2  UNL     1      22.379  -0.637  53.353  1.00  0.00     0.069 A 
HETATM    9  C16 UNL     1      23.715  -0.315  53.082  1.00  0.00     0.048 A 
BRANCH   5  10
HETATM   10  O2  UNL     1      25.206  -1.435  56.300  1.00  0.00    -0.360 OA
HETATM   11  H6  UNL     1      26.206  -1.391  56.092  1.00  0.00     0.217 HD
ENDBRANCH   5  10
BRANCH   8  12
HETATM   12  O1  UNL     1      21.603  -0.296  52.256  1.00  0.00    -0.356 OA
HETATM   13  C1  UNL     1      21.847   0.758  51.375  1.00  0.00     0.210 C 
ENDBRANCH   8  12
ENDBRANCH   3   4
ENDBRANCH   1   3
BRANCH   1  14
HETATM   14  C8  UNL     1      26.592   1.042  51.765  1.00  0.00     0.100 C 
HETATM   15  C9  UNL     1      26.692   2.352  51.951  1.00  0.00     0.105 C 
BRANCH  15  16
HETATM   16  N2  UNL     1      26.729   3.309  50.901  1.00  0.00    -0.365 N 
HETATM   17  H12 UNL     1      27.752   3.485  50.800  1.00  0.00     0.165 HD
BRANCH  16  18
HETATM   18  C10 UNL     1      25.746   3.954  50.103  1.00  0.00     0.033 A 
HETATM   19  C11 UNL     1      24.507   3.324  49.989  1.00  0.00     0.032 A 
HETATM   20  C12 UNL     1      23.604   4.008  49.201  1.00  0.00     0.046 A 
HETATM   21  C13 UNL     1      23.883   5.210  48.572  1.00  0.00     0.138 A 
HETATM   22  F1  UNL     1      22.882   5.743  47.836  1.00  0.00    -0.204 F 
HETATM   23  C14 UNL     1      25.123   5.760  48.736  1.00  0.00     0.074 A 
HETATM   24 CL1  UNL     1      25.374   7.285  47.896  1.00  0.00    -0.081 Cl
HETATM   25  C15 UNL     1      26.076   5.140  49.505  1.00  0.00     0.056 A 
ENDBRANCH  16  18
ENDBRANCH  15  16
ENDBRANCH   1  14
TORSDOF 7
ENDMDL
MODEL 7
REMARK VINA RESULT:      -6.9      5.081      8.230
REMARK  7 active torsions:
REMARK  status: ('A' for Active; 'I' for Inactive)
REMARK    1  A    between atoms: O1_2  and  C2_3 
REMARK    2  A    between atoms: C5_6  and  O2_7 
REMARK    3  A    between atoms: C6_8  and  C7_9 
REMARK    4  A    between atoms: C7_9  and  N1_10 
REMARK    5  A    between atoms: N1_10  and  C8_11 
REMARK    6  A    between atoms: C9_12  and  N2_13 
REMARK    7  A    between atoms: N2_13  and  C10_14 
ROOT
HETATM    1  N1  UNL     1      26.706   3.091  51.232  1.00  0.00    -0.393 N 
HETATM    2  H9  UNL     1      27.303   3.753  51.804  1.00  0.00     0.159 HD
ENDROOT
BRANCH   1   3
HETATM    3  C7  UNL     1      26.596   3.197  49.788  1.00  0.00     0.160 C 
BRANCH   3   4
HETATM    4  C6  UNL     1      26.778   4.582  49.292  1.00  0.00    -0.005 A 
HETATM    5  C5  UNL     1      25.779   5.494  49.577  1.00  0.00     0.073 A 
HETATM    6  C4  UNL     1      25.879   6.810  49.145  1.00  0.00     0.040 A 
HETATM    7  C3  UNL     1      26.980   7.223  48.425  1.00  0.00     0.039 A 
HETATM    8  C2  UNL     1      27.989   6.333  48.128  1.00  0.00     0.069 A 
HETATM    9  C16 UNL     1      27.896   5.003  48.560  1.00  0.00     0.048 A 
BRANCH   5  10
HETATM   10  O2  UNL     1      24.613   5.224  50.292  1.00  0.00    -0.360 OA
HETATM   11  H6  UNL     1      23.734   5.296  49.776  1.00  0.00     0.217 HD
ENDBRANCH   5  10
BRANCH   8  12
HETATM   12  O1  UNL     1      29.177   6.498  47.432  1.00  0.00    -0.356 OA
HETATM   13  C1  UNL     1      29.657   7.695  46.901  1.00  0.00     0.210 C 
ENDBRANCH   8  12
ENDBRANCH   3   4
ENDBRANCH   1   3
BRANCH   1  14
HETATM   14  C8  UNL     1      25.992   2.067  51.925  1.00  0.00     0.100 C 
HETATM   15  C9  UNL     1      25.168   1.838  52.939  1.00  0.00     0.105 C 
BRANCH  15  16
HETATM   16  N2  UNL     1      24.670   0.555  53.292  1.00  0.00    -0.365 N 
HETATM   17  H12 UNL     1      25.547   0.010  53.434  1.00  0.00     0.165 HD
BRANCH  16  18
HETATM   18  C10 UNL     1      23.373  -0.002  53.454  1.00  0.00     0.033 A 
HETATM   19  C11 UNL     1      23.191  -0.893  54.511  1.00  0.00     0.032 A 
HETATM   20  C12 UNL     1      21.908  -1.392  54.606  1.00  0.00     0.046 A 
HETATM   21  C13 UNL     1      20.881  -1.052  53.741  1.00  0.00     0.138 A 
HETATM   22  F1  UNL     1      19.684  -1.635  53.978  1.00  0.00    -0.204 F 
HETATM   23  C14 UNL     1      21.143  -0.171  52.730  1.00  0.00     0.074 A 
HETATM   24 CL1  UNL     1      19.773   0.192  51.689  1.00  0.00    -0.081 Cl
HETATM   25  C15 UNL     1      22.395   0.369  52.570  1.00  0.00     0.056 A 
ENDBRANCH  16  18
ENDBRANCH  15  16
ENDBRANCH   1  14
TORSDOF 7
ENDMDL
MODEL 8
REMARK VINA RESULT:      -6.8      1.533      2.000
REMARK  7 active torsions:
REMARK  status: ('A' for Active; 'I' for Inactive)
REMARK    1  A    between atoms: O1_2  and  C2_3 
REMARK    2  A    between atoms: C5_6  and  O2_7 
REMARK    3  A    between atoms: C6_8  and  C7_9 
REMARK    4  A    between atoms: C7_9  and  N1_10 
REMARK    5  A    between atoms: N1_10  and  C8_11 
REMARK    6  A    between atoms: C9_12  and  N2_13 
REMARK    7  A    between atoms: N2_13  and  C10_14 
ROOT
HETATM    1  N1  UNL     1      23.109   4.779  51.510  1.00  0.00    -0.393 N 
HETATM    2  H9  UNL     1      22.957   5.631  50.899  1.00  0.00     0.159 HD
ENDROOT
BRANCH   1   3
HETATM    3  C7  UNL     1      22.037   4.175  52.281  1.00  0.00     0.160 C 
BRANCH   3   4
HETATM    4  C6  UNL     1      21.751   2.776  51.882  1.00  0.00    -0.005 A 
HETATM    5  C5  UNL     1      21.228   2.572  50.618  1.00  0.00     0.073 A 
HETATM    6  C4  UNL     1      20.934   1.290  50.173  1.00  0.00     0.040 A 
HETATM    7  C3  UNL     1      21.162   0.202  50.990  1.00  0.00     0.039 A 
HETATM    8  C2  UNL     1      21.683   0.380  52.253  1.00  0.00     0.069 A 
HETATM    9  C16 UNL     1      21.982   1.670  52.710  1.00  0.00     0.048 A 
BRANCH   5  10
HETATM   10  O2  UNL     1      20.946   3.570  49.685  1.00  0.00    -0.360 OA
HETATM   11  H6  UNL     1      19.960   3.733  49.477  1.00  0.00     0.217 HD
ENDBRANCH   5  10
BRANCH   8  12
HETATM   12  O1  UNL     1      21.998  -0.534  53.248  1.00  0.00    -0.356 OA
HETATM   13  C1  UNL     1      21.524  -0.513  54.560  1.00  0.00     0.210 C 
ENDBRANCH   8  12
ENDBRANCH   3   4
ENDBRANCH   1   3
BRANCH   1  14
HETATM   14  C8  UNL     1      24.423   4.221  51.564  1.00  0.00     0.100 C 
HETATM   15  C9  UNL     1      25.283   3.450  50.912  1.00  0.00     0.105 C 
BRANCH  15  16
HETATM   16  N2  UNL     1      26.589   3.137  51.376  1.00  0.00    -0.365 N 
HETATM   17  H12 UNL     1      27.148   3.945  51.024  1.00  0.00     0.165 HD
BRANCH  16  18
HETATM   18  C10 UNL     1      27.153   2.068  52.124  1.00  0.00     0.033 A 
HETATM   19  C11 UNL     1      28.143   2.393  53.051  1.00  0.00     0.032 A 
HETATM   20  C12 UNL     1      28.643   1.307  53.739  1.00  0.00     0.046 A 
HETATM   21  C13 UNL     1      28.214   0.004  53.541  1.00  0.00     0.138 A 
HETATM   22  F1  UNL     1      28.811  -0.941  54.301  1.00  0.00    -0.204 F 
HETATM   23  C14 UNL     1      27.239  -0.229  52.613  1.00  0.00     0.074 A 
HETATM   24 CL1  UNL     1      26.767  -1.914  52.440  1.00  0.00    -0.081 Cl
HETATM   25  C15 UNL     1      26.692   0.801  51.888  1.00  0.00     0.056 A 
ENDBRANCH  16  18
ENDBRANCH  15  16
ENDBRANCH   1  14
TORSDOF 7
ENDMDL
MODEL 9
REMARK VINA RESULT:      -6.8      4.919      7.851
REMARK  7 active torsions:
REMARK  status: ('A' for Active; 'I' for Inactive)
REMARK    1  A    between atoms: O1_2  and  C2_3 
REMARK    2  A    between atoms: C5_6  and  O2_7 
REMARK    3  A    between atoms: C6_8  and  C7_9 
REMARK    4  A    between atoms: C7_9  and  N1_10 
REMARK    5  A    between atoms: N1_10  and  C8_11 
REMARK    6  A    between atoms: C9_12  and  N2_13 
REMARK    7  A    between atoms: N2_13  and  C10_14 
ROOT
HETATM    1  N1  UNL     1      26.783   3.572  50.751  1.00  0.00    -0.393 N 
HETATM    2  H9  UNL     1      27.606   4.181  51.023  1.00  0.00     0.159 HD
ENDROOT
BRANCH   1   3
HETATM    3  C7  UNL     1      26.068   3.747  49.499  1.00  0.00     0.160 C 
BRANCH   3   4
HETATM    4  C6  UNL     1      26.166   5.126  48.963  1.00  0.00    -0.005 A 
HETATM    5  C5  UNL     1      27.433   5.639  48.758  1.00  0.00     0.073 A 
HETATM    6  C4  UNL     1      27.604   6.923  48.259  1.00  0.00     0.040 A 
HETATM    7  C3  UNL     1      26.507   7.705  47.962  1.00  0.00     0.039 A 
HETATM    8  C2  UNL     1      25.234   7.216  48.157  1.00  0.00     0.069 A 
HETATM    9  C16 UNL     1      25.053   5.921  48.660  1.00  0.00     0.048 A 
BRANCH   5  10
HETATM   10  O2  UNL     1      28.630   4.969  49.011  1.00  0.00    -0.360 OA
HETATM   11  H6  UNL     1      29.442   5.264  48.466  1.00  0.00     0.217 HD
ENDBRANCH   5  10
BRANCH   8  12
HETATM   12  O1  UNL     1      23.991   7.792  47.940  1.00  0.00    -0.356 OA
HETATM   13  C1  UNL     1      23.099   8.212  48.926  1.00  0.00     0.210 C 
ENDBRANCH   8  12
ENDBRANCH   3   4
ENDBRANCH   1   3
BRANCH   1  14
HETATM   14  C8  UNL     1      26.376   2.551  51.663  1.00  0.00     0.100 C 
HETATM   15  C9  UNL     1      26.126   1.253  51.770  1.00  0.00     0.105 C 
BRANCH  15  16
HETATM   16  N2  UNL     1      25.712   0.613  52.970  1.00  0.00    -0.365 N 
HETATM   17  H12 UNL     1      26.585   0.629  53.540  1.00  0.00     0.165 HD
BRANCH  16  18
HETATM   18  C10 UNL     1      24.491   0.051  53.431  1.00  0.00     0.033 A 
HETATM   19  C11 UNL     1      24.548  -0.734  54.582  1.00  0.00     0.032 A 
HETATM   20  C12 UNL     1      23.326  -1.245  54.970  1.00  0.00     0.046 A 
HETATM   21  C13 UNL     1      22.140  -1.011  54.292  1.00  0.00     0.138 A 
HETATM   22  F1  UNL     1      21.034  -1.590  54.810  1.00  0.00    -0.204 F 
HETATM   23  C14 UNL     1      22.172  -0.230  53.172  1.00  0.00     0.074 A 
HETATM   24 CL1  UNL     1      20.616   0.004  52.387  1.00  0.00    -0.081 Cl
HETATM   25  C15 UNL     1      23.349   0.315  52.723  1.00  0.00     0.056 A 
ENDBRANCH  16  18
ENDBRANCH  15  16
ENDBRANCH   1  14
TORSDOF 7
ENDMDL
