MODEL 1
REMARK VINA RESULT:      -7.8      0.000      0.000
REMARK  6 active torsions:
REMARK  status: ('A' for Active; 'I' for Inactive)
REMARK    1  A    between atoms: C13_15  and  O1_16 
REMARK    2  A    between atoms: O1_16  and  C14_17 
REMARK    3  A    between atoms: C14_17  and  C15_18 
REMARK    4  A    between atoms: C15_18  and  O2_19 
REMARK    5  A    between atoms: C18_23  and  C19_24 
REMARK    6  A    between atoms: C19_24  and  O4_25 
ROOT
HETATM    1  C1  UNL     1      27.065  -2.365  52.316  1.00  0.00     0.018 C 
HETATM    2  C2  UNL     1      26.586  -1.283  52.386  1.00  0.00    -0.074 C 
HETATM    3  C3  UNL     1      25.985   0.014  52.464  1.00  0.00     0.064 C 
HETATM    4  C4  UNL     1      26.453   0.951  51.619  1.00  0.00     0.024 C 
HETATM    5  C5  UNL     1      26.291   2.394  51.401  1.00  0.00    -0.002 C 
HETATM    6  C6  UNL     1      25.425   3.204  52.004  1.00  0.00    -0.021 C 
HETATM    7  C7  UNL     1      24.152   3.284  52.764  1.00  0.00     0.082 C 
HETATM    8  C8  UNL     1      23.410   1.994  52.782  1.00  0.00     0.021 C 
HETATM    9  N1  UNL     1      23.783   1.067  53.615  1.00  0.00    -0.237 NA
HETATM   10  C9  UNL     1      24.915   0.168  53.485  1.00  0.00     0.163 C 
HETATM   11  N2  UNL     1      25.229  -0.752  54.304  1.00  0.00    -0.266 NA
HETATM   12  C10 UNL     1      24.601  -1.138  55.516  1.00  0.00     0.178 C 
HETATM   13  C11 UNL     1      23.153  -1.262  55.541  1.00  0.00    -0.003 C 
HETATM   14  C12 UNL     1      21.921  -1.209  55.001  1.00  0.00     0.033 C 
HETATM   15  C13 UNL     1      21.183  -0.917  53.740  1.00  0.00     0.078 C 
HETATM   16  C17 UNL     1      21.782  -0.541  52.595  1.00  0.00     0.213 C 
HETATM   17  O3  UNL     1      21.879  -0.168  51.303  1.00  0.00    -0.368 OA
HETATM   18  C18 UNL     1      22.361   1.026  50.781  1.00  0.00     0.151 C 
HETATM   19  C21 UNL     1      22.393   2.186  51.724  1.00  0.00     0.089 C 
ENDROOT
BRANCH  18  20
HETATM   20  C19 UNL     1      21.705   1.373  49.452  1.00  0.00     0.199 C 
BRANCH  20  21
HETATM   21  O4  UNL     1      20.343   1.091  49.493  1.00  0.00    -0.393 OA
HETATM   22  C20 UNL     1      19.670   2.252  49.089  1.00  0.00     0.201 C 
ENDBRANCH  20  21
ENDBRANCH  18  20
BRANCH  15  23
HETATM   23  O1  UNL     1      19.799  -1.079  53.895  1.00  0.00    -0.351 OA
BRANCH  23  24
HETATM   24  C14 UNL     1      18.849  -0.674  52.943  1.00  0.00     0.201 C 
BRANCH  24  25
HETATM   25  C15 UNL     1      17.650  -1.577  52.998  1.00  0.00     0.193 C 
BRANCH  25  26
HETATM   26  O2  UNL     1      17.767  -2.636  53.875  1.00  0.00    -0.394 OA
HETATM   27  C16 UNL     1      17.061  -3.761  53.526  1.00  0.00     0.201 C 
ENDBRANCH  25  26
ENDBRANCH  24  25
ENDBRANCH  23  24
ENDBRANCH  15  23
TORSDOF 6
ENDMDL
MODEL 2
REMARK VINA RESULT:      -6.8      4.394      8.047
REMARK  6 active torsions:
REMARK  status: ('A' for Active; 'I' for Inactive)
REMARK    1  A    between atoms: C13_15  and  O1_16 
REMARK    2  A    between atoms: O1_16  and  C14_17 
REMARK    3  A    between atoms: C14_17  and  C15_18 
REMARK    4  A    between atoms: C15_18  and  O2_19 
REMARK    5  A    between atoms: C18_23  and  C19_24 
REMARK    6  A    between atoms: C19_24  and  O4_25 
ROOT
HETATM    1  C1  UNL     1      25.083   2.433  53.665  1.00  0.00     0.018 C 
HETATM    2  C2  UNL     1      24.480   2.277  52.657  1.00  0.00    -0.074 C 
HETATM    3  C3  UNL     1      23.748   2.111  51.438  1.00  0.00     0.064 C 
HETATM    4  C4  UNL     1      22.615   1.389  51.504  1.00  0.00     0.024 C 
HETATM    5  C5  UNL     1      21.626   0.831  50.572  1.00  0.00    -0.002 C 
HETATM    6  C6  UNL     1      21.552   1.045  49.261  1.00  0.00    -0.021 C 
HETATM    7  C7  UNL     1      21.939   1.945  48.145  1.00  0.00     0.082 C 
HETATM    8  C8  UNL     1      22.539   3.222  48.617  1.00  0.00     0.021 C 
HETATM    9  N1  UNL     1      23.787   3.233  48.984  1.00  0.00    -0.237 NA
HETATM   10  C9  UNL     1      24.342   2.757  50.237  1.00  0.00     0.163 C 
HETATM   11  N2  UNL     1      25.567   2.815  50.575  1.00  0.00    -0.266 NA
HETATM   12  C10 UNL     1      26.679   3.328  49.861  1.00  0.00     0.178 C 
HETATM   13  C11 UNL     1      26.543   4.608  49.186  1.00  0.00    -0.003 C 
HETATM   14  C12 UNL     1      25.878   5.715  48.807  1.00  0.00     0.033 C 
HETATM   15  C13 UNL     1      24.564   6.411  48.907  1.00  0.00     0.078 C 
HETATM   16  C17 UNL     1      23.507   5.915  49.578  1.00  0.00     0.213 C 
HETATM   17  O3  UNL     1      22.253   5.871  50.070  1.00  0.00    -0.368 OA
HETATM   18  C18 UNL     1      21.249   4.950  49.799  1.00  0.00     0.151 C 
HETATM   19  C21 UNL     1      21.403   4.169  48.533  1.00  0.00     0.089 C 
ENDROOT
BRANCH  18  20
HETATM   20  C19 UNL     1      19.862   5.560  49.941  1.00  0.00     0.199 C 
BRANCH  20  21
HETATM   21  O4  UNL     1      18.923   4.574  50.229  1.00  0.00    -0.393 OA
HETATM   22  C20 UNL     1      19.362   3.916  51.386  1.00  0.00     0.201 C 
ENDBRANCH  20  21
ENDBRANCH  18  20
BRANCH  15  23
HETATM   23  O1  UNL     1      24.566   7.634  48.221  1.00  0.00    -0.351 OA
BRANCH  23  24
HETATM   24  C14 UNL     1      24.364   8.880  48.837  1.00  0.00     0.201 C 
BRANCH  24  25
HETATM   25  C15 UNL     1      25.579   9.744  48.655  1.00  0.00     0.193 C 
BRANCH  25  26
HETATM   26  O2  UNL     1      26.258  10.037  49.820  1.00  0.00    -0.394 OA
HETATM   27  C16 UNL     1      27.138   9.069  50.238  1.00  0.00     0.201 C 
ENDBRANCH  25  26
ENDBRANCH  24  25
ENDBRANCH  23  24
ENDBRANCH  15  23
TORSDOF 6
ENDMDL
MODEL 3
REMARK VINA RESULT:      -6.7      3.383      6.703
REMARK  6 active torsions:
REMARK  status: ('A' for Active; 'I' for Inactive)
REMARK    1  A    between atoms: C13_15  and  O1_16 
REMARK    2  A    between atoms: O1_16  and  C14_17 
REMARK    3  A    between atoms: C14_17  and  C15_18 
REMARK    4  A    between atoms: C15_18  and  O2_19 
REMARK    5  A    between atoms: C18_23  and  C19_24 
REMARK    6  A    between atoms: C19_24  and  O4_25 
ROOT
HETATM    1  C1  UNL     1      17.935   3.704  51.638  1.00  0.00     0.018 C 
HETATM    2  C2  UNL     1      18.781   3.460  50.844  1.00  0.00    -0.074 C 
HETATM    3  C3  UNL     1      19.819   3.171  49.903  1.00  0.00     0.064 C 
HETATM    4  C4  UNL     1      19.864   3.935  48.796  1.00  0.00     0.024 C 
HETATM    5  C5  UNL     1      20.597   3.961  47.523  1.00  0.00    -0.002 C 
HETATM    6  C6  UNL     1      21.621   3.188  47.172  1.00  0.00    -0.021 C 
HETATM    7  C7  UNL     1      22.716   2.312  47.662  1.00  0.00     0.082 C 
HETATM    8  C8  UNL     1      22.893   2.384  49.138  1.00  0.00     0.021 C 
HETATM    9  N1  UNL     1      22.086   1.707  49.901  1.00  0.00    -0.237 NA
HETATM   10  C9  UNL     1      20.723   2.046  50.264  1.00  0.00     0.163 C 
HETATM   11  N2  UNL     1      19.974   1.376  51.043  1.00  0.00    -0.266 NA
HETATM   12  C10 UNL     1      20.240   0.169  51.737  1.00  0.00     0.178 C 
HETATM   13  C11 UNL     1      21.511   0.029  52.427  1.00  0.00    -0.003 C 
HETATM   14  C12 UNL     1      22.727   0.444  52.827  1.00  0.00     0.033 C 
HETATM   15  C13 UNL     1      23.680   1.588  52.757  1.00  0.00     0.078 C 
HETATM   16  C17 UNL     1      23.427   2.729  52.088  1.00  0.00     0.213 C 
HETATM   17  O3  UNL     1      23.652   3.970  51.611  1.00  0.00    -0.368 OA
HETATM   18  C18 UNL     1      23.740   4.385  50.288  1.00  0.00     0.151 C 
HETATM   19  C21 UNL     1      24.035   3.315  49.285  1.00  0.00     0.089 C 
ENDROOT
BRANCH  18  20
HETATM   20  C19 UNL     1      24.647   5.596  50.130  1.00  0.00     0.199 C 
BRANCH  20  21
HETATM   21  O4  UNL     1      25.922   5.202  49.735  1.00  0.00    -0.393 OA
HETATM   22  C20 UNL     1      26.447   6.238  48.951  1.00  0.00     0.201 C 
ENDBRANCH  20  21
ENDBRANCH  18  20
BRANCH  15  23
HETATM   23  O1  UNL     1      24.861   1.330  53.467  1.00  0.00    -0.351 OA
BRANCH  23  24
HETATM   24  C14 UNL     1      25.306   0.042  53.810  1.00  0.00     0.201 C 
BRANCH  24  25
HETATM   25  C15 UNL     1      26.286   0.124  54.944  1.00  0.00     0.193 C 
BRANCH  25  26
HETATM   26  O2  UNL     1      27.471  -0.551  54.731  1.00  0.00    -0.394 OA
HETATM   27  C16 UNL     1      28.583   0.248  54.618  1.00  0.00     0.201 C 
ENDBRANCH  25  26
ENDBRANCH  24  25
ENDBRANCH  23  24
ENDBRANCH  15  23
TORSDOF 6
ENDMDL
MODEL 4
REMARK VINA RESULT:      -6.5     11.979     15.802
REMARK  6 active torsions:
REMARK  status: ('A' for Active; 'I' for Inactive)
REMARK    1  A    between atoms: C13_15  and  O1_16 
REMARK    2  A    between atoms: O1_16  and  C14_17 
REMARK    3  A    between atoms: C14_17  and  C15_18 
REMARK    4  A    between atoms: C15_18  and  O2_19 
REMARK    5  A    between atoms: C18_23  and  C19_24 
REMARK    6  A    between atoms: C19_24  and  O4_25 
ROOT
HETATM    1  C1  UNL     1      29.517   6.161  48.066  1.00  0.00     0.018 C 
HETATM    2  C2  UNL     1      30.508   5.586  47.763  1.00  0.00    -0.074 C 
HETATM    3  C3  UNL     1      31.707   4.905  47.378  1.00  0.00     0.064 C 
HETATM    4  C4  UNL     1      31.594   3.598  47.082  1.00  0.00     0.024 C 
HETATM    5  C5  UNL     1      32.487   2.470  46.787  1.00  0.00    -0.002 C 
HETATM    6  C6  UNL     1      33.803   2.517  46.602  1.00  0.00    -0.021 C 
HETATM    7  C7  UNL     1      34.960   3.384  46.258  1.00  0.00     0.082 C 
HETATM    8  C8  UNL     1      34.546   4.730  45.777  1.00  0.00     0.021 C 
HETATM    9  N1  UNL     1      34.202   5.631  46.650  1.00  0.00    -0.237 NA
HETATM   10  C9  UNL     1      32.942   5.734  47.361  1.00  0.00     0.163 C 
HETATM   11  N2  UNL     1      32.627   6.652  48.184  1.00  0.00    -0.266 NA
HETATM   12  C10 UNL     1      33.380   7.771  48.622  1.00  0.00     0.178 C 
HETATM   13  C11 UNL     1      34.100   8.555  47.633  1.00  0.00    -0.003 C 
HETATM   14  C12 UNL     1      34.509   8.856  46.387  1.00  0.00     0.033 C 
HETATM   15  C13 UNL     1      34.413   8.427  44.963  1.00  0.00     0.078 C 
HETATM   16  C17 UNL     1      33.706   7.358  44.552  1.00  0.00     0.213 C 
HETATM   17  O3  UNL     1      33.190   6.462  43.687  1.00  0.00    -0.368 OA
HETATM   18  C18 UNL     1      33.408   5.091  43.627  1.00  0.00     0.151 C 
HETATM   19  C21 UNL     1      34.646   4.597  44.306  1.00  0.00     0.089 C 
ENDROOT
BRANCH  18  20
HETATM   20  C19 UNL     1      33.265   4.552  42.212  1.00  0.00     0.199 C 
BRANCH  20  21
HETATM   21  O4  UNL     1      33.279   5.594  41.290  1.00  0.00    -0.393 OA
HETATM   22  C20 UNL     1      32.167   5.418  40.455  1.00  0.00     0.201 C 
ENDBRANCH  20  21
ENDBRANCH  18  20
BRANCH  15  23
HETATM   23  O1  UNL     1      35.144   9.268  44.112  1.00  0.00    -0.351 OA
BRANCH  23  24
HETATM   24  C14 UNL     1      35.008   9.282  42.714  1.00  0.00     0.201 C 
BRANCH  24  25
HETATM   25  C15 UNL     1      36.330   8.981  42.068  1.00  0.00     0.193 C 
BRANCH  25  26
HETATM   26  O2  UNL     1      36.989   7.886  42.589  1.00  0.00    -0.394 OA
HETATM   27  C16 UNL     1      36.711   6.691  41.971  1.00  0.00     0.201 C 
ENDBRANCH  25  26
ENDBRANCH  24  25
ENDBRANCH  23  24
ENDBRANCH  15  23
TORSDOF 6
ENDMDL
MODEL 5
REMARK VINA RESULT:      -6.2      2.014      3.482
REMARK  6 active torsions:
REMARK  status: ('A' for Active; 'I' for Inactive)
REMARK    1  A    between atoms: C13_15  and  O1_16 
REMARK    2  A    between atoms: O1_16  and  C14_17 
REMARK    3  A    between atoms: C14_17  and  C15_18 
REMARK    4  A    between atoms: C15_18  and  O2_19 
REMARK    5  A    between atoms: C18_23  and  C19_24 
REMARK    6  A    between atoms: C19_24  and  O4_25 
ROOT
HETATM    1  C1  UNL     1      26.836   3.231  49.217  1.00  0.00     0.018 C 
HETATM    2  C2  UNL     1      25.856   3.601  49.772  1.00  0.00    -0.074 C 
HETATM    3  C3  UNL     1      24.663   4.026  50.439  1.00  0.00     0.064 C 
HETATM    4  C4  UNL     1      23.964   5.018  49.859  1.00  0.00     0.024 C 
HETATM    5  C5  UNL     1      22.814   5.872  50.185  1.00  0.00    -0.002 C 
HETATM    6  C6  UNL     1      22.009   5.762  51.238  1.00  0.00    -0.021 C 
HETATM    7  C7  UNL     1      21.504   4.859  52.304  1.00  0.00     0.082 C 
HETATM    8  C8  UNL     1      21.913   3.443  52.098  1.00  0.00     0.021 C 
HETATM    9  N1  UNL     1      23.115   3.080  52.438  1.00  0.00    -0.237 NA
HETATM   10  C9  UNL     1      24.347   3.317  51.708  1.00  0.00     0.163 C 
HETATM   11  N2  UNL     1      25.503   2.916  52.055  1.00  0.00    -0.266 NA
HETATM   12  C10 UNL     1      25.898   2.170  53.194  1.00  0.00     0.178 C 
HETATM   13  C11 UNL     1      25.105   1.014  53.577  1.00  0.00    -0.003 C 
HETATM   14  C12 UNL     1      24.083   0.147  53.449  1.00  0.00     0.033 C 
HETATM   15  C13 UNL     1      22.893  -0.180  52.615  1.00  0.00     0.078 C 
HETATM   16  C17 UNL     1      22.515   0.538  51.540  1.00  0.00     0.213 C 
HETATM   17  O3  UNL     1      21.769   0.885  50.472  1.00  0.00    -0.368 OA
HETATM   18  C18 UNL     1      21.048   2.053  50.263  1.00  0.00     0.151 C 
HETATM   19  C21 UNL     1      20.706   2.839  51.490  1.00  0.00     0.089 C 
ENDROOT
BRANCH  18  20
HETATM   20  C19 UNL     1      19.842   1.826  49.363  1.00  0.00     0.199 C 
BRANCH  20  21
HETATM   21  O4  UNL     1      18.662   1.931  50.094  1.00  0.00    -0.393 OA
HETATM   22  C20 UNL     1      18.034   0.679  50.040  1.00  0.00     0.201 C 
ENDBRANCH  20  21
ENDBRANCH  18  20
BRANCH  15  23
HETATM   23  O1  UNL     1      22.221  -1.317  53.085  1.00  0.00    -0.351 OA
BRANCH  23  24
HETATM   24  C14 UNL     1      21.437  -1.341  54.250  1.00  0.00     0.201 C 
BRANCH  24  25
HETATM   25  C15 UNL     1      20.316  -0.348  54.134  1.00  0.00     0.193 C 
BRANCH  25  26
HETATM   26  O2  UNL     1      19.476  -0.551  53.058  1.00  0.00    -0.394 OA
HETATM   27  C16 UNL     1      18.314  -1.224  53.347  1.00  0.00     0.201 C 
ENDBRANCH  25  26
ENDBRANCH  24  25
ENDBRANCH  23  24
ENDBRANCH  15  23
TORSDOF 6
ENDMDL
MODEL 6
REMARK VINA RESULT:      -6.2      2.292      3.611
REMARK  6 active torsions:
REMARK  status: ('A' for Active; 'I' for Inactive)
REMARK    1  A    between atoms: C13_15  and  O1_16 
REMARK    2  A    between atoms: O1_16  and  C14_17 
REMARK    3  A    between atoms: C14_17  and  C15_18 
REMARK    4  A    between atoms: C15_18  and  O2_19 
REMARK    5  A    between atoms: C18_23  and  C19_24 
REMARK    6  A    between atoms: C19_24  and  O4_25 
ROOT
HETATM    1  C1  UNL     1      24.936  -0.633  52.990  1.00  0.00     0.018 C 
HETATM    2  C2  UNL     1      24.340   0.383  52.855  1.00  0.00    -0.074 C 
HETATM    3  C3  UNL     1      23.608   1.599  52.675  1.00  0.00     0.064 C 
HETATM    4  C4  UNL     1      24.305   2.671  52.256  1.00  0.00     0.024 C 
HETATM    5  C5  UNL     1      24.075   4.109  52.063  1.00  0.00    -0.002 C 
HETATM    6  C6  UNL     1      22.917   4.755  52.162  1.00  0.00    -0.021 C 
HETATM    7  C7  UNL     1      21.437   4.624  52.139  1.00  0.00     0.082 C 
HETATM    8  C8  UNL     1      20.986   3.278  51.695  1.00  0.00     0.021 C 
HETATM    9  N1  UNL     1      21.003   2.295  52.547  1.00  0.00    -0.237 NA
HETATM   10  C9  UNL     1      22.154   1.529  52.985  1.00  0.00     0.163 C 
HETATM   11  N2  UNL     1      22.128   0.549  53.796  1.00  0.00    -0.266 NA
HETATM   12  C10 UNL     1      21.028  -0.036  54.472  1.00  0.00     0.178 C 
HETATM   13  C11 UNL     1      19.810  -0.297  53.723  1.00  0.00    -0.003 C 
HETATM   14  C12 UNL     1      19.041  -0.295  52.618  1.00  0.00     0.033 C 
HETATM   15  C13 UNL     1      19.026   0.078  51.176  1.00  0.00     0.078 C 
HETATM   16  C17 UNL     1      20.069   0.644  50.540  1.00  0.00     0.213 C 
HETATM   17  O3  UNL     1      20.764   1.178  49.516  1.00  0.00    -0.368 OA
HETATM   18  C18 UNL     1      21.270   2.465  49.391  1.00  0.00     0.151 C 
HETATM   19  C21 UNL     1      20.645   3.501  50.271  1.00  0.00     0.089 C 
ENDROOT
BRANCH  18  20
HETATM   20  C19 UNL     1      21.352   2.908  47.938  1.00  0.00     0.199 C 
BRANCH  20  21
HETATM   21  O4  UNL     1      20.105   2.811  47.328  1.00  0.00    -0.393 OA
HETATM   22  C20 UNL     1      20.064   3.783  46.320  1.00  0.00     0.201 C 
ENDBRANCH  20  21
ENDBRANCH  18  20
BRANCH  15  23
HETATM   23  O1  UNL     1      17.800  -0.230  50.569  1.00  0.00    -0.351 OA
BRANCH  23  24
HETATM   24  C14 UNL     1      17.050   0.680  49.806  1.00  0.00     0.201 C 
BRANCH  24  25
HETATM   25  C15 UNL     1      16.174   1.503  50.706  1.00  0.00     0.193 C 
BRANCH  25  26
HETATM   26  O2  UNL     1      16.361   2.866  50.604  1.00  0.00    -0.394 OA
HETATM   27  C16 UNL     1      17.095   3.430  51.619  1.00  0.00     0.201 C 
ENDBRANCH  25  26
ENDBRANCH  24  25
ENDBRANCH  23  24
ENDBRANCH  15  23
TORSDOF 6
ENDMDL
MODEL 7
REMARK VINA RESULT:      -6.1      2.618      4.376
REMARK  6 active torsions:
REMARK  status: ('A' for Active; 'I' for Inactive)
REMARK    1  A    between atoms: C13_15  and  O1_16 
REMARK    2  A    between atoms: O1_16  and  C14_17 
REMARK    3  A    between atoms: C14_17  and  C15_18 
REMARK    4  A    between atoms: C15_18  and  O2_19 
REMARK    5  A    between atoms: C18_23  and  C19_24 
REMARK    6  A    between atoms: C19_24  and  O4_25 
ROOT
HETATM    1  C1  UNL     1      26.893   3.622  49.259  1.00  0.00     0.018 C 
HETATM    2  C2  UNL     1      25.845   4.119  49.504  1.00  0.00    -0.074 C 
HETATM    3  C3  UNL     1      24.569   4.697  49.796  1.00  0.00     0.064 C 
HETATM    4  C4  UNL     1      24.155   5.691  48.990  1.00  0.00     0.024 C 
HETATM    5  C5  UNL     1      23.054   6.663  48.941  1.00  0.00    -0.002 C 
HETATM    6  C6  UNL     1      21.992   6.711  49.740  1.00  0.00    -0.021 C 
HETATM    7  C7  UNL     1      21.134   5.947  50.681  1.00  0.00     0.082 C 
HETATM    8  C8  UNL     1      21.434   4.489  50.678  1.00  0.00     0.021 C 
HETATM    9  N1  UNL     1      22.459   4.057  51.352  1.00  0.00    -0.237 NA
HETATM   10  C9  UNL     1      23.857   4.128  50.972  1.00  0.00     0.163 C 
HETATM   11  N2  UNL     1      24.833   3.662  51.642  1.00  0.00    -0.266 NA
HETATM   12  C10 UNL     1      24.833   2.985  52.887  1.00  0.00     0.178 C 
HETATM   13  C11 UNL     1      23.852   1.936  53.109  1.00  0.00    -0.003 C 
HETATM   14  C12 UNL     1      22.816   1.149  52.760  1.00  0.00     0.033 C 
HETATM   15  C13 UNL     1      21.861   0.854  51.655  1.00  0.00     0.078 C 
HETATM   16  C17 UNL     1      21.858   1.507  50.478  1.00  0.00     0.213 C 
HETATM   17  O3  UNL     1      21.461   1.823  49.229  1.00  0.00    -0.368 OA
HETATM   18  C18 UNL     1      20.945   3.026  48.763  1.00  0.00     0.151 C 
HETATM   19  C21 UNL     1      20.374   3.939  49.802  1.00  0.00     0.089 C 
ENDROOT
BRANCH  18  20
HETATM   20  C19 UNL     1      20.004   2.825  47.585  1.00  0.00     0.199 C 
BRANCH  20  21
HETATM   21  O4  UNL     1      18.679   2.933  47.996  1.00  0.00    -0.393 OA
HETATM   22  C20 UNL     1      17.943   3.393  46.895  1.00  0.00     0.201 C 
ENDBRANCH  20  21
ENDBRANCH  18  20
BRANCH  15  23
HETATM   23  O1  UNL     1      20.975  -0.179  51.992  1.00  0.00    -0.351 OA
BRANCH  23  24
HETATM   24  C14 UNL     1      20.290  -0.259  53.216  1.00  0.00     0.201 C 
BRANCH  24  25
HETATM   25  C15 UNL     1      20.844  -1.386  54.039  1.00  0.00     0.193 C 
BRANCH  25  26
HETATM   26  O2  UNL     1      21.517  -0.992  55.177  1.00  0.00    -0.394 OA
HETATM   27  C16 UNL     1      22.807  -1.451  55.279  1.00  0.00     0.201 C 
ENDBRANCH  25  26
ENDBRANCH  24  25
ENDBRANCH  23  24
ENDBRANCH  15  23
TORSDOF 6
ENDMDL
MODEL 8
REMARK VINA RESULT:      -6.1      2.574      6.239
REMARK  6 active torsions:
REMARK  status: ('A' for Active; 'I' for Inactive)
REMARK    1  A    between atoms: C13_15  and  O1_16 
REMARK    2  A    between atoms: O1_16  and  C14_17 
REMARK    3  A    between atoms: C14_17  and  C15_18 
REMARK    4  A    between atoms: C15_18  and  O2_19 
REMARK    5  A    between atoms: C18_23  and  C19_24 
REMARK    6  A    between atoms: C19_24  and  O4_25 
ROOT
HETATM    1  C1  UNL     1      16.614   3.894  51.754  1.00  0.00     0.018 C 
HETATM    2  C2  UNL     1      17.503   3.384  51.159  1.00  0.00    -0.074 C 
HETATM    3  C3  UNL     1      18.589   2.766  50.461  1.00  0.00     0.064 C 
HETATM    4  C4  UNL     1      19.170   3.487  49.484  1.00  0.00     0.024 C 
HETATM    5  C5  UNL     1      20.171   3.278  48.429  1.00  0.00    -0.002 C 
HETATM    6  C6  UNL     1      20.929   2.202  48.246  1.00  0.00    -0.021 C 
HETATM    7  C7  UNL     1      21.501   0.986  48.880  1.00  0.00     0.082 C 
HETATM    8  C8  UNL     1      21.306   0.962  50.355  1.00  0.00     0.021 C 
HETATM    9  N1  UNL     1      20.152   0.598  50.831  1.00  0.00    -0.237 NA
HETATM   10  C9  UNL     1      18.937   1.388  50.899  1.00  0.00     0.163 C 
HETATM   11  N2  UNL     1      17.833   1.010  51.404  1.00  0.00    -0.266 NA
HETATM   12  C10 UNL     1      17.490  -0.228  52.006  1.00  0.00     0.178 C 
HETATM   13  C11 UNL     1      18.418  -0.820  52.955  1.00  0.00    -0.003 C 
HETATM   14  C12 UNL     1      19.556  -0.867  53.671  1.00  0.00     0.033 C 
HETATM   15  C13 UNL     1      20.822  -0.131  53.950  1.00  0.00     0.078 C 
HETATM   16  C17 UNL     1      21.148   1.039  53.369  1.00  0.00     0.213 C 
HETATM   17  O3  UNL     1      21.891   2.130  53.095  1.00  0.00    -0.368 OA
HETATM   18  C18 UNL     1      22.450   2.513  51.882  1.00  0.00     0.151 C 
HETATM   19  C21 UNL     1      22.616   1.428  50.866  1.00  0.00     0.089 C 
ENDROOT
BRANCH  18  20
HETATM   20  C19 UNL     1      23.719   3.331  52.073  1.00  0.00     0.199 C 
BRANCH  20  21
HETATM   21  O4  UNL     1      24.301   3.046  53.305  1.00  0.00    -0.393 OA
HETATM   22  C20 UNL     1      25.483   2.338  53.046  1.00  0.00     0.201 C 
ENDBRANCH  20  21
ENDBRANCH  18  20
BRANCH  15  23
HETATM   23  O1  UNL     1      21.622  -0.803  54.885  1.00  0.00    -0.351 OA
BRANCH  23  24
HETATM   24  C14 UNL     1      22.720  -1.610  54.543  1.00  0.00     0.201 C 
BRANCH  24  25
HETATM   25  C15 UNL     1      23.896  -0.750  54.182  1.00  0.00     0.193 C 
BRANCH  25  26
HETATM   26  O2  UNL     1      25.060  -1.051  54.860  1.00  0.00    -0.394 OA
HETATM   27  C16 UNL     1      24.946  -1.075  56.229  1.00  0.00     0.201 C 
ENDBRANCH  25  26
ENDBRANCH  24  25
ENDBRANCH  23  24
ENDBRANCH  15  23
TORSDOF 6
ENDMDL
MODEL 9
REMARK VINA RESULT:      -6.1      4.825      9.085
REMARK  6 active torsions:
REMARK  status: ('A' for Active; 'I' for Inactive)
REMARK    1  A    between atoms: C13_15  and  O1_16 
REMARK    2  A    between atoms: O1_16  and  C14_17 
REMARK    3  A    between atoms: C14_17  and  C15_18 
REMARK    4  A    between atoms: C15_18  and  O2_19 
REMARK    5  A    between atoms: C18_23  and  C19_24 
REMARK    6  A    between atoms: C19_24  and  O4_25 
ROOT
HETATM    1  C1  UNL     1      21.895   3.631  45.648  1.00  0.00     0.018 C 
HETATM    2  C2  UNL     1      21.906   3.419  46.814  1.00  0.00    -0.074 C 
HETATM    3  C3  UNL     1      21.941   3.174  48.224  1.00  0.00     0.064 C 
HETATM    4  C4  UNL     1      21.915   1.887  48.616  1.00  0.00     0.024 C 
HETATM    5  C5  UNL     1      21.794   1.137  49.873  1.00  0.00    -0.002 C 
HETATM    6  C6  UNL     1      21.803   1.635  51.107  1.00  0.00    -0.021 C 
HETATM    7  C7  UNL     1      22.191   2.790  51.957  1.00  0.00     0.082 C 
HETATM    8  C8  UNL     1      23.044   3.773  51.237  1.00  0.00     0.021 C 
HETATM    9  N1  UNL     1      22.479   4.627  50.434  1.00  0.00    -0.237 NA
HETATM   10  C9  UNL     1      21.995   4.384  49.088  1.00  0.00     0.163 C 
HETATM   11  N2  UNL     1      21.478   5.253  48.317  1.00  0.00    -0.266 NA
HETATM   12  C10 UNL     1      21.234   6.631  48.543  1.00  0.00     0.178 C 
HETATM   13  C11 UNL     1      22.279   7.431  49.160  1.00  0.00    -0.003 C 
HETATM   14  C12 UNL     1      23.493   7.628  49.707  1.00  0.00     0.033 C 
HETATM   15  C13 UNL     1      24.764   6.940  50.069  1.00  0.00     0.078 C 
HETATM   16  C17 UNL     1      24.988   5.628  49.862  1.00  0.00     0.213 C 
HETATM   17  O3  UNL     1      25.665   4.463  49.872  1.00  0.00    -0.368 OA
HETATM   18  C18 UNL     1      25.351   3.285  50.539  1.00  0.00     0.151 C 
HETATM   19  C21 UNL     1      24.408   3.419  51.692  1.00  0.00     0.089 C 
ENDROOT
BRANCH  18  20
HETATM   20  C19 UNL     1      26.593   2.481  50.893  1.00  0.00     0.199 C 
BRANCH  20  21
HETATM   21  O4  UNL     1      26.331   1.625  51.959  1.00  0.00    -0.393 OA
HETATM   22  C20 UNL     1      27.501   1.560  52.729  1.00  0.00     0.201 C 
ENDBRANCH  20  21
ENDBRANCH  18  20
BRANCH  15  23
HETATM   23  O1  UNL     1      25.689   7.821  50.647  1.00  0.00    -0.351 OA
BRANCH  23  24
HETATM   24  C14 UNL     1      26.023   9.074  50.109  1.00  0.00     0.201 C 
BRANCH  24  25
HETATM   25  C15 UNL     1      27.514   9.192  49.970  1.00  0.00     0.193 C 
BRANCH  25  26
HETATM   26  O2  UNL     1      28.098   8.216  49.188  1.00  0.00    -0.394 OA
HETATM   27  C16 UNL     1      29.370   8.503  48.755  1.00  0.00     0.201 C 
ENDBRANCH  25  26
ENDBRANCH  24  25
ENDBRANCH  23  24
ENDBRANCH  15  23
TORSDOF 6
ENDMDL
