MODEL 1
REMARK VINA RESULT:      -8.9      0.000      0.000
REMARK  3 active torsions:
REMARK  status: ('A' for Active; 'I' for Inactive)
REMARK    1  A    between atoms: N1_1  and  C1_2 
REMARK    2  A    between atoms: C12_14  and  C13_15 
REMARK    3  A    between atoms: C13_15  and  C14_16 
ROOT
HETATM    1  C1  UNL     1      20.733  -0.482  53.764  1.00  0.00     0.222 C 
HETATM    2  C2  UNL     1      21.885  -1.432  53.721  1.00  0.00     0.041 C 
HETATM    3  C3  UNL     1      23.166  -0.645  53.903  1.00  0.00     0.059 C 
HETATM    4  C4  UNL     1      23.160   0.663  53.191  1.00  0.00     0.012 C 
HETATM    5  C5  UNL     1      22.082   1.107  52.532  1.00  0.00    -0.023 C 
HETATM    6  C6  UNL     1      20.823   0.333  52.466  1.00  0.00     0.074 C 
HETATM    7  C7  UNL     1      21.882   2.359  51.758  1.00  0.00     0.176 C 
HETATM    8  C8  UNL     1      21.608   2.127  50.290  1.00  0.00     0.008 C 
HETATM    9  C9  UNL     1      22.754   2.490  49.655  1.00  0.00     0.006 C 
HETATM   10  C10 UNL     1      23.722   2.216  50.712  1.00  0.00     0.169 C 
HETATM   11  C11 UNL     1      25.093   2.763  50.652  1.00  0.00     0.206 C 
HETATM   12  O1  UNL     1      25.435   2.703  52.029  1.00  0.00    -0.364 OA
HETATM   13  C12 UNL     1      25.516   1.363  52.485  1.00  0.00     0.225 C 
HETATM   14  N2  UNL     1      24.475   1.091  53.461  1.00  0.00    -0.366 N 
HETATM   15  O2  UNL     1      23.108   2.974  51.743  1.00  0.00    -0.366 OA
HETATM   16  H24 UNL     1      24.810   1.266  54.437  1.00  0.00     0.162 HD
ENDROOT
BRANCH  13  17
HETATM   17  C13 UNL     1      26.906   1.286  53.062  1.00  0.00     0.092 C 
BRANCH  17  18
HETATM   18  C14 UNL     1      27.495  -0.075  53.049  1.00  0.00    -0.054 A 
HETATM   19  C15 UNL     1      28.838  -0.112  53.443  1.00  0.00     0.007 A 
HETATM   20  C16 UNL     1      29.584  -1.266  53.496  1.00  0.00     0.001 A 
HETATM   21  C17 UNL     1      29.006  -2.470  53.149  1.00  0.00     0.000 A 
HETATM   22  C18 UNL     1      27.684  -2.442  52.760  1.00  0.00     0.001 A 
HETATM   23  C19 UNL     1      26.934  -1.287  52.704  1.00  0.00     0.007 A 
ENDBRANCH  17  18
ENDBRANCH  13  17
BRANCH   1  24
HETATM   24  N1  UNL     1      19.462  -1.146  53.853  1.00  0.00     0.083 N 
HETATM   25  H1  UNL     1      19.273  -1.784  53.054  1.00  0.00     0.313 HD
HETATM   26  H2  UNL     1      19.458  -1.691  54.756  1.00  0.00     0.313 HD
ENDBRANCH   1  24
TORSDOF 3
ENDMDL
MODEL 2
REMARK VINA RESULT:      -8.6      2.585      5.547
REMARK  3 active torsions:
REMARK  status: ('A' for Active; 'I' for Inactive)
REMARK    1  A    between atoms: N1_1  and  C1_2 
REMARK    2  A    between atoms: C12_14  and  C13_15 
REMARK    3  A    between atoms: C13_15  and  C14_16 
ROOT
HETATM    1  C1  UNL     1      26.548   0.298  53.667  1.00  0.00     0.222 C 
HETATM    2  C2  UNL     1      27.256   0.862  52.478  1.00  0.00     0.041 C 
HETATM    3  C3  UNL     1      26.676   2.228  52.176  1.00  0.00     0.059 C 
HETATM    4  C4  UNL     1      25.200   2.294  52.352  1.00  0.00     0.012 C 
HETATM    5  C5  UNL     1      24.493   1.254  52.814  1.00  0.00    -0.023 C 
HETATM    6  C6  UNL     1      25.128  -0.030  53.182  1.00  0.00     0.074 C 
HETATM    7  C7  UNL     1      23.032   1.117  53.044  1.00  0.00     0.176 C 
HETATM    8  C8  UNL     1      22.379   0.063  52.181  1.00  0.00     0.008 C 
HETATM    9  C9  UNL     1      21.675   0.756  51.247  1.00  0.00     0.006 C 
HETATM   10  C10 UNL     1      22.478   1.973  51.184  1.00  0.00     0.169 C 
HETATM   11  C11 UNL     1      21.951   3.204  50.560  1.00  0.00     0.206 C 
HETATM   12  O1  UNL     1      22.787   4.167  51.186  1.00  0.00    -0.364 OA
HETATM   13  C12 UNL     1      24.139   4.016  50.787  1.00  0.00     0.225 C 
HETATM   14  N2  UNL     1      24.962   3.612  51.913  1.00  0.00    -0.366 N 
HETATM   15  O2  UNL     1      22.481   2.279  52.570  1.00  0.00    -0.366 OA
HETATM   16  H24 UNL     1      25.375   4.441  52.403  1.00  0.00     0.162 HD
ENDROOT
BRANCH  13  17
HETATM   17  C13 UNL     1      24.488   5.382  50.255  1.00  0.00     0.092 C 
BRANCH  17  18
HETATM   18  C14 UNL     1      25.800   5.449  49.566  1.00  0.00    -0.054 A 
HETATM   19  C15 UNL     1      26.180   6.747  49.203  1.00  0.00     0.007 A 
HETATM   20  C16 UNL     1      27.353   7.041  48.547  1.00  0.00     0.001 A 
HETATM   21  C17 UNL     1      28.224   6.024  48.217  1.00  0.00     0.000 A 
HETATM   22  C18 UNL     1      27.858   4.743  48.572  1.00  0.00     0.001 A 
HETATM   23  C19 UNL     1      26.683   4.445  49.228  1.00  0.00     0.007 A 
ENDBRANCH  17  18
ENDBRANCH  13  17
BRANCH   1  24
HETATM   24  N1  UNL     1      27.184  -0.879  54.192  1.00  0.00     0.083 N 
HETATM   25  H1  UNL     1      27.817  -0.683  54.992  1.00  0.00     0.313 HD
HETATM   26  H2  UNL     1      26.418  -1.538  54.493  1.00  0.00     0.313 HD
ENDBRANCH   1  24
TORSDOF 3
ENDMDL
MODEL 3
REMARK VINA RESULT:      -8.2      1.723      2.387
REMARK  3 active torsions:
REMARK  status: ('A' for Active; 'I' for Inactive)
REMARK    1  A    between atoms: N1_1  and  C1_2 
REMARK    2  A    between atoms: C12_14  and  C13_15 
REMARK    3  A    between atoms: C13_15  and  C14_16 
ROOT
HETATM    1  C1  UNL     1      20.544   1.630  50.296  1.00  0.00     0.222 C 
HETATM    2  C2  UNL     1      21.050   0.255  50.591  1.00  0.00     0.041 C 
HETATM    3  C3  UNL     1      22.038   0.341  51.735  1.00  0.00     0.059 C 
HETATM    4  C4  UNL     1      22.922   1.537  51.663  1.00  0.00     0.012 C 
HETATM    5  C5  UNL     1      22.777   2.470  50.713  1.00  0.00    -0.023 C 
HETATM    6  C6  UNL     1      21.731   2.379  49.672  1.00  0.00     0.074 C 
HETATM    7  C7  UNL     1      23.554   3.710  50.464  1.00  0.00     0.176 C 
HETATM    8  C8  UNL     1      24.279   3.716  49.138  1.00  0.00     0.008 C 
HETATM    9  C9  UNL     1      25.590   3.535  49.452  1.00  0.00     0.006 C 
HETATM   10  C10 UNL     1      25.448   2.782  50.693  1.00  0.00     0.169 C 
HETATM   11  C11 UNL     1      26.582   2.627  51.626  1.00  0.00     0.206 C 
HETATM   12  O1  UNL     1      25.872   2.337  52.821  1.00  0.00    -0.364 OA
HETATM   13  C12 UNL     1      25.200   1.092  52.735  1.00  0.00     0.225 C 
HETATM   14  N2  UNL     1      23.761   1.284  52.767  1.00  0.00    -0.366 N 
HETATM   15  O2  UNL     1      24.583   3.680  51.370  1.00  0.00    -0.366 OA
HETATM   16  H24 UNL     1      23.388   1.228  53.744  1.00  0.00     0.162 HD
ENDROOT
BRANCH  13  17
HETATM   17  C13 UNL     1      25.726   0.342  53.932  1.00  0.00     0.092 C 
BRANCH  17  18
HETATM   18  C14 UNL     1      26.916  -0.498  53.649  1.00  0.00    -0.054 A 
HETATM   19  C15 UNL     1      28.101  -0.002  54.206  1.00  0.00     0.007 A 
HETATM   20  C16 UNL     1      29.324  -0.615  54.062  1.00  0.00     0.001 A 
HETATM   21  C17 UNL     1      29.421  -1.783  53.336  1.00  0.00     0.000 A 
HETATM   22  C18 UNL     1      28.258  -2.278  52.784  1.00  0.00     0.001 A 
HETATM   23  C19 UNL     1      27.032  -1.666  52.926  1.00  0.00     0.007 A 
ENDBRANCH  17  18
ENDBRANCH  13  17
BRANCH   1  24
HETATM   24  N1  UNL     1      19.420   1.633  49.400  1.00  0.00     0.083 N 
HETATM   25  H1  UNL     1      19.623   1.187  48.483  1.00  0.00     0.313 HD
HETATM   26  H2  UNL     1      18.637   1.119  49.883  1.00  0.00     0.313 HD
ENDBRANCH   1  24
TORSDOF 3
ENDMDL
MODEL 4
REMARK VINA RESULT:      -8.1      1.975      5.573
REMARK  3 active torsions:
REMARK  status: ('A' for Active; 'I' for Inactive)
REMARK    1  A    between atoms: N1_1  and  C1_2 
REMARK    2  A    between atoms: C12_14  and  C13_15 
REMARK    3  A    between atoms: C13_15  and  C14_16 
ROOT
HETATM    1  C1  UNL     1      21.749  -0.776  53.697  1.00  0.00     0.222 C 
HETATM    2  C2  UNL     1      21.360   0.654  53.503  1.00  0.00     0.041 C 
HETATM    3  C3  UNL     1      22.211   1.239  52.397  1.00  0.00     0.059 C 
HETATM    4  C4  UNL     1      23.626   0.778  52.435  1.00  0.00     0.012 C 
HETATM    5  C5  UNL     1      24.053  -0.130  53.323  1.00  0.00    -0.023 C 
HETATM    6  C6  UNL     1      23.150  -0.739  54.324  1.00  0.00     0.074 C 
HETATM    7  C7  UNL     1      25.407  -0.703  53.530  1.00  0.00     0.176 C 
HETATM    8  C8  UNL     1      26.001  -0.380  54.881  1.00  0.00     0.008 C 
HETATM    9  C9  UNL     1      26.961   0.550  54.633  1.00  0.00     0.006 C 
HETATM   10  C10 UNL     1      26.406   1.166  53.433  1.00  0.00     0.169 C 
HETATM   11  C11 UNL     1      27.237   2.018  52.557  1.00  0.00     0.206 C 
HETATM   12  O1  UNL     1      26.490   1.925  51.353  1.00  0.00    -0.364 OA
HETATM   13  C12 UNL     1      25.219   2.538  51.484  1.00  0.00     0.225 C 
HETATM   14  N2  UNL     1      24.161   1.549  51.383  1.00  0.00    -0.366 N 
HETATM   15  O2  UNL     1      26.225  -0.016  52.670  1.00  0.00    -0.366 OA
HETATM   16  H24 UNL     1      23.824   1.447  50.397  1.00  0.00     0.162 HD
ENDROOT
BRANCH  13  17
HETATM   17  C13 UNL     1      25.208   3.537  50.356  1.00  0.00     0.092 C 
BRANCH  17  18
HETATM   18  C14 UNL     1      23.897   4.197  50.140  1.00  0.00    -0.054 A 
HETATM   19  C15 UNL     1      23.479   4.987  51.217  1.00  0.00     0.007 A 
HETATM   20  C16 UNL     1      22.292   5.682  51.236  1.00  0.00     0.001 A 
HETATM   21  C17 UNL     1      21.445   5.617  50.149  1.00  0.00     0.000 A 
HETATM   22  C18 UNL     1      21.850   4.840  49.084  1.00  0.00     0.001 A 
HETATM   23  C19 UNL     1      23.038   4.143  49.062  1.00  0.00     0.007 A 
ENDBRANCH  17  18
ENDBRANCH  13  17
BRANCH   1  24
HETATM   24  N1  UNL     1      20.838  -1.495  54.544  1.00  0.00     0.083 N 
HETATM   25  H1  UNL     1      19.839  -1.300  54.335  1.00  0.00     0.313 HD
HETATM   26  H2  UNL     1      21.038  -2.522  54.414  1.00  0.00     0.313 HD
ENDBRANCH   1  24
TORSDOF 3
ENDMDL
MODEL 5
REMARK VINA RESULT:      -8.0      1.860      2.712
REMARK  3 active torsions:
REMARK  status: ('A' for Active; 'I' for Inactive)
REMARK    1  A    between atoms: N1_1  and  C1_2 
REMARK    2  A    between atoms: C12_14  and  C13_15 
REMARK    3  A    between atoms: C13_15  and  C14_16 
ROOT
HETATM    1  C1  UNL     1      17.756  -1.144  53.267  1.00  0.00     0.222 C 
HETATM    2  C2  UNL     1      18.645  -2.303  53.582  1.00  0.00     0.041 C 
HETATM    3  C3  UNL     1      19.920  -1.776  54.207  1.00  0.00     0.059 C 
HETATM    4  C4  UNL     1      20.410  -0.520  53.576  1.00  0.00     0.012 C 
HETATM    5  C5  UNL     1      19.724   0.103  52.609  1.00  0.00    -0.023 C 
HETATM    6  C6  UNL     1      18.434  -0.411  52.101  1.00  0.00     0.074 C 
HETATM    7  C7  UNL     1      20.046   1.340  51.853  1.00  0.00     0.176 C 
HETATM    8  C8  UNL     1      20.238   1.113  50.372  1.00  0.00     0.008 C 
HETATM    9  C9  UNL     1      21.578   1.220  50.169  1.00  0.00     0.006 C 
HETATM   10  C10 UNL     1      22.063   0.801  51.479  1.00  0.00     0.169 C 
HETATM   11  C11 UNL     1      23.454   1.066  51.900  1.00  0.00     0.206 C 
HETATM   12  O1  UNL     1      23.297   0.990  53.309  1.00  0.00    -0.364 OA
HETATM   13  C12 UNL     1      22.955  -0.322  53.723  1.00  0.00     0.225 C 
HETATM   14  N2  UNL     1      21.616  -0.348  54.285  1.00  0.00    -0.366 N 
HETATM   15  O2  UNL     1      21.301   1.702  52.268  1.00  0.00    -0.366 OA
HETATM   16  H24 UNL     1      21.633  -0.206  55.322  1.00  0.00     0.162 HD
ENDROOT
BRANCH  13  17
HETATM   17  C13 UNL     1      24.029  -0.648  54.729  1.00  0.00     0.092 C 
BRANCH  17  18
HETATM   18  C14 UNL     1      25.403  -0.654  54.171  1.00  0.00    -0.054 A 
HETATM   19  C15 UNL     1      26.319   0.095  54.920  1.00  0.00     0.007 A 
HETATM   20  C16 UNL     1      27.644   0.235  54.582  1.00  0.00     0.001 A 
HETATM   21  C17 UNL     1      28.130  -0.385  53.450  1.00  0.00     0.000 A 
HETATM   22  C18 UNL     1      27.235  -1.126  52.708  1.00  0.00     0.001 A 
HETATM   23  C19 UNL     1      25.906  -1.267  53.043  1.00  0.00     0.007 A 
ENDBRANCH  17  18
ENDBRANCH  13  17
BRANCH   1  24
HETATM   24  N1  UNL     1      16.424  -1.543  52.904  1.00  0.00     0.083 N 
HETATM   25  H1  UNL     1      15.751  -0.751  52.874  1.00  0.00     0.313 HD
HETATM   26  H2  UNL     1      16.483  -1.999  51.956  1.00  0.00     0.313 HD
ENDBRANCH   1  24
TORSDOF 3
ENDMDL
MODEL 6
REMARK VINA RESULT:      -7.9      2.173      6.833
REMARK  3 active torsions:
REMARK  status: ('A' for Active; 'I' for Inactive)
REMARK    1  A    between atoms: N1_1  and  C1_2 
REMARK    2  A    between atoms: C12_14  and  C13_15 
REMARK    3  A    between atoms: C13_15  and  C14_16 
ROOT
HETATM    1  C1  UNL     1      25.829   3.835  50.283  1.00  0.00     0.222 C 
HETATM    2  C2  UNL     1      24.536   3.440  49.646  1.00  0.00     0.041 C 
HETATM    3  C3  UNL     1      23.558   3.060  50.738  1.00  0.00     0.059 C 
HETATM    4  C4  UNL     1      24.185   2.296  51.851  1.00  0.00     0.012 C 
HETATM    5  C5  UNL     1      25.502   2.057  51.894  1.00  0.00    -0.023 C 
HETATM    6  C6  UNL     1      26.425   2.535  50.842  1.00  0.00     0.074 C 
HETATM    7  C7  UNL     1      26.308   1.313  52.896  1.00  0.00     0.176 C 
HETATM    8  C8  UNL     1      26.983   0.082  52.338  1.00  0.00     0.008 C 
HETATM    9  C9  UNL     1      26.278  -0.966  52.842  1.00  0.00     0.006 C 
HETATM   10  C10 UNL     1      24.975  -0.333  53.009  1.00  0.00     0.169 C 
HETATM   11  C11 UNL     1      23.928  -0.950  53.848  1.00  0.00     0.206 C 
HETATM   12  O1  UNL     1      23.137   0.197  54.127  1.00  0.00    -0.364 OA
HETATM   13  C12 UNL     1      22.521   0.699  52.954  1.00  0.00     0.225 C 
HETATM   14  N2  UNL     1      23.042   2.014  52.625  1.00  0.00    -0.366 N 
HETATM   15  O2  UNL     1      25.396   0.786  53.773  1.00  0.00    -0.366 OA
HETATM   16  H24 UNL     1      22.462   2.774  53.053  1.00  0.00     0.162 HD
ENDROOT
BRANCH  13  17
HETATM   17  C13 UNL     1      21.059   0.714  53.321  1.00  0.00     0.092 C 
BRANCH  17  18
HETATM   18  C14 UNL     1      20.139   0.675  52.158  1.00  0.00    -0.054 A 
HETATM   19  C15 UNL     1      18.973  -0.065  52.386  1.00  0.00     0.007 A 
HETATM   20  C16 UNL     1      17.987  -0.240  51.443  1.00  0.00     0.001 A 
HETATM   21  C17 UNL     1      18.125   0.332  50.196  1.00  0.00     0.000 A 
HETATM   22  C18 UNL     1      19.271   1.063  49.964  1.00  0.00     0.001 A 
HETATM   23  C19 UNL     1      20.261   1.239  50.906  1.00  0.00     0.007 A 
ENDBRANCH  17  18
ENDBRANCH  13  17
BRANCH   1  24
HETATM   24  N1  UNL     1      26.743   4.451  49.360  1.00  0.00     0.083 N 
HETATM   25  H1  UNL     1      26.389   5.345  48.966  1.00  0.00     0.313 HD
HETATM   26  H2  UNL     1      27.644   4.620  49.881  1.00  0.00     0.313 HD
ENDBRANCH   1  24
TORSDOF 3
ENDMDL
MODEL 7
REMARK VINA RESULT:      -7.8      2.212      5.684
REMARK  3 active torsions:
REMARK  status: ('A' for Active; 'I' for Inactive)
REMARK    1  A    between atoms: N1_1  and  C1_2 
REMARK    2  A    between atoms: C12_14  and  C13_15 
REMARK    3  A    between atoms: C13_15  and  C14_16 
ROOT
HETATM    1  C1  UNL     1      26.792   0.259  54.001  1.00  0.00     0.222 C 
HETATM    2  C2  UNL     1      27.152   0.184  52.553  1.00  0.00     0.041 C 
HETATM    3  C3  UNL     1      26.312   1.191  51.795  1.00  0.00     0.059 C 
HETATM    4  C4  UNL     1      24.908   1.273  52.283  1.00  0.00     0.012 C 
HETATM    5  C5  UNL     1      24.482   0.573  53.343  1.00  0.00    -0.023 C 
HETATM    6  C6  UNL     1      25.376  -0.327  54.103  1.00  0.00     0.074 C 
HETATM    7  C7  UNL     1      23.137   0.507  53.969  1.00  0.00     0.176 C 
HETATM    8  C8  UNL     1      22.505  -0.863  53.904  1.00  0.00     0.008 C 
HETATM    9  C9  UNL     1      21.529  -0.759  52.963  1.00  0.00     0.006 C 
HETATM   10  C10 UNL     1      22.097   0.297  52.132  1.00  0.00     0.169 C 
HETATM   11  C11 UNL     1      21.267   1.029  51.154  1.00  0.00     0.206 C 
HETATM   12  O1  UNL     1      22.044   2.210  51.016  1.00  0.00    -0.364 OA
HETATM   13  C12 UNL     1      23.296   1.938  50.412  1.00  0.00     0.225 C 
HETATM   14  N2  UNL     1      24.379   2.185  51.347  1.00  0.00    -0.366 N 
HETATM   15  O2  UNL     1      22.324   1.253  53.156  1.00  0.00    -0.366 OA
HETATM   16  H24 UNL     1      24.741   3.164  51.264  1.00  0.00     0.162 HD
ENDROOT
BRANCH  13  17
HETATM   17  C13 UNL     1      23.309   2.870  49.227  1.00  0.00     0.092 C 
BRANCH  17  18
HETATM   18  C14 UNL     1      24.389   3.887  49.266  1.00  0.00    -0.054 A 
HETATM   19  C15 UNL     1      23.929   5.187  49.508  1.00  0.00     0.007 A 
HETATM   20  C16 UNL     1      24.755   6.285  49.575  1.00  0.00     0.001 A 
HETATM   21  C17 UNL     1      26.114   6.130  49.401  1.00  0.00     0.000 A 
HETATM   22  C18 UNL     1      26.574   4.852  49.163  1.00  0.00     0.001 A 
HETATM   23  C19 UNL     1      25.750   3.750  49.094  1.00  0.00     0.007 A 
ENDBRANCH  17  18
ENDBRANCH  13  17
BRANCH   1  24
HETATM   24  N1  UNL     1      27.700  -0.471  54.843  1.00  0.00     0.083 N 
HETATM   25  H1  UNL     1      28.699  -0.250  54.660  1.00  0.00     0.313 HD
HETATM   26  H2  UNL     1      27.457  -0.235  55.841  1.00  0.00     0.313 HD
ENDBRANCH   1  24
TORSDOF 3
ENDMDL
MODEL 8
REMARK VINA RESULT:      -7.7      3.314      5.879
REMARK  3 active torsions:
REMARK  status: ('A' for Active; 'I' for Inactive)
REMARK    1  A    between atoms: N1_1  and  C1_2 
REMARK    2  A    between atoms: C12_14  and  C13_15 
REMARK    3  A    between atoms: C13_15  and  C14_16 
ROOT
HETATM    1  C1  UNL     1      26.350   4.292  49.372  1.00  0.00     0.222 C 
HETATM    2  C2  UNL     1      26.421   3.299  50.486  1.00  0.00     0.041 C 
HETATM    3  C3  UNL     1      25.164   2.455  50.461  1.00  0.00     0.059 C 
HETATM    4  C4  UNL     1      23.937   3.236  50.142  1.00  0.00     0.012 C 
HETATM    5  C5  UNL     1      23.985   4.537  49.830  1.00  0.00    -0.023 C 
HETATM    6  C6  UNL     1      25.257   5.290  49.780  1.00  0.00     0.074 C 
HETATM    7  C7  UNL     1      22.889   5.483  49.499  1.00  0.00     0.176 C 
HETATM    8  C8  UNL     1      22.745   6.616  50.488  1.00  0.00     0.008 C 
HETATM    9  C9  UNL     1      21.624   6.323  51.200  1.00  0.00     0.006 C 
HETATM   10  C10 UNL     1      21.636   4.868  51.096  1.00  0.00     0.169 C 
HETATM   11  C11 UNL     1      20.435   4.070  51.416  1.00  0.00     0.206 C 
HETATM   12  O1  UNL     1      20.734   2.885  50.693  1.00  0.00    -0.364 OA
HETATM   13  C12 UNL     1      21.861   2.219  51.235  1.00  0.00     0.225 C 
HETATM   14  N2  UNL     1      22.964   2.227  50.290  1.00  0.00    -0.366 N 
HETATM   15  O2  UNL     1      21.731   4.772  49.684  1.00  0.00    -0.366 OA
HETATM   16  H24 UNL     1      22.958   1.371  49.687  1.00  0.00     0.162 HD
ENDROOT
BRANCH  13  17
HETATM   17  C13 UNL     1      21.332   0.836  51.518  1.00  0.00     0.092 C 
BRANCH  17  18
HETATM   18  C14 UNL     1      21.978   0.162  52.671  1.00  0.00    -0.054 A 
HETATM   19  C15 UNL     1      21.091  -0.581  53.459  1.00  0.00     0.007 A 
HETATM   20  C16 UNL     1      21.472  -1.279  54.581  1.00  0.00     0.001 A 
HETATM   21  C17 UNL     1      22.793  -1.267  54.977  1.00  0.00     0.000 A 
HETATM   22  C18 UNL     1      23.673  -0.538  54.206  1.00  0.00     0.001 A 
HETATM   23  C19 UNL     1      23.295   0.163  53.082  1.00  0.00     0.007 A 
ENDBRANCH  17  18
ENDBRANCH  13  17
BRANCH   1  24
HETATM   24  N1  UNL     1      27.596   4.973  49.148  1.00  0.00     0.083 N 
HETATM   25  H1  UNL     1      27.754   5.766  49.801  1.00  0.00     0.313 HD
HETATM   26  H2  UNL     1      28.364   4.260  49.257  1.00  0.00     0.313 HD
ENDBRANCH   1  24
TORSDOF 3
ENDMDL
MODEL 9
REMARK VINA RESULT:      -7.7      2.615      6.653
REMARK  3 active torsions:
REMARK  status: ('A' for Active; 'I' for Inactive)
REMARK    1  A    between atoms: N1_1  and  C1_2 
REMARK    2  A    between atoms: C12_14  and  C13_15 
REMARK    3  A    between atoms: C13_15  and  C14_16 
ROOT
HETATM    1  C1  UNL     1      24.625  -0.400  53.581  1.00  0.00     0.222 C 
HETATM    2  C2  UNL     1      23.265  -0.870  53.985  1.00  0.00     0.041 C 
HETATM    3  C3  UNL     1      22.319  -0.666  52.820  1.00  0.00     0.059 C 
HETATM    4  C4  UNL     1      22.558   0.605  52.082  1.00  0.00     0.012 C 
HETATM    5  C5  UNL     1      23.569   1.426  52.392  1.00  0.00    -0.023 C 
HETATM    6  C6  UNL     1      24.520   1.128  53.485  1.00  0.00     0.074 C 
HETATM    7  C7  UNL     1      23.962   2.728  51.795  1.00  0.00     0.176 C 
HETATM    8  C8  UNL     1      23.871   3.889  52.759  1.00  0.00     0.008 C 
HETATM    9  C9  UNL     1      22.775   4.590  52.366  1.00  0.00     0.006 C 
HETATM   10  C10 UNL     1      21.992   3.513  51.769  1.00  0.00     0.169 C 
HETATM   11  C11 UNL     1      20.846   3.802  50.882  1.00  0.00     0.206 C 
HETATM   12  O1  UNL     1      20.773   2.572  50.177  1.00  0.00    -0.364 OA
HETATM   13  C12 UNL     1      20.406   1.504  51.033  1.00  0.00     0.225 C 
HETATM   14  N2  UNL     1      21.495   0.552  51.159  1.00  0.00    -0.366 N 
HETATM   15  O2  UNL     1      22.981   3.017  50.882  1.00  0.00    -0.366 OA
HETATM   16  H24 UNL     1      21.417  -0.214  50.448  1.00  0.00     0.162 HD
ENDROOT
BRANCH  13  17
HETATM   17  C13 UNL     1      19.189   0.930  50.355  1.00  0.00     0.092 C 
BRANCH  17  18
HETATM   18  C14 UNL     1      18.348   0.079  51.232  1.00  0.00    -0.054 A 
HETATM   19  C15 UNL     1      17.097  -0.231  50.686  1.00  0.00     0.007 A 
HETATM   20  C16 UNL     1      16.155  -0.998  51.329  1.00  0.00     0.001 A 
HETATM   21  C17 UNL     1      16.428  -1.507  52.582  1.00  0.00     0.000 A 
HETATM   22  C18 UNL     1      17.658  -1.206  53.127  1.00  0.00     0.001 A 
HETATM   23  C19 UNL     1      18.604  -0.437  52.485  1.00  0.00     0.007 A 
ENDBRANCH  17  18
ENDBRANCH  13  17
BRANCH   1  24
HETATM   24  N1  UNL     1      25.649  -0.777  54.517  1.00  0.00     0.083 N 
HETATM   25  H1  UNL     1      25.272  -1.115  55.425  1.00  0.00     0.313 HD
HETATM   26  H2  UNL     1      26.223  -1.535  54.061  1.00  0.00     0.313 HD
ENDBRANCH   1  24
TORSDOF 3
ENDMDL
