MODEL 1
REMARK VINA RESULT:      -7.5      0.000      0.000
REMARK  6 active torsions:
REMARK  status: ('A' for Active; 'I' for Inactive)
REMARK    1  A    between atoms: N1_2  and  C2_3 
REMARK    2  A    between atoms: C3_4  and  N2_5 
REMARK    3  A    between atoms: N2_5  and  C4_6 
REMARK    4  A    between atoms: C6_8  and  C7_9 
REMARK    5  A    between atoms: C7_9  and  C9_11 
REMARK    6  A    between atoms: C18_21  and  N4_22 
ROOT
HETATM    1  C4  UNL     1      25.291   2.803  53.036  1.00  0.00     0.031 A 
HETATM    2  C5  UNL     1      25.686   2.700  51.780  1.00  0.00     0.054 A 
HETATM    3  C6  UNL     1      24.730   3.285  50.861  1.00  0.00     0.039 A 
HETATM    4  N3  UNL     1      23.762   3.734  51.592  1.00  0.00    -0.287 NA
HETATM    5  C15 UNL     1      23.984   3.498  52.996  1.00  0.00     0.206 A 
ENDROOT
BRANCH   1   6
HETATM    6  N2  UNL     1      25.971   2.344  54.197  1.00  0.00    -0.360 N 
HETATM    7  H5  UNL     1      25.563   2.550  55.119  1.00  0.00     0.165 HD
BRANCH   6   8
HETATM    8  C3  UNL     1      27.192   1.613  54.127  1.00  0.00     0.034 C 
HETATM    9  C2  UNL     1      27.232   0.373  54.641  1.00  0.00     0.060 C 
HETATM   10  C18 UNL     1      28.617  -0.182  54.446  1.00  0.00     0.269 C 
HETATM   11  C17 UNL     1      29.427   1.100  54.428  1.00  0.00     0.048 C 
HETATM   12  C16 UNL     1      28.523   1.970  53.561  1.00  0.00     0.062 C 
BRANCH   9  13
HETATM   13  N1  UNL     1      26.183  -0.346  55.273  1.00  0.00    -0.394 N 
HETATM   14  C1  UNL     1      24.932  -0.875  54.737  1.00  0.00     0.146 C 
HETATM   15  H4  UNL     1      26.208  -0.594  56.303  1.00  0.00     0.159 HD
ENDBRANCH   9  13
BRANCH  10  16
HETATM   16  N4  UNL     1      28.704  -0.728  53.108  1.00  0.00     0.088 N 
HETATM   17  H23 UNL     1      28.913  -1.750  53.103  1.00  0.00     0.313 HD
HETATM   18  H24 UNL     1      29.435  -0.237  52.544  1.00  0.00     0.313 HD
ENDBRANCH  10  16
ENDBRANCH   6   8
ENDBRANCH   1   6
BRANCH   3  19
HETATM   19  C7  UNL     1      24.765   3.391  49.358  1.00  0.00     0.066 C 
HETATM   20  C8  UNL     1      23.379   3.808  48.929  1.00  0.00     0.021 C 
BRANCH  19  21
HETATM   21  C9  UNL     1      25.778   4.427  49.030  1.00  0.00    -0.049 A 
HETATM   22  C10 UNL     1      27.142   4.301  48.906  1.00  0.00     0.008 A 
HETATM   23  C11 UNL     1      27.935   5.370  48.588  1.00  0.00     0.001 A 
HETATM   24  C12 UNL     1      27.434   6.636  48.368  1.00  0.00     0.000 A 
HETATM   25  C13 UNL     1      26.080   6.814  48.478  1.00  0.00     0.001 A 
HETATM   26  C14 UNL     1      25.308   5.727  48.800  1.00  0.00     0.008 A 
ENDBRANCH  19  21
ENDBRANCH   3  19
TORSDOF 6
ENDMDL
MODEL 2
REMARK VINA RESULT:      -7.5      1.392      2.623
REMARK  6 active torsions:
REMARK  status: ('A' for Active; 'I' for Inactive)
REMARK    1  A    between atoms: N1_2  and  C2_3 
REMARK    2  A    between atoms: C3_4  and  N2_5 
REMARK    3  A    between atoms: N2_5  and  C4_6 
REMARK    4  A    between atoms: C6_8  and  C7_9 
REMARK    5  A    between atoms: C7_9  and  C9_11 
REMARK    6  A    between atoms: C18_21  and  N4_22 
ROOT
HETATM    1  C4  UNL     1      24.228   3.141  51.773  1.00  0.00     0.031 A 
HETATM    2  C5  UNL     1      24.541   4.344  51.327  1.00  0.00     0.054 A 
HETATM    3  C6  UNL     1      24.256   4.489  49.913  1.00  0.00     0.039 A 
HETATM    4  N3  UNL     1      23.771   3.353  49.530  1.00  0.00    -0.287 NA
HETATM    5  C15 UNL     1      23.694   2.401  50.608  1.00  0.00     0.206 A 
ENDROOT
BRANCH   1   6
HETATM    6  N2  UNL     1      24.371   2.648  53.099  1.00  0.00    -0.360 N 
HETATM    7  H5  UNL     1      24.018   3.223  53.877  1.00  0.00     0.165 HD
BRANCH   6   8
HETATM    8  C3  UNL     1      24.981   1.393  53.386  1.00  0.00     0.034 C 
HETATM    9  C2  UNL     1      26.290   1.365  53.684  1.00  0.00     0.060 C 
HETATM   10  C18 UNL     1      26.692  -0.061  53.944  1.00  0.00     0.269 C 
HETATM   11  C17 UNL     1      25.673  -0.794  53.092  1.00  0.00     0.048 C 
HETATM   12  C16 UNL     1      24.423   0.013  53.426  1.00  0.00     0.062 C 
BRANCH   9  13
HETATM   13  N1  UNL     1      27.194   2.458  53.756  1.00  0.00    -0.394 N 
HETATM   14  C1  UNL     1      28.651   2.497  53.674  1.00  0.00     0.146 C 
HETATM   15  H4  UNL     1      26.865   3.456  53.891  1.00  0.00     0.159 HD
ENDBRANCH   9  13
BRANCH  10  16
HETATM   16  N4  UNL     1      26.367  -0.381  55.319  1.00  0.00     0.088 N 
HETATM   17  H23 UNL     1      26.687   0.351  55.989  1.00  0.00     0.313 HD
HETATM   18  H24 UNL     1      26.784  -1.297  55.604  1.00  0.00     0.313 HD
ENDBRANCH  10  16
ENDBRANCH   6   8
ENDBRANCH   1   6
BRANCH   3  19
HETATM   19  C7  UNL     1      24.453   5.669  48.996  1.00  0.00     0.066 C 
HETATM   20  C8  UNL     1      23.962   6.881  49.750  1.00  0.00     0.021 C 
BRANCH  19  21
HETATM   21  C9  UNL     1      25.910   5.748  48.715  1.00  0.00    -0.049 A 
HETATM   22  C10 UNL     1      26.880   4.786  48.873  1.00  0.00     0.008 A 
HETATM   23  C11 UNL     1      28.189   5.027  48.554  1.00  0.00     0.001 A 
HETATM   24  C12 UNL     1      28.629   6.235  48.056  1.00  0.00     0.000 A 
HETATM   25  C13 UNL     1      27.701   7.228  47.879  1.00  0.00     0.001 A 
HETATM   26  C14 UNL     1      26.396   6.961  48.208  1.00  0.00     0.008 A 
ENDBRANCH  19  21
ENDBRANCH   3  19
TORSDOF 6
ENDMDL
MODEL 3
REMARK VINA RESULT:      -7.4      2.352      6.894
REMARK  6 active torsions:
REMARK  status: ('A' for Active; 'I' for Inactive)
REMARK    1  A    between atoms: N1_2  and  C2_3 
REMARK    2  A    between atoms: C3_4  and  N2_5 
REMARK    3  A    between atoms: N2_5  and  C4_6 
REMARK    4  A    between atoms: C6_8  and  C7_9 
REMARK    5  A    between atoms: C7_9  and  C9_11 
REMARK    6  A    between atoms: C18_21  and  N4_22 
ROOT
HETATM    1  C4  UNL     1      23.771   3.476  51.984  1.00  0.00     0.031 A 
HETATM    2  C5  UNL     1      24.152   2.761  53.028  1.00  0.00     0.054 A 
HETATM    3  C6  UNL     1      23.871   1.350  52.851  1.00  0.00     0.039 A 
HETATM    4  N3  UNL     1      23.317   1.241  51.687  1.00  0.00    -0.287 NA
HETATM    5  C15 UNL     1      23.190   2.513  51.022  1.00  0.00     0.206 A 
ENDROOT
BRANCH   1   6
HETATM    6  N2  UNL     1      23.888   4.882  51.811  1.00  0.00    -0.360 N 
HETATM    7  H5  UNL     1      23.368   5.500  52.449  1.00  0.00     0.165 HD
BRANCH   6   8
HETATM    8  C3  UNL     1      24.697   5.461  50.791  1.00  0.00     0.034 C 
HETATM    9  C2  UNL     1      24.469   6.734  50.431  1.00  0.00     0.060 C 
HETATM   10  C18 UNL     1      25.444   7.108  49.348  1.00  0.00     0.269 C 
HETATM   11  C17 UNL     1      25.701   5.748  48.728  1.00  0.00     0.048 C 
HETATM   12  C16 UNL     1      25.822   4.902  49.990  1.00  0.00     0.062 C 
BRANCH   9  13
HETATM   13  N1  UNL     1      23.490   7.626  50.945  1.00  0.00    -0.394 N 
HETATM   14  C1  UNL     1      22.079   7.789  50.608  1.00  0.00     0.146 C 
HETATM   15  H4  UNL     1      23.712   8.334  51.701  1.00  0.00     0.159 HD
ENDBRANCH   9  13
BRANCH  10  16
HETATM   16  N4  UNL     1      26.689   7.503  49.974  1.00  0.00     0.088 N 
HETATM   17  H23 UNL     1      27.086   8.376  49.564  1.00  0.00     0.313 HD
HETATM   18  H24 UNL     1      27.407   6.746  49.902  1.00  0.00     0.313 HD
ENDBRANCH  10  16
ENDBRANCH   6   8
ENDBRANCH   1   6
BRANCH   3  19
HETATM   19  C7  UNL     1      24.128   0.183  53.770  1.00  0.00     0.066 C 
HETATM   20  C8  UNL     1      23.271  -0.952  53.265  1.00  0.00     0.021 C 
BRANCH  19  21
HETATM   21  C9  UNL     1      25.576  -0.129  53.662  1.00  0.00    -0.049 A 
HETATM   22  C10 UNL     1      26.244  -0.835  52.687  1.00  0.00     0.008 A 
HETATM   23  C11 UNL     1      27.598  -1.025  52.740  1.00  0.00     0.001 A 
HETATM   24  C12 UNL     1      28.386  -0.530  53.758  1.00  0.00     0.000 A 
HETATM   25  C13 UNL     1      27.769   0.181  54.753  1.00  0.00     0.001 A 
HETATM   26  C14 UNL     1      26.410   0.357  54.677  1.00  0.00     0.008 A 
ENDBRANCH  19  21
ENDBRANCH   3  19
TORSDOF 6
ENDMDL
MODEL 4
REMARK VINA RESULT:      -7.3      2.755      5.391
REMARK  6 active torsions:
REMARK  status: ('A' for Active; 'I' for Inactive)
REMARK    1  A    between atoms: N1_2  and  C2_3 
REMARK    2  A    between atoms: C3_4  and  N2_5 
REMARK    3  A    between atoms: N2_5  and  C4_6 
REMARK    4  A    between atoms: C6_8  and  C7_9 
REMARK    5  A    between atoms: C7_9  and  C9_11 
REMARK    6  A    between atoms: C18_21  and  N4_22 
ROOT
HETATM    1  C4  UNL     1      25.033   2.217  52.884  1.00  0.00     0.031 A 
HETATM    2  C5  UNL     1      23.741   1.972  53.014  1.00  0.00     0.054 A 
HETATM    3  C6  UNL     1      23.102   1.743  51.733  1.00  0.00     0.039 A 
HETATM    4  N3  UNL     1      24.034   1.856  50.844  1.00  0.00    -0.287 NA
HETATM    5  C15 UNL     1      25.315   2.156  51.432  1.00  0.00     0.206 A 
ENDROOT
BRANCH   1   6
HETATM    6  N2  UNL     1      25.969   2.485  53.919  1.00  0.00    -0.360 N 
HETATM    7  H5  UNL     1      25.723   3.184  54.635  1.00  0.00     0.165 HD
BRANCH   6   8
HETATM    8  C3  UNL     1      27.229   1.825  54.001  1.00  0.00     0.034 C 
HETATM    9  C2  UNL     1      27.300   0.647  54.641  1.00  0.00     0.060 C 
HETATM   10  C18 UNL     1      28.723   0.159  54.590  1.00  0.00     0.269 C 
HETATM   11  C17 UNL     1      29.463   1.480  54.490  1.00  0.00     0.048 C 
HETATM   12  C16 UNL     1      28.574   2.203  53.485  1.00  0.00     0.062 C 
BRANCH   9  13
HETATM   13  N1  UNL     1      26.251  -0.067  55.277  1.00  0.00    -0.394 N 
HETATM   14  C1  UNL     1      25.214  -0.934  54.723  1.00  0.00     0.146 C 
HETATM   15  H4  UNL     1      26.101  -0.038  56.325  1.00  0.00     0.159 HD
ENDBRANCH   9  13
BRANCH  10  16
HETATM   16  N4  UNL     1      28.928  -0.510  53.322  1.00  0.00     0.088 N 
HETATM   17  H23 UNL     1      28.041  -0.871  52.909  1.00  0.00     0.313 HD
HETATM   18  H24 UNL     1      29.597  -1.308  53.418  1.00  0.00     0.313 HD
ENDBRANCH  10  16
ENDBRANCH   6   8
ENDBRANCH   1   6
BRANCH   3  19
HETATM   19  C7  UNL     1      21.663   1.435  51.405  1.00  0.00     0.066 C 
HETATM   20  C8  UNL     1      21.642   0.989  49.962  1.00  0.00     0.021 C 
BRANCH  19  21
HETATM   21  C9  UNL     1      21.243   0.347  52.324  1.00  0.00    -0.049 A 
HETATM   22  C10 UNL     1      22.016  -0.565  53.005  1.00  0.00     0.008 A 
HETATM   23  C11 UNL     1      21.459  -1.507  53.827  1.00  0.00     0.001 A 
HETATM   24  C12 UNL     1      20.099  -1.613  54.032  1.00  0.00     0.000 A 
HETATM   25  C13 UNL     1      19.284  -0.728  53.377  1.00  0.00     0.001 A 
HETATM   26  C14 UNL     1      19.868   0.206  52.558  1.00  0.00     0.008 A 
ENDBRANCH  19  21
ENDBRANCH   3  19
TORSDOF 6
ENDMDL
MODEL 5
REMARK VINA RESULT:      -7.3      2.446      6.833
REMARK  6 active torsions:
REMARK  status: ('A' for Active; 'I' for Inactive)
REMARK    1  A    between atoms: N1_2  and  C2_3 
REMARK    2  A    between atoms: C3_4  and  N2_5 
REMARK    3  A    between atoms: N2_5  and  C4_6 
REMARK    4  A    between atoms: C6_8  and  C7_9 
REMARK    5  A    between atoms: C7_9  and  C9_11 
REMARK    6  A    between atoms: C18_21  and  N4_22 
ROOT
HETATM    1  C4  UNL     1      23.839   2.466  50.556  1.00  0.00     0.031 A 
HETATM    2  C5  UNL     1      24.469   2.088  51.653  1.00  0.00     0.054 A 
HETATM    3  C6  UNL     1      23.730   1.077  52.382  1.00  0.00     0.039 A 
HETATM    4  N3  UNL     1      22.652   0.863  51.700  1.00  0.00    -0.287 NA
HETATM    5  C15 UNL     1      22.587   1.676  50.512  1.00  0.00     0.206 A 
ENDROOT
BRANCH   1   6
HETATM    6  N2  UNL     1      24.265   3.433  49.605  1.00  0.00    -0.360 N 
HETATM    7  H5  UNL     1      24.512   3.113  48.657  1.00  0.00     0.165 HD
BRANCH   6   8
HETATM    8  C3  UNL     1      24.362   4.820  49.915  1.00  0.00     0.034 C 
HETATM    9  C2  UNL     1      25.576   5.394  49.933  1.00  0.00     0.060 C 
HETATM   10  C18 UNL     1      25.412   6.848  50.284  1.00  0.00     0.269 C 
HETATM   11  C17 UNL     1      24.135   6.792  51.101  1.00  0.00     0.048 C 
HETATM   12  C16 UNL     1      23.318   5.830  50.245  1.00  0.00     0.062 C 
BRANCH   9  13
HETATM   13  N1  UNL     1      26.833   4.788  49.676  1.00  0.00    -0.394 N 
HETATM   14  C1  UNL     1      27.773   4.972  48.574  1.00  0.00     0.146 C 
HETATM   15  H4  UNL     1      27.258   4.068  50.327  1.00  0.00     0.159 HD
ENDBRANCH   9  13
BRANCH  10  16
HETATM   16  N4  UNL     1      25.081   7.573  49.075  1.00  0.00     0.088 N 
HETATM   17  H23 UNL     1      25.794   8.294  48.830  1.00  0.00     0.313 HD
HETATM   18  H24 UNL     1      24.150   8.042  49.156  1.00  0.00     0.313 HD
ENDBRANCH  10  16
ENDBRANCH   6   8
ENDBRANCH   1   6
BRANCH   3  19
HETATM   19  C7  UNL     1      24.060   0.368  53.671  1.00  0.00     0.066 C 
HETATM   20  C8  UNL     1      23.152  -0.836  53.740  1.00  0.00     0.021 C 
BRANCH  19  21
HETATM   21  C9  UNL     1      25.490  -0.025  53.583  1.00  0.00    -0.049 A 
HETATM   22  C10 UNL     1      26.098  -0.912  52.725  1.00  0.00     0.008 A 
HETATM   23  C11 UNL     1      27.444  -1.153  52.776  1.00  0.00     0.001 A 
HETATM   24  C12 UNL     1      28.283  -0.532  53.678  1.00  0.00     0.000 A 
HETATM   25  C13 UNL     1      27.727   0.361  54.555  1.00  0.00     0.001 A 
HETATM   26  C14 UNL     1      26.375   0.584  54.483  1.00  0.00     0.008 A 
ENDBRANCH  19  21
ENDBRANCH   3  19
TORSDOF 6
ENDMDL
MODEL 6
REMARK VINA RESULT:      -7.2      2.612      6.778
REMARK  6 active torsions:
REMARK  status: ('A' for Active; 'I' for Inactive)
REMARK    1  A    between atoms: N1_2  and  C2_3 
REMARK    2  A    between atoms: C3_4  and  N2_5 
REMARK    3  A    between atoms: N2_5  and  C4_6 
REMARK    4  A    between atoms: C6_8  and  C7_9 
REMARK    5  A    between atoms: C7_9  and  C9_11 
REMARK    6  A    between atoms: C18_21  and  N4_22 
ROOT
HETATM    1  C4  UNL     1      23.433   2.263  50.539  1.00  0.00     0.031 A 
HETATM    2  C5  UNL     1      24.108   1.982  51.640  1.00  0.00     0.054 A 
HETATM    3  C6  UNL     1      23.469   0.939  52.416  1.00  0.00     0.039 A 
HETATM    4  N3  UNL     1      22.405   0.608  51.760  1.00  0.00    -0.287 NA
HETATM    5  C15 UNL     1      22.254   1.367  50.545  1.00  0.00     0.206 A 
ENDROOT
BRANCH   1   6
HETATM    6  N2  UNL     1      23.762   3.226  49.547  1.00  0.00    -0.360 N 
HETATM    7  H5  UNL     1      23.645   2.970  48.556  1.00  0.00     0.165 HD
BRANCH   6   8
HETATM    8  C3  UNL     1      24.245   4.526  49.873  1.00  0.00     0.034 C 
HETATM    9  C2  UNL     1      23.357   5.501  50.123  1.00  0.00     0.060 C 
HETATM   10  C18 UNL     1      24.110   6.765  50.440  1.00  0.00     0.269 C 
HETATM   11  C17 UNL     1      25.390   6.524  49.663  1.00  0.00     0.048 C 
HETATM   12  C16 UNL     1      25.631   5.057  50.003  1.00  0.00     0.062 C 
BRANCH   9  13
HETATM   13  N1  UNL     1      21.940   5.418  50.107  1.00  0.00    -0.394 N 
HETATM   14  C1  UNL     1      20.998   4.990  51.138  1.00  0.00     0.146 C 
HETATM   15  H4  UNL     1      21.367   5.685  49.257  1.00  0.00     0.159 HD
ENDBRANCH   9  13
BRANCH  10  16
HETATM   16  N4  UNL     1      24.479   6.736  51.840  1.00  0.00     0.088 N 
HETATM   17  H23 UNL     1      25.401   7.189  52.022  1.00  0.00     0.313 HD
HETATM   18  H24 UNL     1      24.515   5.756  52.202  1.00  0.00     0.313 HD
ENDBRANCH  10  16
ENDBRANCH   6   8
ENDBRANCH   1   6
BRANCH   3  19
HETATM   19  C7  UNL     1      23.876   0.311  53.725  1.00  0.00     0.066 C 
HETATM   20  C8  UNL     1      22.996  -0.902  53.907  1.00  0.00     0.021 C 
BRANCH  19  21
HETATM   21  C9  UNL     1      25.307  -0.063  53.587  1.00  0.00    -0.049 A 
HETATM   22  C10 UNL     1      25.892  -0.971  52.734  1.00  0.00     0.008 A 
HETATM   23  C11 UNL     1      27.242  -1.188  52.734  1.00  0.00     0.001 A 
HETATM   24  C12 UNL     1      28.109  -0.524  53.576  1.00  0.00     0.000 A 
HETATM   25  C13 UNL     1      27.577   0.392  54.446  1.00  0.00     0.001 A 
HETATM   26  C14 UNL     1      26.220   0.591  54.426  1.00  0.00     0.008 A 
ENDBRANCH  19  21
ENDBRANCH   3  19
TORSDOF 6
ENDMDL
MODEL 7
REMARK VINA RESULT:      -7.0      2.259      7.067
REMARK  6 active torsions:
REMARK  status: ('A' for Active; 'I' for Inactive)
REMARK    1  A    between atoms: N1_2  and  C2_3 
REMARK    2  A    between atoms: C3_4  and  N2_5 
REMARK    3  A    between atoms: N2_5  and  C4_6 
REMARK    4  A    between atoms: C6_8  and  C7_9 
REMARK    5  A    between atoms: C7_9  and  C9_11 
REMARK    6  A    between atoms: C18_21  and  N4_22 
ROOT
HETATM    1  C4  UNL     1      25.579   2.801  50.574  1.00  0.00     0.031 A 
HETATM    2  C5  UNL     1      26.072   2.176  51.629  1.00  0.00     0.054 A 
HETATM    3  C6  UNL     1      25.055   1.427  52.340  1.00  0.00     0.039 A 
HETATM    4  N3  UNL     1      23.953   1.619  51.691  1.00  0.00    -0.287 NA
HETATM    5  C15 UNL     1      24.136   2.472  50.544  1.00  0.00     0.206 A 
ENDROOT
BRANCH   1   6
HETATM    6  N2  UNL     1      26.281   3.623  49.652  1.00  0.00    -0.360 N 
HETATM    7  H5  UNL     1      26.996   3.187  49.051  1.00  0.00     0.165 HD
BRANCH   6   8
HETATM    8  C3  UNL     1      26.032   5.020  49.530  1.00  0.00     0.034 C 
HETATM    9  C2  UNL     1      27.016   5.814  49.078  1.00  0.00     0.060 C 
HETATM   10  C18 UNL     1      26.510   7.231  49.041  1.00  0.00     0.269 C 
HETATM   11  C17 UNL     1      25.464   7.178  50.139  1.00  0.00     0.048 C 
HETATM   12  C16 UNL     1      24.819   5.833  49.822  1.00  0.00     0.062 C 
BRANCH   9  13
HETATM   13  N1  UNL     1      28.330   5.443  48.687  1.00  0.00    -0.394 N 
HETATM   14  C1  UNL     1      29.403   6.228  48.085  1.00  0.00     0.146 C 
HETATM   15  H4  UNL     1      28.698   4.457  48.806  1.00  0.00     0.159 HD
ENDBRANCH   9  13
BRANCH  10  16
HETATM   16  N4  UNL     1      25.781   7.421  47.804  1.00  0.00     0.088 N 
HETATM   17  H23 UNL     1      24.849   7.866  47.950  1.00  0.00     0.313 HD
HETATM   18  H24 UNL     1      25.639   6.513  47.304  1.00  0.00     0.313 HD
ENDBRANCH  10  16
ENDBRANCH   6   8
ENDBRANCH   1   6
BRANCH   3  19
HETATM   19  C7  UNL     1      25.159   0.579  53.582  1.00  0.00     0.066 C 
HETATM   20  C8  UNL     1      24.110  -0.498  53.452  1.00  0.00     0.021 C 
BRANCH  19  21
HETATM   21  C9  UNL     1      26.532   0.013  53.593  1.00  0.00    -0.049 A 
HETATM   22  C10 UNL     1      27.054  -1.018  52.846  1.00  0.00     0.008 A 
HETATM   23  C11 UNL     1      28.358  -1.412  52.978  1.00  0.00     0.001 A 
HETATM   24  C12 UNL     1      29.237  -0.813  53.857  1.00  0.00     0.000 A 
HETATM   25  C13 UNL     1      28.766   0.220  54.624  1.00  0.00     0.001 A 
HETATM   26  C14 UNL     1      27.455   0.595  54.473  1.00  0.00     0.008 A 
ENDBRANCH  19  21
ENDBRANCH   3  19
TORSDOF 6
ENDMDL
MODEL 8
REMARK VINA RESULT:      -6.8      2.102      7.111
REMARK  6 active torsions:
REMARK  status: ('A' for Active; 'I' for Inactive)
REMARK    1  A    between atoms: N1_2  and  C2_3 
REMARK    2  A    between atoms: C3_4  and  N2_5 
REMARK    3  A    between atoms: N2_5  and  C4_6 
REMARK    4  A    between atoms: C6_8  and  C7_9 
REMARK    5  A    between atoms: C7_9  and  C9_11 
REMARK    6  A    between atoms: C18_21  and  N4_22 
ROOT
HETATM    1  C4  UNL     1      25.229   2.833  50.629  1.00  0.00     0.031 A 
HETATM    2  C5  UNL     1      24.830   2.080  51.638  1.00  0.00     0.054 A 
HETATM    3  C6  UNL     1      25.943   1.625  52.449  1.00  0.00     0.039 A 
HETATM    4  N3  UNL     1      27.006   2.120  51.903  1.00  0.00    -0.287 NA
HETATM    5  C15 UNL     1      26.704   2.911  50.737  1.00  0.00     0.206 A 
ENDROOT
BRANCH   1   6
HETATM    6  N2  UNL     1      24.418   3.447  49.637  1.00  0.00    -0.360 N 
HETATM    7  H5  UNL     1      24.052   2.863  48.871  1.00  0.00     0.165 HD
BRANCH   6   8
HETATM    8  C3  UNL     1      24.095   4.835  49.664  1.00  0.00     0.034 C 
HETATM    9  C2  UNL     1      22.924   5.215  50.201  1.00  0.00     0.060 C 
HETATM   10  C18 UNL     1      22.820   6.713  50.111  1.00  0.00     0.269 C 
HETATM   11  C17 UNL     1      23.686   6.976  48.894  1.00  0.00     0.048 C 
HETATM   12  C16 UNL     1      24.845   6.030  49.186  1.00  0.00     0.062 C 
BRANCH   9  13
HETATM   13  N1  UNL     1      21.916   4.393  50.771  1.00  0.00    -0.394 N 
HETATM   14  C1  UNL     1      21.577   4.130  52.167  1.00  0.00     0.146 C 
HETATM   15  H4  UNL     1      21.242   3.832  50.178  1.00  0.00     0.159 HD
ENDBRANCH   9  13
BRANCH  10  16
HETATM   16  N4  UNL     1      23.529   7.286  51.237  1.00  0.00     0.088 N 
HETATM   17  H23 UNL     1      24.480   7.629  50.980  1.00  0.00     0.313 HD
HETATM   18  H24 UNL     1      23.624   6.596  52.017  1.00  0.00     0.313 HD
ENDBRANCH  10  16
ENDBRANCH   6   8
ENDBRANCH   1   6
BRANCH   3  19
HETATM   19  C7  UNL     1      25.959   0.756  53.680  1.00  0.00     0.066 C 
HETATM   20  C8  UNL     1      24.632   0.037  53.711  1.00  0.00     0.021 C 
BRANCH  19  21
HETATM   21  C9  UNL     1      27.093  -0.189  53.515  1.00  0.00    -0.049 A 
HETATM   22  C10 UNL     1      28.404  -0.054  53.911  1.00  0.00     0.008 A 
HETATM   23  C11 UNL     1      29.328  -1.037  53.683  1.00  0.00     0.001 A 
HETATM   24  C12 UNL     1      29.020  -2.223  53.049  1.00  0.00     0.000 A 
HETATM   25  C13 UNL     1      27.728  -2.408  52.635  1.00  0.00     0.001 A 
HETATM   26  C14 UNL     1      26.821  -1.406  52.874  1.00  0.00     0.008 A 
ENDBRANCH  19  21
ENDBRANCH   3  19
TORSDOF 6
ENDMDL
MODEL 9
REMARK VINA RESULT:      -6.7      2.132      3.412
REMARK  6 active torsions:
REMARK  status: ('A' for Active; 'I' for Inactive)
REMARK    1  A    between atoms: N1_2  and  C2_3 
REMARK    2  A    between atoms: C3_4  and  N2_5 
REMARK    3  A    between atoms: N2_5  and  C4_6 
REMARK    4  A    between atoms: C6_8  and  C7_9 
REMARK    5  A    between atoms: C7_9  and  C9_11 
REMARK    6  A    between atoms: C18_21  and  N4_22 
ROOT
HETATM    1  C4  UNL     1      24.062   3.647  52.246  1.00  0.00     0.031 A 
HETATM    2  C5  UNL     1      24.369   3.587  50.963  1.00  0.00     0.054 A 
HETATM    3  C6  UNL     1      24.112   4.842  50.285  1.00  0.00     0.039 A 
HETATM    4  N3  UNL     1      23.647   5.645  51.186  1.00  0.00    -0.287 NA
HETATM    5  C15 UNL     1      23.560   5.020  52.481  1.00  0.00     0.206 A 
ENDROOT
BRANCH   1   6
HETATM    6  N2  UNL     1      24.182   2.611  53.212  1.00  0.00    -0.360 N 
HETATM    7  H5  UNL     1      24.860   2.730  53.978  1.00  0.00     0.165 HD
BRANCH   6   8
HETATM    8  C3  UNL     1      23.402   1.420  53.157  1.00  0.00     0.034 C 
HETATM    9  C2  UNL     1      24.025   0.234  53.253  1.00  0.00     0.060 C 
HETATM   10  C18 UNL     1      22.993  -0.858  53.169  1.00  0.00     0.269 C 
HETATM   11  C17 UNL     1      21.926  -0.164  52.344  1.00  0.00     0.048 C 
HETATM   12  C16 UNL     1      21.935   1.210  53.005  1.00  0.00     0.062 C 
BRANCH   9  13
HETATM   13  N1  UNL     1      25.415  -0.013  53.408  1.00  0.00    -0.394 N 
HETATM   14  C1  UNL     1      26.230  -1.156  53.008  1.00  0.00     0.146 C 
HETATM   15  H4  UNL     1      26.064   0.681  53.877  1.00  0.00     0.159 HD
ENDBRANCH   9  13
BRANCH  10  16
HETATM   16  N4  UNL     1      22.422  -1.046  54.486  1.00  0.00     0.088 N 
HETATM   17  H23 UNL     1      22.418  -0.169  55.051  1.00  0.00     0.313 HD
HETATM   18  H24 UNL     1      22.935  -1.783  55.021  1.00  0.00     0.313 HD
ENDBRANCH  10  16
ENDBRANCH   6   8
ENDBRANCH   1   6
BRANCH   3  19
HETATM   19  C7  UNL     1      24.308   5.227  48.841  1.00  0.00     0.066 C 
HETATM   20  C8  UNL     1      23.464   6.457  48.609  1.00  0.00     0.021 C 
BRANCH  19  21
HETATM   21  C9  UNL     1      25.756   5.512  48.672  1.00  0.00    -0.049 A 
HETATM   22  C10 UNL     1      26.836   4.680  48.862  1.00  0.00     0.008 A 
HETATM   23  C11 UNL     1      28.118   5.109  48.651  1.00  0.00     0.001 A 
HETATM   24  C12 UNL     1      28.422   6.389  48.236  1.00  0.00     0.000 A 
HETATM   25  C13 UNL     1      27.382   7.257  48.032  1.00  0.00     0.001 A 
HETATM   26  C14 UNL     1      26.106   6.803  48.251  1.00  0.00     0.008 A 
ENDBRANCH  19  21
ENDBRANCH   3  19
TORSDOF 6
ENDMDL
