MODEL 1
REMARK VINA RESULT:      -8.4      0.000      0.000
REMARK  5 active torsions:
REMARK  status: ('A' for Active; 'I' for Inactive)
REMARK    1  A    between atoms: N1_1  and  C1_2 
REMARK    2  A    between atoms: C6_7  and  C7_8 
REMARK    3  A    between atoms: C7_8  and  C8_9 
REMARK    4  A    between atoms: C8_9  and  C9_10 
REMARK    5  A    between atoms: C16_21  and  C17_22 
ROOT
HETATM    1  C1  UNL     1      23.940   6.226  49.188  1.00  0.00     0.344 C 
HETATM    2  C2  UNL     1      25.230   5.986  49.938  1.00  0.00     0.086 C 
HETATM    3  C3  UNL     1      26.082   4.958  49.310  1.00  0.00    -0.023 C 
HETATM    4  C4  UNL     1      26.674   3.782  49.373  1.00  0.00    -0.001 C 
HETATM    5  C5  UNL     1      26.665   2.795  50.435  1.00  0.00     0.034 C 
HETATM    6  C6  UNL     1      26.325   2.313  51.589  1.00  0.00     0.076 C 
HETATM    7  O1  UNL     1      25.532   3.425  51.843  1.00  0.00    -0.243 OA
HETATM    8  N3  UNL     1      24.146   3.363  51.538  1.00  0.00    -0.270 N 
HETATM    9  C14 UNL     1      23.230   3.776  52.542  1.00  0.00     0.148 C 
HETATM   10  C15 UNL     1      22.756   4.987  52.457  1.00  0.00     0.106 C 
HETATM   11  N4  UNL     1      22.646   5.509  51.308  1.00  0.00    -0.225 NA
HETATM   12  C16 UNL     1      22.381   4.666  50.211  1.00  0.00     0.159 C 
HETATM   13  N6  UNL     1      23.071   5.098  49.194  1.00  0.00    -0.234 NA
HETATM   14  H17 UNL     1      24.179   2.990  50.569  1.00  0.00     0.194 HD
ENDROOT
BRANCH   6  15
HETATM   15  C7  UNL     1      26.247   1.399  52.715  1.00  0.00     0.072 C 
BRANCH  15  16
HETATM   16  C8  UNL     1      25.959  -0.032  52.313  1.00  0.00     0.046 C 
BRANCH  16  17
HETATM   17  C9  UNL     1      27.158  -0.814  52.703  1.00  0.00    -0.040 A 
HETATM   18  C10 UNL     1      28.304  -0.255  53.240  1.00  0.00     0.010 A 
HETATM   19  C11 UNL     1      29.386  -1.003  53.587  1.00  0.00     0.020 A 
HETATM   20  C12 UNL     1      29.356  -2.389  53.404  1.00  0.00     0.116 A 
HETATM   21  N2  UNL     1      28.252  -2.969  52.881  1.00  0.00    -0.273 NA
HETATM   22  C13 UNL     1      27.194  -2.188  52.547  1.00  0.00     0.123 A 
ENDBRANCH  16  17
ENDBRANCH  15  16
ENDBRANCH   6  15
BRANCH   1  23
HETATM   23  N1  UNL     1      24.285   6.629  47.842  1.00  0.00     0.103 N 
HETATM   24  H1  UNL     1      24.164   7.674  47.779  1.00  0.00     0.315 HD
HETATM   25  H2  UNL     1      23.725   6.135  47.117  1.00  0.00     0.315 HD
ENDBRANCH   1  23
BRANCH  12  26
HETATM   26  C17 UNL     1      21.529   3.500  49.912  1.00  0.00     0.029 A 
HETATM   27  C18 UNL     1      22.102   2.508  49.148  1.00  0.00     0.018 A 
HETATM   28  C19 UNL     1      21.263   1.424  48.859  1.00  0.00     0.020 A 
HETATM   29  C20 UNL     1      19.966   1.301  49.276  1.00  0.00     0.116 A 
HETATM   30  N5  UNL     1      19.459   2.300  50.020  1.00  0.00    -0.272 NA
HETATM   31  C21 UNL     1      20.225   3.362  50.323  1.00  0.00     0.131 A 
ENDBRANCH  12  26
TORSDOF 5
ENDMDL
MODEL 2
REMARK VINA RESULT:      -8.3      2.535      4.772
REMARK  5 active torsions:
REMARK  status: ('A' for Active; 'I' for Inactive)
REMARK    1  A    between atoms: N1_1  and  C1_2 
REMARK    2  A    between atoms: C6_7  and  C7_8 
REMARK    3  A    between atoms: C7_8  and  C8_9 
REMARK    4  A    between atoms: C8_9  and  C9_10 
REMARK    5  A    between atoms: C16_21  and  C17_22 
ROOT
HETATM    1  C1  UNL     1      18.927   1.862  50.152  1.00  0.00     0.344 C 
HETATM    2  C2  UNL     1      19.715   2.811  49.278  1.00  0.00     0.086 C 
HETATM    3  C3  UNL     1      20.672   2.121  48.393  1.00  0.00    -0.023 C 
HETATM    4  C4  UNL     1      21.918   1.898  48.023  1.00  0.00    -0.001 C 
HETATM    5  C5  UNL     1      23.153   2.440  48.555  1.00  0.00     0.034 C 
HETATM    6  C6  UNL     1      23.873   3.157  49.359  1.00  0.00     0.076 C 
HETATM    7  O1  UNL     1      22.735   3.571  50.040  1.00  0.00    -0.243 OA
HETATM    8  N3  UNL     1      22.339   2.866  51.208  1.00  0.00    -0.270 N 
HETATM    9  C14 UNL     1      22.045   3.626  52.371  1.00  0.00     0.148 C 
HETATM   10  C15 UNL     1      20.791   3.878  52.619  1.00  0.00     0.106 C 
HETATM   11  N4  UNL     1      19.922   3.045  52.225  1.00  0.00    -0.225 NA
HETATM   12  C16 UNL     1      20.276   1.683  52.167  1.00  0.00     0.159 C 
HETATM   13  N6  UNL     1      19.736   1.171  51.098  1.00  0.00    -0.234 NA
HETATM   14  H17 UNL     1      22.381   1.886  50.864  1.00  0.00     0.194 HD
ENDROOT
BRANCH   6  15
HETATM   15  C7  UNL     1      25.044   3.762  49.969  1.00  0.00     0.072 C 
BRANCH  15  16
HETATM   16  C8  UNL     1      26.235   2.830  50.045  1.00  0.00     0.046 C 
BRANCH  16  17
HETATM   17  C9  UNL     1      26.103   2.105  51.333  1.00  0.00    -0.040 A 
HETATM   18  C10 UNL     1      26.400   0.765  51.499  1.00  0.00     0.010 A 
HETATM   19  C11 UNL     1      26.268   0.132  52.696  1.00  0.00     0.020 A 
HETATM   20  C12 UNL     1      25.819   0.847  53.810  1.00  0.00     0.116 A 
HETATM   21  N2  UNL     1      25.519   2.160  53.684  1.00  0.00    -0.273 NA
HETATM   22  C13 UNL     1      25.664   2.754  52.473  1.00  0.00     0.123 A 
ENDBRANCH  16  17
ENDBRANCH  15  16
ENDBRANCH   6  15
BRANCH   1  23
HETATM   23  N1  UNL     1      18.220   0.948  49.281  1.00  0.00     0.103 N 
HETATM   24  H1  UNL     1      17.877   1.498  48.450  1.00  0.00     0.315 HD
HETATM   25  H2  UNL     1      17.440   0.455  49.762  1.00  0.00     0.315 HD
ENDBRANCH   1  23
BRANCH  12  26
HETATM   26  C17 UNL     1      21.028   0.715  52.988  1.00  0.00     0.029 A 
HETATM   27  C18 UNL     1      21.971  -0.039  52.327  1.00  0.00     0.018 A 
HETATM   28  C19 UNL     1      22.653  -0.966  53.126  1.00  0.00     0.020 A 
HETATM   29  C20 UNL     1      22.444  -1.155  54.464  1.00  0.00     0.116 A 
HETATM   30  N5  UNL     1      21.510  -0.390  55.057  1.00  0.00    -0.272 NA
HETATM   31  C21 UNL     1      20.829   0.514  54.332  1.00  0.00     0.131 A 
ENDBRANCH  12  26
TORSDOF 5
ENDMDL
MODEL 3
REMARK VINA RESULT:      -8.3      1.993      2.160
REMARK  5 active torsions:
REMARK  status: ('A' for Active; 'I' for Inactive)
REMARK    1  A    between atoms: N1_1  and  C1_2 
REMARK    2  A    between atoms: C6_7  and  C7_8 
REMARK    3  A    between atoms: C7_8  and  C8_9 
REMARK    4  A    between atoms: C8_9  and  C9_10 
REMARK    5  A    between atoms: C16_21  and  C17_22 
ROOT
HETATM    1  C1  UNL     1      24.767   7.331  48.559  1.00  0.00     0.344 C 
HETATM    2  C2  UNL     1      25.756   6.763  49.551  1.00  0.00     0.086 C 
HETATM    3  C3  UNL     1      26.545   5.643  49.003  1.00  0.00    -0.023 C 
HETATM    4  C4  UNL     1      26.883   4.369  49.039  1.00  0.00    -0.001 C 
HETATM    5  C5  UNL     1      26.425   3.313  49.921  1.00  0.00     0.034 C 
HETATM    6  C6  UNL     1      25.720   2.809  50.885  1.00  0.00     0.076 C 
HETATM    7  O1  UNL     1      25.099   4.033  51.098  1.00  0.00    -0.243 OA
HETATM    8  N3  UNL     1      23.850   4.287  50.471  1.00  0.00    -0.270 N 
HETATM    9  C14 UNL     1      22.794   4.788  51.279  1.00  0.00     0.148 C 
HETATM   10  C15 UNL     1      22.581   6.072  51.254  1.00  0.00     0.106 C 
HETATM   11  N4  UNL     1      22.865   6.708  50.196  1.00  0.00    -0.225 NA
HETATM   12  C16 UNL     1      22.745   6.041  48.961  1.00  0.00     0.159 C 
HETATM   13  N6  UNL     1      23.739   6.411  48.205  1.00  0.00    -0.234 NA
HETATM   14  H17 UNL     1      24.064   4.004  49.494  1.00  0.00     0.194 HD
ENDROOT
BRANCH   6  15
HETATM   15  C7  UNL     1      25.194   1.833  51.823  1.00  0.00     0.072 C 
BRANCH  15  16
HETATM   16  C8  UNL     1      25.341   2.248  53.272  1.00  0.00     0.046 C 
BRANCH  16  17
HETATM   17  C9  UNL     1      26.585   1.601  53.756  1.00  0.00    -0.040 A 
HETATM   18  C10 UNL     1      27.851   2.133  53.587  1.00  0.00     0.010 A 
HETATM   19  C11 UNL     1      28.970   1.511  54.045  1.00  0.00     0.020 A 
HETATM   20  C12 UNL     1      28.858   0.289  54.715  1.00  0.00     0.116 A 
HETATM   21  N2  UNL     1      27.636  -0.261  54.898  1.00  0.00    -0.273 NA
HETATM   22  C13 UNL     1      26.544   0.391  54.426  1.00  0.00     0.123 A 
ENDBRANCH  16  17
ENDBRANCH  15  16
ENDBRANCH   6  15
BRANCH   1  23
HETATM   23  N1  UNL     1      25.512   7.775  47.402  1.00  0.00     0.103 N 
HETATM   24  H1  UNL     1      26.532   7.583  47.584  1.00  0.00     0.315 HD
HETATM   25  H2  UNL     1      25.347   8.778  47.176  1.00  0.00     0.315 HD
ENDBRANCH   1  23
BRANCH  12  26
HETATM   26  C17 UNL     1      21.807   5.107  48.312  1.00  0.00     0.029 A 
HETATM   27  C18 UNL     1      22.354   4.222  47.411  1.00  0.00     0.018 A 
HETATM   28  C19 UNL     1      21.437   3.363  46.791  1.00  0.00     0.020 A 
HETATM   29  C20 UNL     1      20.088   3.356  47.021  1.00  0.00     0.116 A 
HETATM   30  N5  UNL     1      19.609   4.243  47.911  1.00  0.00    -0.272 NA
HETATM   31  C21 UNL     1      20.451   5.088  48.531  1.00  0.00     0.131 A 
ENDBRANCH  12  26
TORSDOF 5
ENDMDL
MODEL 4
REMARK VINA RESULT:      -8.2      1.980      2.771
REMARK  5 active torsions:
REMARK  status: ('A' for Active; 'I' for Inactive)
REMARK    1  A    between atoms: N1_1  and  C1_2 
REMARK    2  A    between atoms: C6_7  and  C7_8 
REMARK    3  A    between atoms: C7_8  and  C8_9 
REMARK    4  A    between atoms: C8_9  and  C9_10 
REMARK    5  A    between atoms: C16_21  and  C17_22 
ROOT
HETATM    1  C1  UNL     1      23.976   5.825  49.275  1.00  0.00     0.344 C 
HETATM    2  C2  UNL     1      25.244   5.564  50.055  1.00  0.00     0.086 C 
HETATM    3  C3  UNL     1      26.037   4.444  49.512  1.00  0.00    -0.023 C 
HETATM    4  C4  UNL     1      26.557   3.243  49.667  1.00  0.00    -0.001 C 
HETATM    5  C5  UNL     1      26.481   2.338  50.797  1.00  0.00     0.034 C 
HETATM    6  C6  UNL     1      26.105   1.962  51.979  1.00  0.00     0.076 C 
HETATM    7  O1  UNL     1      25.379   3.135  52.144  1.00  0.00    -0.243 OA
HETATM    8  N3  UNL     1      23.994   3.134  51.828  1.00  0.00    -0.270 N 
HETATM    9  C14 UNL     1      23.097   3.673  52.789  1.00  0.00     0.148 C 
HETATM   10  C15 UNL     1      22.697   4.899  52.611  1.00  0.00     0.106 C 
HETATM   11  N4  UNL     1      22.627   5.342  51.427  1.00  0.00    -0.225 NA
HETATM   12  C16 UNL     1      22.319   4.439  50.391  1.00  0.00     0.159 C 
HETATM   13  N6  UNL     1      23.041   4.754  49.353  1.00  0.00    -0.234 NA
HETATM   14  H17 UNL     1      24.011   2.689  50.889  1.00  0.00     0.194 HD
ENDROOT
BRANCH   6  15
HETATM   15  C7  UNL     1      25.964   1.139  53.168  1.00  0.00     0.072 C 
BRANCH  15  16
HETATM   16  C8  UNL     1      25.540  -0.284  52.870  1.00  0.00     0.046 C 
BRANCH  16  17
HETATM   17  C9  UNL     1      24.217  -0.459  53.519  1.00  0.00    -0.040 A 
HETATM   18  C10 UNL     1      23.022  -0.041  52.963  1.00  0.00     0.010 A 
HETATM   19  C11 UNL     1      21.826  -0.218  53.587  1.00  0.00     0.020 A 
HETATM   20  C12 UNL     1      21.784  -0.845  54.836  1.00  0.00     0.116 A 
HETATM   21  N2  UNL     1      22.934  -1.266  55.410  1.00  0.00    -0.273 NA
HETATM   22  C13 UNL     1      24.107  -1.070  54.755  1.00  0.00     0.123 A 
ENDBRANCH  16  17
ENDBRANCH  15  16
ENDBRANCH   6  15
BRANCH   1  23
HETATM   23  N1  UNL     1      24.355   6.108  47.907  1.00  0.00     0.103 N 
HETATM   24  H1  UNL     1      25.072   5.393  47.618  1.00  0.00     0.315 HD
HETATM   25  H2  UNL     1      24.709   7.078  47.779  1.00  0.00     0.315 HD
ENDBRANCH   1  23
BRANCH  12  26
HETATM   26  C17 UNL     1      21.401   3.307  50.167  1.00  0.00     0.029 A 
HETATM   27  C18 UNL     1      21.903   2.250  49.441  1.00  0.00     0.018 A 
HETATM   28  C19 UNL     1      21.003   1.199  49.224  1.00  0.00     0.020 A 
HETATM   29  C20 UNL     1      19.711   1.166  49.672  1.00  0.00     0.116 A 
HETATM   30  N5  UNL     1      19.274   2.225  50.375  1.00  0.00    -0.272 NA
HETATM   31  C21 UNL     1      20.102   3.259  50.610  1.00  0.00     0.131 A 
ENDBRANCH  12  26
TORSDOF 5
ENDMDL
MODEL 5
REMARK VINA RESULT:      -8.0      1.691      2.103
REMARK  5 active torsions:
REMARK  status: ('A' for Active; 'I' for Inactive)
REMARK    1  A    between atoms: N1_1  and  C1_2 
REMARK    2  A    between atoms: C6_7  and  C7_8 
REMARK    3  A    between atoms: C7_8  and  C8_9 
REMARK    4  A    between atoms: C8_9  and  C9_10 
REMARK    5  A    between atoms: C16_21  and  C17_22 
ROOT
HETATM    1  C1  UNL     1      23.706   7.157  49.839  1.00  0.00     0.344 C 
HETATM    2  C2  UNL     1      25.071   6.778  50.368  1.00  0.00     0.086 C 
HETATM    3  C3  UNL     1      25.929   6.142  49.350  1.00  0.00    -0.023 C 
HETATM    4  C4  UNL     1      26.601   5.089  48.930  1.00  0.00    -0.001 C 
HETATM    5  C5  UNL     1      26.750   3.782  49.539  1.00  0.00     0.034 C 
HETATM    6  C6  UNL     1      26.547   2.875  50.443  1.00  0.00     0.076 C 
HETATM    7  O1  UNL     1      25.708   3.733  51.144  1.00  0.00    -0.243 OA
HETATM    8  N3  UNL     1      24.308   3.659  50.918  1.00  0.00    -0.270 N 
HETATM    9  C14 UNL     1      23.459   3.581  52.055  1.00  0.00     0.148 C 
HETATM   10  C15 UNL     1      22.901   4.686  52.461  1.00  0.00     0.106 C 
HETATM   11  N4  UNL     1      22.656   5.585  51.602  1.00  0.00    -0.225 NA
HETATM   12  C16 UNL     1      22.350   5.189  50.286  1.00  0.00     0.159 C 
HETATM   13  N6  UNL     1      22.917   6.031  49.469  1.00  0.00    -0.234 NA
HETATM   14  H17 UNL     1      24.279   3.677  49.880  1.00  0.00     0.194 HD
ENDROOT
BRANCH   6  15
HETATM   15  C7  UNL     1      26.629   1.606  51.144  1.00  0.00     0.072 C 
BRANCH  15  16
HETATM   16  C8  UNL     1      27.134   1.733  52.565  1.00  0.00     0.046 C 
BRANCH  16  17
HETATM   17  C9  UNL     1      26.297   0.816  53.378  1.00  0.00    -0.040 A 
HETATM   18  C10 UNL     1      25.034   0.390  53.008  1.00  0.00     0.010 A 
HETATM   19  C11 UNL     1      24.294  -0.452  53.779  1.00  0.00     0.020 A 
HETATM   20  C12 UNL     1      24.812  -0.914  54.993  1.00  0.00     0.116 A 
HETATM   21  N2  UNL     1      26.044  -0.517  55.387  1.00  0.00    -0.273 NA
HETATM   22  C13 UNL     1      26.751   0.324  54.589  1.00  0.00     0.123 A 
ENDBRANCH  16  17
ENDBRANCH  15  16
ENDBRANCH   6  15
BRANCH   1  23
HETATM   23  N1  UNL     1      23.903   8.062  48.728  1.00  0.00     0.103 N 
HETATM   24  H1  UNL     1      24.701   8.704  48.974  1.00  0.00     0.315 HD
HETATM   25  H2  UNL     1      23.044   8.597  48.486  1.00  0.00     0.315 HD
ENDBRANCH   1  23
BRANCH  12  26
HETATM   26  C17 UNL     1      21.554   4.143  49.618  1.00  0.00     0.029 A 
HETATM   27  C18 UNL     1      22.084   3.620  48.460  1.00  0.00     0.018 A 
HETATM   28  C19 UNL     1      21.296   2.646  47.834  1.00  0.00     0.020 A 
HETATM   29  C20 UNL     1      20.084   2.204  48.289  1.00  0.00     0.116 A 
HETATM   30  N5  UNL     1      19.615   2.750  49.425  1.00  0.00    -0.272 NA
HETATM   31  C21 UNL     1      20.335   3.690  50.062  1.00  0.00     0.131 A 
ENDBRANCH  12  26
TORSDOF 5
ENDMDL
MODEL 6
REMARK VINA RESULT:      -7.9      2.584      4.871
REMARK  5 active torsions:
REMARK  status: ('A' for Active; 'I' for Inactive)
REMARK    1  A    between atoms: N1_1  and  C1_2 
REMARK    2  A    between atoms: C6_7  and  C7_8 
REMARK    3  A    between atoms: C7_8  and  C8_9 
REMARK    4  A    between atoms: C8_9  and  C9_10 
REMARK    5  A    between atoms: C16_21  and  C17_22 
ROOT
HETATM    1  C1  UNL     1      18.520   1.433  50.717  1.00  0.00     0.344 C 
HETATM    2  C2  UNL     1      19.289   0.270  51.302  1.00  0.00     0.086 C 
HETATM    3  C3  UNL     1      19.595   0.441  52.735  1.00  0.00    -0.023 C 
HETATM    4  C4  UNL     1      20.487   0.573  53.696  1.00  0.00    -0.001 C 
HETATM    5  C5  UNL     1      21.935   0.612  53.619  1.00  0.00     0.034 C 
HETATM    6  C6  UNL     1      23.081   0.598  53.014  1.00  0.00     0.076 C 
HETATM    7  O1  UNL     1      22.451   0.506  51.779  1.00  0.00    -0.243 OA
HETATM    8  N3  UNL     1      22.206   1.697  51.043  1.00  0.00    -0.270 N 
HETATM    9  C14 UNL     1      22.594   1.720  49.677  1.00  0.00     0.148 C 
HETATM   10  C15 UNL     1      21.668   1.492  48.790  1.00  0.00     0.106 C 
HETATM   11  N4  UNL     1      20.476   1.816  49.070  1.00  0.00    -0.225 NA
HETATM   12  C16 UNL     1      20.262   2.926  49.910  1.00  0.00     0.159 C 
HETATM   13  N6  UNL     1      19.267   2.646  50.703  1.00  0.00    -0.234 NA
HETATM   14  H17 UNL     1      21.773   2.291  51.778  1.00  0.00     0.194 HD
ENDROOT
BRANCH   6  15
HETATM   15  C7  UNL     1      24.520   0.622  52.818  1.00  0.00     0.072 C 
BRANCH  15  16
HETATM   16  C8  UNL     1      25.184  -0.717  53.061  1.00  0.00     0.046 C 
BRANCH  16  17
HETATM   17  C9  UNL     1      26.567  -0.410  53.504  1.00  0.00    -0.040 A 
HETATM   18  C10 UNL     1      27.693  -1.057  53.028  1.00  0.00     0.010 A 
HETATM   19  C11 UNL     1      28.946  -0.750  53.457  1.00  0.00     0.020 A 
HETATM   20  C12 UNL     1      29.123   0.254  54.414  1.00  0.00     0.116 A 
HETATM   21  N2  UNL     1      28.044   0.908  54.901  1.00  0.00    -0.273 NA
HETATM   22  C13 UNL     1      26.811   0.572  54.448  1.00  0.00     0.123 A 
ENDBRANCH  16  17
ENDBRANCH  15  16
ENDBRANCH   6  15
BRANCH   1  23
HETATM   23  N1  UNL     1      17.292   1.568  51.470  1.00  0.00     0.103 N 
HETATM   24  H1  UNL     1      17.543   1.907  52.435  1.00  0.00     0.315 HD
HETATM   25  H2  UNL     1      16.742   0.685  51.506  1.00  0.00     0.315 HD
ENDBRANCH   1  23
BRANCH  12  26
HETATM   26  C17 UNL     1      20.817   4.280  50.092  1.00  0.00     0.029 A 
HETATM   27  C18 UNL     1      20.958   5.038  48.952  1.00  0.00     0.018 A 
HETATM   28  C19 UNL     1      21.509   6.310  49.150  1.00  0.00     0.020 A 
HETATM   29  C20 UNL     1      21.897   6.818  50.360  1.00  0.00     0.116 A 
HETATM   30  N5  UNL     1      21.737   6.033  51.439  1.00  0.00    -0.272 NA
HETATM   31  C21 UNL     1      21.212   4.804  51.299  1.00  0.00     0.131 A 
ENDBRANCH  12  26
TORSDOF 5
ENDMDL
MODEL 7
REMARK VINA RESULT:      -7.8      2.851      6.445
REMARK  5 active torsions:
REMARK  status: ('A' for Active; 'I' for Inactive)
REMARK    1  A    between atoms: N1_1  and  C1_2 
REMARK    2  A    between atoms: C6_7  and  C7_8 
REMARK    3  A    between atoms: C7_8  and  C8_9 
REMARK    4  A    between atoms: C8_9  and  C9_10 
REMARK    5  A    between atoms: C16_21  and  C17_22 
ROOT
HETATM    1  C1  UNL     1      25.527   2.856  52.085  1.00  0.00     0.344 C 
HETATM    2  C2  UNL     1      24.851   2.146  53.235  1.00  0.00     0.086 C 
HETATM    3  C3  UNL     1      24.621   0.712  52.976  1.00  0.00    -0.023 C 
HETATM    4  C4  UNL     1      23.783  -0.292  52.815  1.00  0.00    -0.001 C 
HETATM    5  C5  UNL     1      22.333  -0.302  52.844  1.00  0.00     0.034 C 
HETATM    6  C6  UNL     1      21.155   0.228  52.952  1.00  0.00     0.076 C 
HETATM    7  O1  UNL     1      21.715   1.491  53.104  1.00  0.00    -0.243 OA
HETATM    8  N3  UNL     1      21.858   2.320  51.960  1.00  0.00    -0.270 N 
HETATM    9  C14 UNL     1      21.390   3.659  52.052  1.00  0.00     0.148 C 
HETATM   10  C15 UNL     1      22.272   4.584  52.301  1.00  0.00     0.106 C 
HETATM   11  N4  UNL     1      23.462   4.401  51.906  1.00  0.00    -0.225 NA
HETATM   12  C16 UNL     1      23.671   3.654  50.731  1.00  0.00     0.159 C 
HETATM   13  N6  UNL     1      24.724   2.907  50.910  1.00  0.00    -0.234 NA
HETATM   14  H17 UNL     1      22.305   1.657  51.296  1.00  0.00     0.194 HD
ENDROOT
BRANCH   6  15
HETATM   15  C7  UNL     1      19.708   0.336  53.005  1.00  0.00     0.072 C 
BRANCH  15  16
HETATM   16  C8  UNL     1      19.024  -0.090  51.722  1.00  0.00     0.046 C 
BRANCH  16  17
HETATM   17  C9  UNL     1      18.773   1.159  50.961  1.00  0.00    -0.040 A 
HETATM   18  C10 UNL     1      19.275   1.407  49.696  1.00  0.00     0.010 A 
HETATM   19  C11 UNL     1      19.024   2.565  49.027  1.00  0.00     0.020 A 
HETATM   20  C12 UNL     1      18.231   3.551  49.623  1.00  0.00     0.116 A 
HETATM   21  N2  UNL     1      17.724   3.342  50.859  1.00  0.00    -0.273 NA
HETATM   22  C13 UNL     1      17.998   2.174  51.493  1.00  0.00     0.123 A 
ENDBRANCH  16  17
ENDBRANCH  15  16
ENDBRANCH   6  15
BRANCH   1  23
HETATM   23  N1  UNL     1      26.790   2.192  51.842  1.00  0.00     0.103 N 
HETATM   24  H1  UNL     1      27.459   2.907  51.455  1.00  0.00     0.315 HD
HETATM   25  H2  UNL     1      26.699   1.371  51.208  1.00  0.00     0.315 HD
ENDBRANCH   1  23
BRANCH  12  26
HETATM   26  C17 UNL     1      23.064   3.532  49.393  1.00  0.00     0.029 A 
HETATM   27  C18 UNL     1      22.959   2.256  48.886  1.00  0.00     0.018 A 
HETATM   28  C19 UNL     1      22.400   2.172  47.604  1.00  0.00     0.020 A 
HETATM   29  C20 UNL     1      21.972   3.238  46.862  1.00  0.00     0.116 A 
HETATM   30  N5  UNL     1      22.100   4.460  47.407  1.00  0.00    -0.272 NA
HETATM   31  C21 UNL     1      22.630   4.592  48.635  1.00  0.00     0.131 A 
ENDBRANCH  12  26
TORSDOF 5
ENDMDL
MODEL 8
REMARK VINA RESULT:      -7.6      1.921      4.255
REMARK  5 active torsions:
REMARK  status: ('A' for Active; 'I' for Inactive)
REMARK    1  A    between atoms: N1_1  and  C1_2 
REMARK    2  A    between atoms: C6_7  and  C7_8 
REMARK    3  A    between atoms: C7_8  and  C8_9 
REMARK    4  A    between atoms: C8_9  and  C9_10 
REMARK    5  A    between atoms: C16_21  and  C17_22 
ROOT
HETATM    1  C1  UNL     1      20.039   1.628  49.291  1.00  0.00     0.344 C 
HETATM    2  C2  UNL     1      20.971   0.657  49.979  1.00  0.00     0.086 C 
HETATM    3  C3  UNL     1      20.897   0.730  51.451  1.00  0.00    -0.023 C 
HETATM    4  C4  UNL     1      21.480   0.982  52.605  1.00  0.00    -0.001 C 
HETATM    5  C5  UNL     1      22.833   1.425  52.883  1.00  0.00     0.034 C 
HETATM    6  C6  UNL     1      24.035   1.799  52.573  1.00  0.00     0.076 C 
HETATM    7  O1  UNL     1      23.742   1.690  51.219  1.00  0.00    -0.243 OA
HETATM    8  N3  UNL     1      23.323   2.848  50.513  1.00  0.00    -0.270 N 
HETATM    9  C14 UNL     1      23.972   3.143  49.283  1.00  0.00     0.148 C 
HETATM   10  C15 UNL     1      23.368   2.781  48.188  1.00  0.00     0.106 C 
HETATM   11  N4  UNL     1      22.103   2.730  48.188  1.00  0.00    -0.225 NA
HETATM   12  C16 UNL     1      21.396   3.627  49.011  1.00  0.00     0.159 C 
HETATM   13  N6  UNL     1      20.380   2.991  49.523  1.00  0.00    -0.234 NA
HETATM   14  H17 UNL     1      22.586   3.207  51.151  1.00  0.00     0.194 HD
ENDROOT
BRANCH   6  15
HETATM   15  C7  UNL     1      25.410   2.239  52.733  1.00  0.00     0.072 C 
BRANCH  15  16
HETATM   16  C8  UNL     1      26.373   1.572  51.773  1.00  0.00     0.046 C 
BRANCH  16  17
HETATM   17  C9  UNL     1      27.379   0.884  52.619  1.00  0.00    -0.040 A 
HETATM   18  C10 UNL     1      28.378   1.537  53.318  1.00  0.00     0.010 A 
HETATM   19  C11 UNL     1      29.284   0.874  54.085  1.00  0.00     0.020 A 
HETATM   20  C12 UNL     1      29.219  -0.520  54.184  1.00  0.00     0.116 A 
HETATM   21  N2  UNL     1      28.255  -1.191  53.513  1.00  0.00    -0.273 NA
HETATM   22  C13 UNL     1      27.370  -0.492  52.759  1.00  0.00     0.123 A 
ENDBRANCH  16  17
ENDBRANCH  15  16
ENDBRANCH   6  15
BRANCH   1  23
HETATM   23  N1  UNL     1      18.693   1.329  49.730  1.00  0.00     0.103 N 
HETATM   24  H1  UNL     1      18.091   1.230  48.872  1.00  0.00     0.315 HD
HETATM   25  H2  UNL     1      18.314   2.046  50.382  1.00  0.00     0.315 HD
ENDBRANCH   1  23
BRANCH  12  26
HETATM   26  C17 UNL     1      21.474   5.049  49.395  1.00  0.00     0.029 A 
HETATM   27  C18 UNL     1      21.282   5.331  50.729  1.00  0.00     0.018 A 
HETATM   28  C19 UNL     1      21.338   6.690  51.061  1.00  0.00     0.020 A 
HETATM   29  C20 UNL     1      21.563   7.707  50.175  1.00  0.00     0.116 A 
HETATM   30  N5  UNL     1      21.744   7.373  48.885  1.00  0.00    -0.272 NA
HETATM   31  C21 UNL     1      21.698   6.081  48.517  1.00  0.00     0.131 A 
ENDBRANCH  12  26
TORSDOF 5
ENDMDL
MODEL 9
REMARK VINA RESULT:      -7.2      2.902      3.905
REMARK  5 active torsions:
REMARK  status: ('A' for Active; 'I' for Inactive)
REMARK    1  A    between atoms: N1_1  and  C1_2 
REMARK    2  A    between atoms: C6_7  and  C7_8 
REMARK    3  A    between atoms: C7_8  and  C8_9 
REMARK    4  A    between atoms: C8_9  and  C9_10 
REMARK    5  A    between atoms: C16_21  and  C17_22 
ROOT
HETATM    1  C1  UNL     1      26.113   8.295  48.189  1.00  0.00     0.344 C 
HETATM    2  C2  UNL     1      26.750   7.402  49.228  1.00  0.00     0.086 C 
HETATM    3  C3  UNL     1      27.214   6.114  48.678  1.00  0.00    -0.023 C 
HETATM    4  C4  UNL     1      27.134   4.799  48.648  1.00  0.00    -0.001 C 
HETATM    5  C5  UNL     1      26.269   3.905  49.394  1.00  0.00     0.034 C 
HETATM    6  C6  UNL     1      25.331   3.609  50.238  1.00  0.00     0.076 C 
HETATM    7  O1  UNL     1      25.097   4.957  50.482  1.00  0.00    -0.243 OA
HETATM    8  N3  UNL     1      24.074   5.619  49.753  1.00  0.00    -0.270 N 
HETATM    9  C14 UNL     1      23.135   6.393  50.486  1.00  0.00     0.148 C 
HETATM   10  C15 UNL     1      23.335   7.679  50.540  1.00  0.00     0.106 C 
HETATM   11  N4  UNL     1      23.927   8.236  49.569  1.00  0.00    -0.225 NA
HETATM   12  C16 UNL     1      23.758   7.695  48.280  1.00  0.00     0.159 C 
HETATM   13  N6  UNL     1      24.902   7.763  47.660  1.00  0.00    -0.234 NA
HETATM   14  H17 UNL     1      24.307   5.324  48.784  1.00  0.00     0.194 HD
ENDROOT
BRANCH   6  15
HETATM   15  C7  UNL     1      24.419   2.812  51.039  1.00  0.00     0.072 C 
BRANCH  15  16
HETATM   16  C8  UNL     1      24.419   3.185  52.506  1.00  0.00     0.046 C 
BRANCH  16  17
HETATM   17  C9  UNL     1      24.992   2.019  53.223  1.00  0.00    -0.040 A 
HETATM   18  C10 UNL     1      24.442   0.750  53.199  1.00  0.00     0.010 A 
HETATM   19  C11 UNL     1      24.995  -0.297  53.869  1.00  0.00     0.020 A 
HETATM   20  C12 UNL     1      26.163  -0.103  54.613  1.00  0.00     0.116 A 
HETATM   21  N2  UNL     1      26.728   1.125  54.658  1.00  0.00    -0.273 NA
HETATM   22  C13 UNL     1      26.145   2.144  53.977  1.00  0.00     0.123 A 
ENDBRANCH  16  17
ENDBRANCH  15  16
ENDBRANCH   6  15
BRANCH   1  23
HETATM   23  N1  UNL     1      27.094   8.529  47.151  1.00  0.00     0.103 N 
HETATM   24  H1  UNL     1      27.154   9.569  46.995  1.00  0.00     0.315 HD
HETATM   25  H2  UNL     1      26.875   8.022  46.268  1.00  0.00     0.315 HD
ENDBRANCH   1  23
BRANCH  12  26
HETATM   26  C17 UNL     1      22.663   7.134  47.467  1.00  0.00     0.029 A 
HETATM   27  C18 UNL     1      21.455   7.791  47.537  1.00  0.00     0.018 A 
HETATM   28  C19 UNL     1      20.427   7.223  46.773  1.00  0.00     0.020 A 
HETATM   29  C20 UNL     1      20.551   6.103  45.998  1.00  0.00     0.116 A 
HETATM   30  N5  UNL     1      21.753   5.502  45.968  1.00  0.00    -0.272 NA
HETATM   31  C21 UNL     1      22.771   6.010  46.684  1.00  0.00     0.131 A 
ENDBRANCH  12  26
TORSDOF 5
ENDMDL
