MODEL 1
REMARK VINA RESULT:      -7.7      0.000      0.000
REMARK  4 active torsions:
REMARK  status: ('A' for Active; 'I' for Inactive)
REMARK    1  A    between atoms: C4_5  and  N1_6 
REMARK    2  A    between atoms: N1_6  and  C5_7 
REMARK    3  A    between atoms: C11_14  and  C12_15 
REMARK    4  A    between atoms: C12_15  and  N2_16 
ROOT
HETATM    1  C5  UNL     1      24.384   1.681  51.870  1.00  0.00     0.015 C 
HETATM    2  C6  UNL     1      23.599   0.767  52.421  1.00  0.00     0.027 C 
HETATM    3  C7  UNL     1      22.271   0.871  53.014  1.00  0.00     0.026 C 
HETATM    4  C8  UNL     1      21.315   1.799  52.991  1.00  0.00     0.134 C 
HETATM    5  O1  UNL     1      21.284   3.033  52.355  1.00  0.00    -0.363 OA
HETATM    6  C9  UNL     1      22.154   4.126  52.119  1.00  0.00     0.175 C 
HETATM    7  C10 UNL     1      23.560   3.850  52.545  1.00  0.00     0.039 C 
HETATM    8  C11 UNL     1      24.416   3.143  51.555  1.00  0.00     0.066 C 
ENDROOT
BRANCH   1   9
HETATM    9  N1  UNL     1      25.590   1.074  51.435  1.00  0.00    -0.359 N 
HETATM   10  H3  UNL     1      25.530   1.077  50.415  1.00  0.00     0.166 HD
BRANCH   9  11
HETATM   11  C4  UNL     1      26.654   0.567  52.223  1.00  0.00     0.034 A 
HETATM   12  C3  UNL     1      26.816  -0.803  52.293  1.00  0.00     0.032 A 
HETATM   13  C2  UNL     1      27.888  -1.208  53.093  1.00  0.00     0.046 A 
HETATM   14  C1  UNL     1      28.707  -0.302  53.751  1.00  0.00     0.138 A 
HETATM   15  F1  UNL     1      29.738  -0.700  54.519  1.00  0.00    -0.204 F 
HETATM   16  C18 UNL     1      28.480   1.048  53.631  1.00  0.00     0.074 A 
HETATM   17  C17 UNL     1      27.424   1.508  52.846  1.00  0.00     0.056 A 
HETATM   18 CL1  UNL     1      29.503   2.188  54.453  1.00  0.00    -0.081 Cl
ENDBRANCH   9  11
ENDBRANCH   1   9
BRANCH   8  19
HETATM   19  C12 UNL     1      24.012   3.276  50.139  1.00  0.00     0.283 C 
BRANCH  19  20
HETATM   20  N2  UNL     1      24.783   4.171  49.324  1.00  0.00     0.093 N 
HETATM   21  C13 UNL     1      26.172   3.789  49.499  1.00  0.00     0.298 C 
HETATM   22  C14 UNL     1      27.141   4.755  48.932  1.00  0.00     0.198 C 
HETATM   23  O2  UNL     1      26.812   6.082  49.017  1.00  0.00    -0.388 OA
HETATM   24  C15 UNL     1      25.480   6.328  48.632  1.00  0.00     0.198 C 
HETATM   25  C16 UNL     1      24.655   5.546  49.664  1.00  0.00     0.298 C 
ENDBRANCH  19  20
ENDBRANCH   8  19
TORSDOF 4
ENDMDL
MODEL 2
REMARK VINA RESULT:      -7.6      3.280      5.506
REMARK  4 active torsions:
REMARK  status: ('A' for Active; 'I' for Inactive)
REMARK    1  A    between atoms: C4_5  and  N1_6 
REMARK    2  A    between atoms: N1_6  and  C5_7 
REMARK    3  A    between atoms: C11_14  and  C12_15 
REMARK    4  A    between atoms: C12_15  and  N2_16 
ROOT
HETATM    1  C5  UNL     1      22.768   1.015  51.975  1.00  0.00     0.015 C 
HETATM    2  C6  UNL     1      21.498   1.387  52.055  1.00  0.00     0.027 C 
HETATM    3  C7  UNL     1      20.444   1.010  52.989  1.00  0.00     0.026 C 
HETATM    4  C8  UNL     1      20.428   0.403  54.174  1.00  0.00     0.134 C 
HETATM    5  O1  UNL     1      21.477  -0.092  54.937  1.00  0.00    -0.363 OA
HETATM    6  C9  UNL     1      22.682  -0.812  54.743  1.00  0.00     0.175 C 
HETATM    7  C10 UNL     1      23.025  -0.989  53.299  1.00  0.00     0.039 C 
HETATM    8  C11 UNL     1      23.762   0.133  52.660  1.00  0.00     0.066 C 
ENDROOT
BRANCH   1   9
HETATM    9  N1  UNL     1      23.387   1.670  50.879  1.00  0.00    -0.359 N 
HETATM   10  H3  UNL     1      23.389   0.977  50.128  1.00  0.00     0.166 HD
BRANCH   9  11
HETATM   11  C4  UNL     1      23.898   2.992  50.818  1.00  0.00     0.034 A 
HETATM   12  C3  UNL     1      23.247   3.975  51.537  1.00  0.00     0.032 A 
HETATM   13  C2  UNL     1      23.821   5.243  51.414  1.00  0.00     0.046 A 
HETATM   14  C1  UNL     1      24.947   5.476  50.639  1.00  0.00     0.138 A 
HETATM   15  F1  UNL     1      25.495   6.700  50.526  1.00  0.00    -0.204 F 
HETATM   16  C18 UNL     1      25.540   4.443  49.953  1.00  0.00     0.074 A 
HETATM   17  C17 UNL     1      25.008   3.157  50.038  1.00  0.00     0.056 A 
HETATM   18 CL1  UNL     1      26.951   4.728  48.978  1.00  0.00    -0.081 Cl
ENDBRANCH   9  11
ENDBRANCH   1   9
BRANCH   8  19
HETATM   19  C12 UNL     1      24.535   1.003  53.572  1.00  0.00     0.283 C 
BRANCH  19  20
HETATM   20  N2  UNL     1      25.965   0.956  53.460  1.00  0.00     0.093 N 
HETATM   21  C13 UNL     1      26.439   0.188  54.596  1.00  0.00     0.298 C 
HETATM   22  C14 UNL     1      27.906   0.240  54.792  1.00  0.00     0.198 C 
HETATM   23  O2  UNL     1      28.527   1.426  54.500  1.00  0.00    -0.388 OA
HETATM   24  C15 UNL     1      28.104   1.961  53.268  1.00  0.00     0.198 C 
HETATM   25  C16 UNL     1      26.606   2.225  53.484  1.00  0.00     0.298 C 
ENDBRANCH  19  20
ENDBRANCH   8  19
TORSDOF 4
ENDMDL
MODEL 3
REMARK VINA RESULT:      -7.5      2.400      3.111
REMARK  4 active torsions:
REMARK  status: ('A' for Active; 'I' for Inactive)
REMARK    1  A    between atoms: C4_5  and  N1_6 
REMARK    2  A    between atoms: N1_6  and  C5_7 
REMARK    3  A    between atoms: C11_14  and  C12_15 
REMARK    4  A    between atoms: C12_15  and  N2_16 
ROOT
HETATM    1  C5  UNL     1      23.638   0.533  52.658  1.00  0.00     0.015 C 
HETATM    2  C6  UNL     1      23.656  -0.455  53.542  1.00  0.00     0.027 C 
HETATM    3  C7  UNL     1      22.627  -0.956  54.445  1.00  0.00     0.026 C 
HETATM    4  C8  UNL     1      21.308  -0.793  54.529  1.00  0.00     0.134 C 
HETATM    5  O1  UNL     1      20.448  -0.049  53.732  1.00  0.00    -0.363 OA
HETATM    6  C9  UNL     1      20.421   1.218  53.096  1.00  0.00     0.175 C 
HETATM    7  C10 UNL     1      21.733   1.930  53.167  1.00  0.00     0.039 C 
HETATM    8  C11 UNL     1      22.723   1.582  52.113  1.00  0.00     0.066 C 
ENDROOT
BRANCH   1   9
HETATM    9  N1  UNL     1      24.902   0.624  52.020  1.00  0.00    -0.359 N 
HETATM   10  H3  UNL     1      24.696   0.545  51.022  1.00  0.00     0.166 HD
BRANCH   9  11
HETATM   11  C4  UNL     1      26.178   0.788  52.615  1.00  0.00     0.034 A 
HETATM   12  C3  UNL     1      26.517   2.039  53.094  1.00  0.00     0.032 A 
HETATM   13  C2  UNL     1      27.792   2.104  53.661  1.00  0.00     0.046 A 
HETATM   14  C1  UNL     1      28.631   1.001  53.731  1.00  0.00     0.138 A 
HETATM   15  F1  UNL     1      29.858   1.071  54.279  1.00  0.00    -0.204 F 
HETATM   16  C18 UNL     1      28.220  -0.212  53.232  1.00  0.00     0.074 A 
HETATM   17  C17 UNL     1      26.957  -0.334  52.654  1.00  0.00     0.056 A 
HETATM   18 CL1  UNL     1      29.266  -1.598  53.315  1.00  0.00    -0.081 Cl
ENDBRANCH   9  11
ENDBRANCH   1   9
BRANCH   8  19
HETATM   19  C12 UNL     1      22.165   1.040  50.856  1.00  0.00     0.283 C 
BRANCH  19  20
HETATM   20  N2  UNL     1      22.588   1.663  49.634  1.00  0.00     0.093 N 
HETATM   21  C13 UNL     1      22.970   3.020  49.978  1.00  0.00     0.298 C 
HETATM   22  C14 UNL     1      23.198   3.899  48.809  1.00  0.00     0.198 C 
HETATM   23  O2  UNL     1      22.389   3.705  47.721  1.00  0.00    -0.388 OA
HETATM   24  C15 UNL     1      22.264   2.343  47.386  1.00  0.00     0.198 C 
HETATM   25  C16 UNL     1      21.591   1.726  48.621  1.00  0.00     0.298 C 
ENDBRANCH  19  20
ENDBRANCH   8  19
TORSDOF 4
ENDMDL
MODEL 4
REMARK VINA RESULT:      -7.5      2.200      5.037
REMARK  4 active torsions:
REMARK  status: ('A' for Active; 'I' for Inactive)
REMARK    1  A    between atoms: C4_5  and  N1_6 
REMARK    2  A    between atoms: N1_6  and  C5_7 
REMARK    3  A    between atoms: C11_14  and  C12_15 
REMARK    4  A    between atoms: C12_15  and  N2_16 
ROOT
HETATM    1  C5  UNL     1      23.886   2.310  51.842  1.00  0.00     0.015 C 
HETATM    2  C6  UNL     1      24.481   3.356  51.286  1.00  0.00     0.027 C 
HETATM    3  C7  UNL     1      24.146   4.134  50.100  1.00  0.00     0.026 C 
HETATM    4  C8  UNL     1      23.059   4.243  49.338  1.00  0.00     0.134 C 
HETATM    5  O1  UNL     1      21.829   3.608  49.444  1.00  0.00    -0.363 OA
HETATM    6  C9  UNL     1      21.323   2.316  49.734  1.00  0.00     0.175 C 
HETATM    7  C10 UNL     1      22.383   1.370  50.200  1.00  0.00     0.039 C 
HETATM    8  C11 UNL     1      22.705   1.413  51.651  1.00  0.00     0.066 C 
ENDROOT
BRANCH   1   9
HETATM    9  N1  UNL     1      24.606   1.911  52.998  1.00  0.00    -0.359 N 
HETATM   10  H3  UNL     1      24.037   2.234  53.783  1.00  0.00     0.166 HD
BRANCH   9  11
HETATM   11  C4  UNL     1      25.841   1.218  53.069  1.00  0.00     0.034 A 
HETATM   12  C3  UNL     1      25.900  -0.062  52.553  1.00  0.00     0.032 A 
HETATM   13  C2  UNL     1      27.155  -0.664  52.670  1.00  0.00     0.046 A 
HETATM   14  C1  UNL     1      28.236  -0.020  53.253  1.00  0.00     0.138 A 
HETATM   15  F1  UNL     1      29.443  -0.606  53.362  1.00  0.00    -0.204 F 
HETATM   16  C18 UNL     1      28.098   1.256  53.744  1.00  0.00     0.074 A 
HETATM   17  C17 UNL     1      26.866   1.905  53.655  1.00  0.00     0.056 A 
HETATM   18 CL1  UNL     1      29.448   2.070  54.477  1.00  0.00    -0.081 Cl
ENDBRANCH   9  11
ENDBRANCH   1   9
BRANCH   8  19
HETATM   19  C12 UNL     1      21.639   1.930  52.536  1.00  0.00     0.283 C 
BRANCH  19  20
HETATM   20  N2  UNL     1      20.902   0.964  53.299  1.00  0.00     0.093 N 
HETATM   21  C13 UNL     1      21.886   0.129  53.961  1.00  0.00     0.298 C 
HETATM   22  C14 UNL     1      21.320  -1.083  54.599  1.00  0.00     0.198 C 
HETATM   23  O2  UNL     1      20.276  -1.691  53.954  1.00  0.00    -0.388 OA
HETATM   24  C15 UNL     1      19.299  -0.768  53.533  1.00  0.00     0.198 C 
HETATM   25  C16 UNL     1      20.049   0.122  52.532  1.00  0.00     0.298 C 
ENDBRANCH  19  20
ENDBRANCH   8  19
TORSDOF 4
ENDMDL
MODEL 5
REMARK VINA RESULT:      -7.4      3.424      5.659
REMARK  4 active torsions:
REMARK  status: ('A' for Active; 'I' for Inactive)
REMARK    1  A    between atoms: C4_5  and  N1_6 
REMARK    2  A    between atoms: N1_6  and  C5_7 
REMARK    3  A    between atoms: C11_14  and  C12_15 
REMARK    4  A    between atoms: C12_15  and  N2_16 
ROOT
HETATM    1  C5  UNL     1      23.203   3.213  51.951  1.00  0.00     0.015 C 
HETATM    2  C6  UNL     1      22.096   3.901  52.194  1.00  0.00     0.027 C 
HETATM    3  C7  UNL     1      20.704   3.479  52.285  1.00  0.00     0.026 C 
HETATM    4  C8  UNL     1      20.097   2.300  52.407  1.00  0.00     0.134 C 
HETATM    5  O1  UNL     1      20.638   1.023  52.492  1.00  0.00    -0.363 OA
HETATM    6  C9  UNL     1      21.675   0.269  51.889  1.00  0.00     0.175 C 
HETATM    7  C10 UNL     1      22.548   1.092  50.998  1.00  0.00     0.039 C 
HETATM    8  C11 UNL     1      23.661   1.819  51.664  1.00  0.00     0.066 C 
ENDROOT
BRANCH   1   9
HETATM    9  N1  UNL     1      24.321   4.087  51.970  1.00  0.00    -0.359 N 
HETATM   10  H3  UNL     1      24.387   4.405  52.939  1.00  0.00     0.166 HD
BRANCH   9  11
HETATM   11  C4  UNL     1      25.169   4.454  50.895  1.00  0.00     0.034 A 
HETATM   12  C3  UNL     1      26.082   3.523  50.439  1.00  0.00     0.032 A 
HETATM   13  C2  UNL     1      26.874   3.974  49.381  1.00  0.00     0.046 A 
HETATM   14  C1  UNL     1      26.741   5.246  48.844  1.00  0.00     0.138 A 
HETATM   15  F1  UNL     1      27.508   5.674  47.824  1.00  0.00    -0.204 F 
HETATM   16  C18 UNL     1      25.808   6.117  49.353  1.00  0.00     0.074 A 
HETATM   17  C17 UNL     1      24.991   5.719  50.411  1.00  0.00     0.056 A 
HETATM   18 CL1  UNL     1      25.637   7.714  48.686  1.00  0.00    -0.081 Cl
ENDBRANCH   9  11
ENDBRANCH   1   9
BRANCH   8  19
HETATM   19  C12 UNL     1      24.123   1.256  52.951  1.00  0.00     0.283 C 
BRANCH  19  20
HETATM   20  N2  UNL     1      25.493   0.836  53.023  1.00  0.00     0.093 N 
HETATM   21  C13 UNL     1      25.496  -0.592  52.768  1.00  0.00     0.298 C 
HETATM   22  C14 UNL     1      26.792  -1.254  53.046  1.00  0.00     0.198 C 
HETATM   23  O2  UNL     1      27.513  -0.778  54.109  1.00  0.00    -0.388 OA
HETATM   24  C15 UNL     1      27.585   0.628  54.119  1.00  0.00     0.198 C 
HETATM   25  C16 UNL     1      26.122   1.064  54.278  1.00  0.00     0.298 C 
ENDBRANCH  19  20
ENDBRANCH   8  19
TORSDOF 4
ENDMDL
MODEL 6
REMARK VINA RESULT:      -7.2      1.884      2.309
REMARK  4 active torsions:
REMARK  status: ('A' for Active; 'I' for Inactive)
REMARK    1  A    between atoms: C4_5  and  N1_6 
REMARK    2  A    between atoms: N1_6  and  C5_7 
REMARK    3  A    between atoms: C11_14  and  C12_15 
REMARK    4  A    between atoms: C12_15  and  N2_16 
ROOT
HETATM    1  C5  UNL     1      22.363   1.677  51.450  1.00  0.00     0.015 C 
HETATM    2  C6  UNL     1      21.660   0.559  51.332  1.00  0.00     0.027 C 
HETATM    3  C7  UNL     1      20.223   0.318  51.380  1.00  0.00     0.026 C 
HETATM    4  C8  UNL     1      19.148   1.101  51.304  1.00  0.00     0.134 C 
HETATM    5  O1  UNL     1      19.056   2.477  51.146  1.00  0.00    -0.363 OA
HETATM    6  C9  UNL     1      19.697   3.645  51.628  1.00  0.00     0.175 C 
HETATM    7  C10 UNL     1      20.919   3.344  52.436  1.00  0.00     0.039 C 
HETATM    8  C11 UNL     1      22.176   3.144  51.669  1.00  0.00     0.066 C 
ENDROOT
BRANCH   1   9
HETATM    9  N1  UNL     1      23.746   1.385  51.328  1.00  0.00    -0.359 N 
HETATM   10  H3  UNL     1      23.943   1.471  50.329  1.00  0.00     0.166 HD
BRANCH   9  11
HETATM   11  C4  UNL     1      24.667   1.046  52.351  1.00  0.00     0.034 A 
HETATM   12  C3  UNL     1      24.350  -0.005  53.190  1.00  0.00     0.032 A 
HETATM   13  C2  UNL     1      25.316  -0.263  54.166  1.00  0.00     0.046 A 
HETATM   14  C1  UNL     1      26.484   0.477  54.269  1.00  0.00     0.138 A 
HETATM   15  F1  UNL     1      27.410   0.222  55.212  1.00  0.00    -0.204 F 
HETATM   16  C18 UNL     1      26.728   1.509  53.395  1.00  0.00     0.074 A 
HETATM   17  C17 UNL     1      25.797   1.812  52.401  1.00  0.00     0.056 A 
HETATM   18 CL1  UNL     1      28.190   2.441  53.518  1.00  0.00    -0.081 Cl
ENDBRANCH   9  11
ENDBRANCH   1   9
BRANCH   8  19
HETATM   19  C12 UNL     1      22.228   3.777  50.333  1.00  0.00     0.283 C 
BRANCH  19  20
HETATM   20  N2  UNL     1      23.032   4.958  50.203  1.00  0.00     0.093 N 
HETATM   21  C13 UNL     1      23.998   4.681  49.157  1.00  0.00     0.298 C 
HETATM   22  C14 UNL     1      25.078   5.689  49.047  1.00  0.00     0.198 C 
HETATM   23  O2  UNL     1      25.523   6.247  50.216  1.00  0.00    -0.388 OA
HETATM   24  C15 UNL     1      24.465   6.644  51.055  1.00  0.00     0.198 C 
HETATM   25  C16 UNL     1      23.744   5.327  51.378  1.00  0.00     0.298 C 
ENDBRANCH  19  20
ENDBRANCH   8  19
TORSDOF 4
ENDMDL
MODEL 7
REMARK VINA RESULT:      -7.1      4.075      6.465
REMARK  4 active torsions:
REMARK  status: ('A' for Active; 'I' for Inactive)
REMARK    1  A    between atoms: C4_5  and  N1_6 
REMARK    2  A    between atoms: N1_6  and  C5_7 
REMARK    3  A    between atoms: C11_14  and  C12_15 
REMARK    4  A    between atoms: C12_15  and  N2_16 
ROOT
HETATM    1  C5  UNL     1      23.070   1.252  52.493  1.00  0.00     0.015 C 
HETATM    2  C6  UNL     1      21.927   1.903  52.658  1.00  0.00     0.027 C 
HETATM    3  C7  UNL     1      20.668   1.496  53.270  1.00  0.00     0.026 C 
HETATM    4  C8  UNL     1      20.306   0.489  54.063  1.00  0.00     0.134 C 
HETATM    5  O1  UNL     1      21.063  -0.551  54.587  1.00  0.00    -0.363 OA
HETATM    6  C9  UNL     1      22.082  -1.440  54.162  1.00  0.00     0.175 C 
HETATM    7  C10 UNL     1      22.620  -1.100  52.810  1.00  0.00     0.039 C 
HETATM    8  C11 UNL     1      23.697  -0.076  52.773  1.00  0.00     0.066 C 
ENDROOT
BRANCH   1   9
HETATM    9  N1  UNL     1      24.005   2.092  51.834  1.00  0.00    -0.359 N 
HETATM   10  H3  UNL     1      24.889   1.929  52.321  1.00  0.00     0.166 HD
BRANCH   9  11
HETATM   11  C4  UNL     1      23.784   2.969  50.743  1.00  0.00     0.034 A 
HETATM   12  C3  UNL     1      24.163   4.290  50.882  1.00  0.00     0.032 A 
HETATM   13  C2  UNL     1      23.904   5.077  49.757  1.00  0.00     0.046 A 
HETATM   14  C1  UNL     1      23.321   4.562  48.609  1.00  0.00     0.138 A 
HETATM   15  F1  UNL     1      23.075   5.327  47.529  1.00  0.00    -0.204 F 
HETATM   16  C18 UNL     1      22.972   3.235  48.547  1.00  0.00     0.074 A 
HETATM   17  C17 UNL     1      23.206   2.403  49.642  1.00  0.00     0.056 A 
HETATM   18 CL1  UNL     1      22.239   2.583  47.111  1.00  0.00    -0.081 Cl
ENDBRANCH   9  11
ENDBRANCH   1   9
BRANCH   8  19
HETATM   19  C12 UNL     1      24.480   0.085  54.016  1.00  0.00     0.283 C 
BRANCH  19  20
HETATM   20  N2  UNL     1      25.906   0.173  53.880  1.00  0.00     0.093 N 
HETATM   21  C13 UNL     1      26.305  -0.931  53.027  1.00  0.00     0.298 C 
HETATM   22  C14 UNL     1      27.768  -1.155  52.972  1.00  0.00     0.198 C 
HETATM   23  O2  UNL     1      28.471  -0.935  54.127  1.00  0.00    -0.388 OA
HETATM   24  C15 UNL     1      28.110   0.276  54.749  1.00  0.00     0.198 C 
HETATM   25  C16 UNL     1      26.629   0.074  55.101  1.00  0.00     0.298 C 
ENDBRANCH  19  20
ENDBRANCH   8  19
TORSDOF 4
ENDMDL
MODEL 8
REMARK VINA RESULT:      -7.0      3.533      6.210
REMARK  4 active torsions:
REMARK  status: ('A' for Active; 'I' for Inactive)
REMARK    1  A    between atoms: C4_5  and  N1_6 
REMARK    2  A    between atoms: N1_6  and  C5_7 
REMARK    3  A    between atoms: C11_14  and  C12_15 
REMARK    4  A    between atoms: C12_15  and  N2_16 
ROOT
HETATM    1  C5  UNL     1      25.020   2.733  50.886  1.00  0.00     0.015 C 
HETATM    2  C6  UNL     1      26.228   2.195  50.809  1.00  0.00     0.027 C 
HETATM    3  C7  UNL     1      26.882   1.179  51.624  1.00  0.00     0.026 C 
HETATM    4  C8  UNL     1      26.454   0.292  52.520  1.00  0.00     0.134 C 
HETATM    5  O1  UNL     1      25.169   0.043  52.986  1.00  0.00    -0.363 OA
HETATM    6  C9  UNL     1      24.022   0.779  53.375  1.00  0.00     0.175 C 
HETATM    7  C10 UNL     1      24.143   2.240  53.083  1.00  0.00     0.039 C 
HETATM    8  C11 UNL     1      23.772   2.664  51.707  1.00  0.00     0.066 C 
ENDROOT
BRANCH   1   9
HETATM    9  N1  UNL     1      24.856   3.689  49.850  1.00  0.00    -0.359 N 
HETATM   10  H3  UNL     1      24.286   3.215  49.147  1.00  0.00     0.166 HD
BRANCH   9  11
HETATM   11  C4  UNL     1      25.363   5.012  49.786  1.00  0.00     0.034 A 
HETATM   12  C3  UNL     1      24.761   5.979  50.567  1.00  0.00     0.032 A 
HETATM   13  C2  UNL     1      25.327   7.249  50.435  1.00  0.00     0.046 A 
HETATM   14  C1  UNL     1      26.399   7.500  49.592  1.00  0.00     0.138 A 
HETATM   15  F1  UNL     1      26.939   8.727  49.471  1.00  0.00    -0.204 F 
HETATM   16  C18 UNL     1      26.944   6.483  48.846  1.00  0.00     0.074 A 
HETATM   17  C17 UNL     1      26.418   5.195  48.937  1.00  0.00     0.056 A 
HETATM   18 CL1  UNL     1      28.288   6.792  47.786  1.00  0.00    -0.081 Cl
ENDBRANCH   9  11
ENDBRANCH   1   9
BRANCH   8  19
HETATM   19  C12 UNL     1      22.843   1.771  50.983  1.00  0.00     0.283 C 
BRANCH  19  20
HETATM   20  N2  UNL     1      21.458   2.147  50.967  1.00  0.00     0.093 N 
HETATM   21  C13 UNL     1      21.426   3.593  51.081  1.00  0.00     0.298 C 
HETATM   22  C14 UNL     1      20.077   4.150  51.332  1.00  0.00     0.198 C 
HETATM   23  O2  UNL     1      19.243   3.413  52.131  1.00  0.00    -0.388 OA
HETATM   24  C15 UNL     1      19.232   2.050  51.778  1.00  0.00     0.198 C 
HETATM   25  C16 UNL     1      20.680   1.601  52.025  1.00  0.00     0.298 C 
ENDBRANCH  19  20
ENDBRANCH   8  19
TORSDOF 4
ENDMDL
MODEL 9
REMARK VINA RESULT:      -6.9      4.678      6.682
REMARK  4 active torsions:
REMARK  status: ('A' for Active; 'I' for Inactive)
REMARK    1  A    between atoms: C4_5  and  N1_6 
REMARK    2  A    between atoms: N1_6  and  C5_7 
REMARK    3  A    between atoms: C11_14  and  C12_15 
REMARK    4  A    between atoms: C12_15  and  N2_16 
ROOT
HETATM    1  C5  UNL     1      22.494   0.514  53.479  1.00  0.00     0.015 C 
HETATM    2  C6  UNL     1      22.103  -0.225  54.508  1.00  0.00     0.027 C 
HETATM    3  C7  UNL     1      22.830  -1.179  55.337  1.00  0.00     0.026 C 
HETATM    4  C8  UNL     1      24.120  -1.452  55.524  1.00  0.00     0.134 C 
HETATM    5  O1  UNL     1      25.246  -0.875  54.952  1.00  0.00    -0.363 OA
HETATM    6  C9  UNL     1      25.672  -0.417  53.680  1.00  0.00     0.175 C 
HETATM    7  C10 UNL     1      24.573  -0.411  52.667  1.00  0.00     0.039 C 
HETATM    8  C11 UNL     1      23.706   0.797  52.651  1.00  0.00     0.066 C 
ENDROOT
BRANCH   1   9
HETATM    9  N1  UNL     1      21.404   1.291  53.010  1.00  0.00    -0.359 N 
HETATM   10  H3  UNL     1      21.519   2.201  53.461  1.00  0.00     0.166 HD
BRANCH   9  11
HETATM   11  C4  UNL     1      20.372   0.910  52.115  1.00  0.00     0.034 A 
HETATM   12  C3  UNL     1      20.435   1.372  50.815  1.00  0.00     0.032 A 
HETATM   13  C2  UNL     1      19.376   0.946  50.009  1.00  0.00     0.046 A 
HETATM   14  C1  UNL     1      18.361   0.130  50.487  1.00  0.00     0.138 A 
HETATM   15  F1  UNL     1      17.344  -0.277  49.704  1.00  0.00    -0.204 F 
HETATM   16  C18 UNL     1      18.370  -0.289  51.795  1.00  0.00     0.074 A 
HETATM   17  C17 UNL     1      19.402   0.107  52.645  1.00  0.00     0.056 A 
HETATM   18 CL1  UNL     1      17.100  -1.311  52.401  1.00  0.00    -0.081 Cl
ENDBRANCH   9  11
ENDBRANCH   1   9
BRANCH   8  19
HETATM   19  C12 UNL     1      24.307   2.032  53.197  1.00  0.00     0.283 C 
BRANCH  19  20
HETATM   20  N2  UNL     1      24.529   3.110  52.276  1.00  0.00     0.093 N 
HETATM   21  C13 UNL     1      23.644   4.185  52.684  1.00  0.00     0.298 C 
HETATM   22  C14 UNL     1      23.546   5.293  51.706  1.00  0.00     0.198 C 
HETATM   23  O2  UNL     1      23.593   4.953  50.380  1.00  0.00    -0.388 OA
HETATM   24  C15 UNL     1      24.630   4.043  50.099  1.00  0.00     0.198 C 
HETATM   25  C16 UNL     1      24.252   2.799  50.916  1.00  0.00     0.298 C 
ENDBRANCH  19  20
ENDBRANCH   8  19
TORSDOF 4
ENDMDL
