MODEL 1
REMARK VINA RESULT:      -7.7      0.000      0.000
REMARK  3 active torsions:
REMARK  status: ('A' for Active; 'I' for Inactive)
REMARK    1  A    between atoms: C3_3  and  C4_4 
REMARK    2  A    between atoms: C9_11  and  O2_12 
REMARK    3  A    between atoms: C14_17  and  O3_18 
ROOT
HETATM    1  C4  UNL     1      27.365   1.450  53.027  1.00  0.00     0.069 A 
HETATM    2  N1  UNL     1      27.975   2.460  52.557  1.00  0.00    -0.248 NA
HETATM    3  C5  UNL     1      27.019   2.583  51.483  1.00  0.00     0.068 A 
HETATM    4  C6  UNL     1      26.194   2.866  50.456  1.00  0.00     0.032 C 
HETATM    5  C7  UNL     1      25.189   2.814  49.419  1.00  0.00     0.206 C 
HETATM    6  O1  UNL     1      24.126   3.753  49.541  1.00  0.00    -0.342 OA
HETATM    7  C8  UNL     1      23.324   3.484  50.688  1.00  0.00     0.135 A 
HETATM    8  C9  UNL     1      22.574   2.440  50.182  1.00  0.00     0.104 A 
HETATM    9  C11 UNL     1      21.601   1.750  50.875  1.00  0.00     0.048 A 
HETATM   10  C12 UNL     1      21.380   2.161  52.189  1.00  0.00    -0.033 A 
HETATM   11  C13 UNL     1      22.128   3.205  52.686  1.00  0.00     0.048 A 
HETATM   12  C14 UNL     1      23.090   3.876  51.977  1.00  0.00     0.104 A 
HETATM   13  C16 UNL     1      20.389   1.443  53.072  1.00  0.00     0.188 C 
HETATM   14  N2  UNL     1      21.157   0.451  53.796  1.00  0.00    -0.281 NA
HETATM   15  C17 UNL     1      22.371   0.258  53.639  1.00  0.00     0.196 C 
HETATM   16  N3  UNL     1      23.710  -0.075  53.580  1.00  0.00    -0.381 N 
HETATM   17  C18 UNL     1      24.937  -0.480  52.929  1.00  0.00     0.148 C 
HETATM   18  C19 UNL     1      25.319   0.631  51.988  1.00  0.00     0.009 C 
HETATM   19  C20 UNL     1      26.339   1.440  52.031  1.00  0.00     0.019 A 
HETATM   20  H20 UNL     1      23.781   0.053  54.640  1.00  0.00     0.160 HD
ENDROOT
BRANCH   1  21
HETATM   21  C3  UNL     1      28.166   1.105  54.180  1.00  0.00     0.028 C 
HETATM   22  C2  UNL     1      29.058   0.193  54.405  1.00  0.00    -0.029 C 
HETATM   23  C1  UNL     1      29.735  -0.921  53.734  1.00  0.00     0.036 C 
ENDBRANCH   1  21
BRANCH   8  24
HETATM   24  O2  UNL     1      22.569   1.817  48.917  1.00  0.00    -0.353 OA
HETATM   25  C10 UNL     1      21.419   1.818  48.102  1.00  0.00     0.210 C 
ENDBRANCH   8  24
BRANCH  12  26
HETATM   26  O3  UNL     1      23.859   4.926  52.442  1.00  0.00    -0.353 OA
HETATM   27  C15 UNL     1      23.959   6.166  51.780  1.00  0.00     0.210 C 
ENDBRANCH  12  26
TORSDOF 3
ENDMDL
MODEL 2
REMARK VINA RESULT:      -7.6      2.281      5.398
REMARK  3 active torsions:
REMARK  status: ('A' for Active; 'I' for Inactive)
REMARK    1  A    between atoms: C3_3  and  C4_4 
REMARK    2  A    between atoms: C9_11  and  O2_12 
REMARK    3  A    between atoms: C14_17  and  O3_18 
ROOT
HETATM    1  C4  UNL     1      21.428   0.532  52.845  1.00  0.00     0.069 A 
HETATM    2  N1  UNL     1      20.246   0.653  52.397  1.00  0.00    -0.248 NA
HETATM    3  C5  UNL     1      20.467   2.044  52.086  1.00  0.00     0.068 A 
HETATM    4  C6  UNL     1      20.524   3.331  51.691  1.00  0.00     0.032 C 
HETATM    5  C7  UNL     1      20.890   4.716  51.495  1.00  0.00     0.206 C 
HETATM    6  O1  UNL     1      21.227   5.082  50.163  1.00  0.00    -0.342 OA
HETATM    7  C8  UNL     1      22.424   4.438  49.733  1.00  0.00     0.135 A 
HETATM    8  C9  UNL     1      23.342   5.249  50.371  1.00  0.00     0.104 A 
HETATM    9  C11 UNL     1      24.712   5.092  50.321  1.00  0.00     0.048 A 
HETATM   10  C12 UNL     1      25.176   4.021  49.558  1.00  0.00    -0.033 A 
HETATM   11  C13 UNL     1      24.256   3.220  48.920  1.00  0.00     0.048 A 
HETATM   12  C14 UNL     1      22.898   3.395  48.985  1.00  0.00     0.104 A 
HETATM   13  C16 UNL     1      26.650   3.704  49.478  1.00  0.00     0.188 C 
HETATM   14  N2  UNL     1      26.896   2.723  50.515  1.00  0.00    -0.281 NA
HETATM   15  C17 UNL     1      26.032   2.307  51.300  1.00  0.00     0.196 C 
HETATM   16  N3  UNL     1      25.189   1.747  52.240  1.00  0.00    -0.381 N 
HETATM   17  C18 UNL     1      24.234   1.766  53.327  1.00  0.00     0.148 C 
HETATM   18  C19 UNL     1      22.982   2.408  52.795  1.00  0.00     0.009 C 
HETATM   19  C20 UNL     1      21.804   1.888  52.594  1.00  0.00     0.019 A 
HETATM   20  H20 UNL     1      25.487   0.771  51.916  1.00  0.00     0.160 HD
ENDROOT
BRANCH   1  21
HETATM   21  C3  UNL     1      21.473  -0.855  53.250  1.00  0.00     0.028 C 
HETATM   22  C2  UNL     1      22.072  -1.484  54.211  1.00  0.00    -0.029 C 
HETATM   23  C1  UNL     1      22.965  -1.234  55.347  1.00  0.00     0.036 C 
ENDBRANCH   1  21
BRANCH   8  24
HETATM   24  O2  UNL     1      23.180   6.383  51.193  1.00  0.00    -0.353 OA
HETATM   25  C10 UNL     1      23.628   7.655  50.785  1.00  0.00     0.210 C 
ENDBRANCH   8  24
BRANCH  12  26
HETATM   26  O3  UNL     1      21.946   2.613  48.360  1.00  0.00    -0.353 OA
HETATM   27  C15 UNL     1      21.693   1.271  48.709  1.00  0.00     0.210 C 
ENDBRANCH  12  26
TORSDOF 3
ENDMDL
MODEL 3
REMARK VINA RESULT:      -6.9      2.599      5.572
REMARK  3 active torsions:
REMARK  status: ('A' for Active; 'I' for Inactive)
REMARK    1  A    between atoms: C3_3  and  C4_4 
REMARK    2  A    between atoms: C9_11  and  O2_12 
REMARK    3  A    between atoms: C14_17  and  O3_18 
ROOT
HETATM    1  C4  UNL     1      21.891   1.162  52.749  1.00  0.00     0.069 A 
HETATM    2  N1  UNL     1      20.785   0.649  52.392  1.00  0.00    -0.248 NA
HETATM    3  C5  UNL     1      20.315   1.919  51.893  1.00  0.00     0.068 A 
HETATM    4  C6  UNL     1      19.749   3.008  51.339  1.00  0.00     0.032 C 
HETATM    5  C7  UNL     1      19.412   4.357  50.943  1.00  0.00     0.206 C 
HETATM    6  O1  UNL     1      19.513   4.635  49.551  1.00  0.00    -0.342 OA
HETATM    7  C8  UNL     1      20.865   4.567  49.104  1.00  0.00     0.135 A 
HETATM    8  C9  UNL     1      21.300   5.798  49.556  1.00  0.00     0.104 A 
HETATM    9  C11 UNL     1      22.580   6.292  49.409  1.00  0.00     0.048 A 
HETATM   10  C12 UNL     1      23.483   5.461  48.748  1.00  0.00    -0.033 A 
HETATM   11  C13 UNL     1      23.041   4.237  48.295  1.00  0.00     0.048 A 
HETATM   12  C14 UNL     1      21.764   3.768  48.453  1.00  0.00     0.104 A 
HETATM   13  C16 UNL     1      24.929   5.860  48.582  1.00  0.00     0.188 C 
HETATM   14  N2  UNL     1      25.628   5.273  49.707  1.00  0.00    -0.281 NA
HETATM   15  C17 UNL     1      25.078   4.625  50.608  1.00  0.00     0.196 C 
HETATM   16  N3  UNL     1      24.616   3.885  51.679  1.00  0.00    -0.381 N 
HETATM   17  C18 UNL     1      23.785   3.618  52.833  1.00  0.00     0.148 C 
HETATM   18  C19 UNL     1      22.369   3.515  52.335  1.00  0.00     0.009 C 
HETATM   19  C20 UNL     1      21.575   2.482  52.301  1.00  0.00     0.019 A 
HETATM   20  H20 UNL     1      25.336   3.124  51.454  1.00  0.00     0.160 HD
ENDROOT
BRANCH   1  21
HETATM   21  C3  UNL     1      22.594   0.033  53.317  1.00  0.00     0.028 C 
HETATM   22  C2  UNL     1      23.846  -0.285  53.403  1.00  0.00    -0.029 C 
HETATM   23  C1  UNL     1      25.173   0.220  53.035  1.00  0.00     0.036 C 
ENDBRANCH   1  21
BRANCH   8  24
HETATM   24  O2  UNL     1      20.633   6.833  50.243  1.00  0.00    -0.353 OA
HETATM   25  C10 UNL     1      20.849   8.187  49.917  1.00  0.00     0.210 C 
ENDBRANCH   8  24
BRANCH  12  26
HETATM   26  O3  UNL     1      21.286   2.548  48.013  1.00  0.00    -0.353 OA
HETATM   27  C15 UNL     1      21.660   1.315  48.585  1.00  0.00     0.210 C 
ENDBRANCH  12  26
TORSDOF 3
ENDMDL
MODEL 4
REMARK VINA RESULT:      -6.8      2.536      3.715
REMARK  3 active torsions:
REMARK  status: ('A' for Active; 'I' for Inactive)
REMARK    1  A    between atoms: C3_3  and  C4_4 
REMARK    2  A    between atoms: C9_11  and  O2_12 
REMARK    3  A    between atoms: C14_17  and  O3_18 
ROOT
HETATM    1  C4  UNL     1      23.833   0.639  52.646  1.00  0.00     0.069 A 
HETATM    2  N1  UNL     1      24.988   1.127  52.847  1.00  0.00    -0.248 NA
HETATM    3  C5  UNL     1      24.907   1.910  51.637  1.00  0.00     0.068 A 
HETATM    4  C6  UNL     1      24.971   2.738  50.576  1.00  0.00     0.032 C 
HETATM    5  C7  UNL     1      24.752   3.408  49.314  1.00  0.00     0.206 C 
HETATM    6  O1  UNL     1      24.369   4.775  49.399  1.00  0.00    -0.342 OA
HETATM    7  C8  UNL     1      23.080   4.918  49.991  1.00  0.00     0.135 A 
HETATM    8  C9  UNL     1      22.306   4.591  48.894  1.00  0.00     0.104 A 
HETATM    9  C11 UNL     1      20.927   4.550  48.878  1.00  0.00     0.048 A 
HETATM   10  C12 UNL     1      20.293   4.868  50.078  1.00  0.00    -0.033 A 
HETATM   11  C13 UNL     1      21.070   5.198  51.166  1.00  0.00     0.048 A 
HETATM   12  C14 UNL     1      22.439   5.232  51.158  1.00  0.00     0.104 A 
HETATM   13  C16 UNL     1      18.790   4.795  50.206  1.00  0.00     0.188 C 
HETATM   14  N2  UNL     1      18.505   3.471  50.719  1.00  0.00    -0.281 NA
HETATM   15  C17 UNL     1      19.367   2.610  50.941  1.00  0.00     0.196 C 
HETATM   16  N3  UNL     1      20.204   1.551  51.239  1.00  0.00    -0.381 N 
HETATM   17  C18 UNL     1      21.227   0.565  50.965  1.00  0.00     0.148 C 
HETATM   18  C19 UNL     1      22.505   1.320  50.721  1.00  0.00     0.009 C 
HETATM   19  C20 UNL     1      23.599   1.349  51.428  1.00  0.00     0.019 A 
HETATM   20  H20 UNL     1      19.774   1.497  52.219  1.00  0.00     0.160 HD
ENDROOT
BRANCH   1  21
HETATM   21  C3  UNL     1      23.659  -0.237  53.783  1.00  0.00     0.028 C 
HETATM   22  C2  UNL     1      22.622  -0.634  54.452  1.00  0.00    -0.029 C 
HETATM   23  C1  UNL     1      21.165  -0.475  54.485  1.00  0.00     0.036 C 
ENDBRANCH   1  21
BRANCH   8  24
HETATM   24  O2  UNL     1      22.653   4.233  47.575  1.00  0.00    -0.353 OA
HETATM   25  C10 UNL     1      21.915   3.271  46.858  1.00  0.00     0.210 C 
ENDBRANCH   8  24
BRANCH  12  26
HETATM   26  O3  UNL     1      23.251   5.558  52.227  1.00  0.00    -0.353 OA
HETATM   27  C15 UNL     1      23.471   4.701  53.324  1.00  0.00     0.210 C 
ENDBRANCH  12  26
TORSDOF 3
ENDMDL
MODEL 5
REMARK VINA RESULT:      -6.8      3.057      4.943
REMARK  3 active torsions:
REMARK  status: ('A' for Active; 'I' for Inactive)
REMARK    1  A    between atoms: C3_3  and  C4_4 
REMARK    2  A    between atoms: C9_11  and  O2_12 
REMARK    3  A    between atoms: C14_17  and  O3_18 
ROOT
HETATM    1  C4  UNL     1      26.199   6.807  48.620  1.00  0.00     0.069 A 
HETATM    2  N1  UNL     1      25.333   7.647  48.222  1.00  0.00    -0.248 NA
HETATM    3  C5  UNL     1      24.330   6.616  48.112  1.00  0.00     0.068 A 
HETATM    4  C6  UNL     1      23.271   5.790  48.003  1.00  0.00     0.032 C 
HETATM    5  C7  UNL     1      22.407   4.636  47.894  1.00  0.00     0.206 C 
HETATM    6  O1  UNL     1      21.472   4.464  48.952  1.00  0.00    -0.342 OA
HETATM    7  C8  UNL     1      22.128   4.176  50.184  1.00  0.00     0.135 A 
HETATM    8  C9  UNL     1      22.397   2.838  49.973  1.00  0.00     0.104 A 
HETATM    9  C11 UNL     1      23.052   2.008  50.861  1.00  0.00     0.048 A 
HETATM   10  C12 UNL     1      23.462   2.596  52.057  1.00  0.00    -0.033 A 
HETATM   11  C13 UNL     1      23.186   3.930  52.263  1.00  0.00     0.048 A 
HETATM   12  C14 UNL     1      22.534   4.734  51.365  1.00  0.00     0.104 A 
HETATM   13  C16 UNL     1      24.245   1.812  53.081  1.00  0.00     0.188 C 
HETATM   14  N2  UNL     1      25.640   2.070  52.788  1.00  0.00    -0.281 NA
HETATM   15  C17 UNL     1      26.037   2.768  51.846  1.00  0.00     0.196 C 
HETATM   16  N3  UNL     1      26.633   3.515  50.847  1.00  0.00    -0.381 N 
HETATM   17  C18 UNL     1      26.900   3.909  49.481  1.00  0.00     0.148 C 
HETATM   18  C19 UNL     1      25.614   4.462  48.929  1.00  0.00     0.009 C 
HETATM   19  C20 UNL     1      25.322   5.679  48.567  1.00  0.00     0.019 A 
HETATM   20  H20 UNL     1      27.188   4.050  51.590  1.00  0.00     0.160 HD
ENDROOT
BRANCH   1  21
HETATM   21  C3  UNL     1      27.372   7.629  48.814  1.00  0.00     0.028 C 
HETATM   22  C2  UNL     1      28.616   7.501  48.477  1.00  0.00    -0.029 C 
HETATM   23  C1  UNL     1      29.512   6.573  47.779  1.00  0.00     0.036 C 
ENDBRANCH   1  21
BRANCH   8  24
HETATM   24  O2  UNL     1      22.112   1.984  48.888  1.00  0.00    -0.353 OA
HETATM   25  C10 UNL     1      21.234   0.890  49.026  1.00  0.00     0.210 C 
ENDBRANCH   8  24
BRANCH  12  26
HETATM   26  O3  UNL     1      22.240   6.073  51.537  1.00  0.00    -0.353 OA
HETATM   27  C15 UNL     1      23.176   7.106  51.328  1.00  0.00     0.210 C 
ENDBRANCH  12  26
TORSDOF 3
ENDMDL
MODEL 6
REMARK VINA RESULT:      -6.7      9.473     12.279
REMARK  3 active torsions:
REMARK  status: ('A' for Active; 'I' for Inactive)
REMARK    1  A    between atoms: C3_3  and  C4_4 
REMARK    2  A    between atoms: C9_11  and  O2_12 
REMARK    3  A    between atoms: C14_17  and  O3_18 
ROOT
HETATM    1  C4  UNL     1      32.433  10.555  45.666  1.00  0.00     0.069 A 
HETATM    2  N1  UNL     1      32.668  11.266  46.692  1.00  0.00    -0.248 NA
HETATM    3  C5  UNL     1      32.087  10.270  47.559  1.00  0.00     0.068 A 
HETATM    4  C6  UNL     1      31.628   9.429  48.507  1.00  0.00     0.032 C 
HETATM    5  C7  UNL     1      30.964   8.364  49.223  1.00  0.00     0.206 C 
HETATM    6  O1  UNL     1      31.820   7.448  49.898  1.00  0.00    -0.342 OA
HETATM    7  C8  UNL     1      32.600   6.690  48.978  1.00  0.00     0.135 A 
HETATM    8  C9  UNL     1      31.640   5.775  48.590  1.00  0.00     0.104 A 
HETATM    9  C11 UNL     1      31.831   4.762  47.673  1.00  0.00     0.048 A 
HETATM   10  C12 UNL     1      33.104   4.682  47.109  1.00  0.00    -0.033 A 
HETATM   11  C13 UNL     1      34.057   5.594  47.503  1.00  0.00     0.048 A 
HETATM   12  C14 UNL     1      33.843   6.592  48.417  1.00  0.00     0.104 A 
HETATM   13  C16 UNL     1      33.419   3.659  46.044  1.00  0.00     0.188 C 
HETATM   14  N2  UNL     1      33.195   4.329  44.779  1.00  0.00    -0.281 NA
HETATM   15  C17 UNL     1      32.785   5.493  44.670  1.00  0.00     0.196 C 
HETATM   16  N3  UNL     1      32.338   6.769  44.385  1.00  0.00    -0.381 N 
HETATM   17  C18 UNL     1      31.421   7.887  44.448  1.00  0.00     0.148 C 
HETATM   18  C19 UNL     1      31.406   8.356  45.878  1.00  0.00     0.009 C 
HETATM   19  C20 UNL     1      31.831   9.478  46.387  1.00  0.00     0.019 A 
HETATM   20  H20 UNL     1      33.196   6.922  43.764  1.00  0.00     0.160 HD
ENDROOT
BRANCH   1  21
HETATM   21  C3  UNL     1      32.948  11.372  44.590  1.00  0.00     0.028 C 
HETATM   22  C2  UNL     1      34.025  11.325  43.872  1.00  0.00    -0.029 C 
HETATM   23  C1  UNL     1      35.245  10.527  43.708  1.00  0.00     0.036 C 
ENDBRANCH   1  21
BRANCH   8  24
HETATM   24  O2  UNL     1      30.295   5.606  48.978  1.00  0.00    -0.353 OA
HETATM   25  C10 UNL     1      29.272   5.441  48.023  1.00  0.00     0.210 C 
ENDBRANCH   8  24
BRANCH  12  26
HETATM   26  O3  UNL     1      34.774   7.524  48.836  1.00  0.00    -0.353 OA
HETATM   27  C15 UNL     1      35.313   8.516  47.992  1.00  0.00     0.210 C 
ENDBRANCH  12  26
TORSDOF 3
ENDMDL
MODEL 7
REMARK VINA RESULT:      -6.7      8.991     11.761
REMARK  3 active torsions:
REMARK  status: ('A' for Active; 'I' for Inactive)
REMARK    1  A    between atoms: C3_3  and  C4_4 
REMARK    2  A    between atoms: C9_11  and  O2_12 
REMARK    3  A    between atoms: C14_17  and  O3_18 
ROOT
HETATM    1  C4  UNL     1      31.785   4.868  47.591  1.00  0.00     0.069 A 
HETATM    2  N1  UNL     1      30.546   4.619  47.713  1.00  0.00    -0.248 NA
HETATM    3  C5  UNL     1      30.276   5.978  48.117  1.00  0.00     0.068 A 
HETATM    4  C6  UNL     1      29.848   7.209  48.457  1.00  0.00     0.032 C 
HETATM    5  C7  UNL     1      29.759   8.583  48.897  1.00  0.00     0.206 C 
HETATM    6  O1  UNL     1      29.281   9.510  47.929  1.00  0.00    -0.342 OA
HETATM    7  C8  UNL     1      30.194   9.648  46.844  1.00  0.00     0.135 A 
HETATM    8  C9  UNL     1      31.113  10.486  47.446  1.00  0.00     0.104 A 
HETATM    9  C11 UNL     1      32.262  10.965  46.851  1.00  0.00     0.048 A 
HETATM   10  C12 UNL     1      32.486  10.553  45.538  1.00  0.00    -0.033 A 
HETATM   11  C13 UNL     1      31.564   9.722  44.942  1.00  0.00     0.048 A 
HETATM   12  C14 UNL     1      30.429   9.258  45.555  1.00  0.00     0.104 A 
HETATM   13  C16 UNL     1      33.740  10.955  44.800  1.00  0.00     0.188 C 
HETATM   14  N2  UNL     1      34.684   9.877  45.015  1.00  0.00    -0.281 NA
HETATM   15  C17 UNL     1      34.453   8.878  45.710  1.00  0.00     0.196 C 
HETATM   16  N3  UNL     1      34.350   7.714  46.447  1.00  0.00    -0.381 N 
HETATM   17  C18 UNL     1      34.106   6.926  47.636  1.00  0.00     0.148 C 
HETATM   18  C19 UNL     1      32.655   7.109  47.988  1.00  0.00     0.009 C 
HETATM   19  C20 UNL     1      31.682   6.242  47.969  1.00  0.00     0.019 A 
HETATM   20  H20 UNL     1      34.641   7.151  45.583  1.00  0.00     0.160 HD
ENDROOT
BRANCH   1  21
HETATM   21  C3  UNL     1      32.324   3.594  47.171  1.00  0.00     0.028 C 
HETATM   22  C2  UNL     1      33.490   3.040  47.279  1.00  0.00    -0.029 C 
HETATM   23  C1  UNL     1      34.827   3.307  47.819  1.00  0.00     0.036 C 
ENDBRANCH   1  21
BRANCH   8  24
HETATM   24  O2  UNL     1      31.157  11.059  48.734  1.00  0.00    -0.353 OA
HETATM   25  C10 UNL     1      30.727  12.381  48.964  1.00  0.00     0.210 C 
ENDBRANCH   8  24
BRANCH  12  26
HETATM   26  O3  UNL     1      29.483   8.425  44.990  1.00  0.00    -0.353 OA
HETATM   27  C15 UNL     1      28.133   8.791  44.814  1.00  0.00     0.210 C 
ENDBRANCH  12  26
TORSDOF 3
ENDMDL
MODEL 8
REMARK VINA RESULT:      -6.6      8.355     10.148
REMARK  3 active torsions:
REMARK  status: ('A' for Active; 'I' for Inactive)
REMARK    1  A    between atoms: C3_3  and  C4_4 
REMARK    2  A    between atoms: C9_11  and  O2_12 
REMARK    3  A    between atoms: C14_17  and  O3_18 
ROOT
HETATM    1  C4  UNL     1      34.231   7.388  47.838  1.00  0.00     0.069 A 
HETATM    2  N1  UNL     1      34.735   8.553  47.869  1.00  0.00    -0.248 NA
HETATM    3  C5  UNL     1      33.670   9.075  47.046  1.00  0.00     0.068 A 
HETATM    4  C6  UNL     1      32.731   9.727  46.334  1.00  0.00     0.032 C 
HETATM    5  C7  UNL     1      31.631  10.073  45.462  1.00  0.00     0.206 C 
HETATM    6  O1  UNL     1      30.537  10.737  46.084  1.00  0.00    -0.342 OA
HETATM    7  C8  UNL     1      29.870   9.885  47.011  1.00  0.00     0.135 A 
HETATM    8  C9  UNL     1      29.131   9.136  46.116  1.00  0.00     0.104 A 
HETATM    9  C11 UNL     1      28.272   8.111  46.456  1.00  0.00     0.048 A 
HETATM   10  C12 UNL     1      28.162   7.832  47.818  1.00  0.00    -0.033 A 
HETATM   11  C13 UNL     1      28.899   8.586  48.705  1.00  0.00     0.048 A 
HETATM   12  C14 UNL     1      29.746   9.599  48.343  1.00  0.00     0.104 A 
HETATM   13  C16 UNL     1      27.306   6.692  48.312  1.00  0.00     0.188 C 
HETATM   14  N2  UNL     1      28.196   5.554  48.425  1.00  0.00    -0.281 NA
HETATM   15  C17 UNL     1      29.396   5.576  48.119  1.00  0.00     0.196 C 
HETATM   16  N3  UNL     1      30.739   5.440  47.824  1.00  0.00    -0.381 N 
HETATM   17  C18 UNL     1      31.915   5.508  46.983  1.00  0.00     0.148 C 
HETATM   18  C19 UNL     1      32.138   6.961  46.665  1.00  0.00     0.009 C 
HETATM   19  C20 UNL     1      33.112   7.749  47.024  1.00  0.00     0.019 A 
HETATM   20  H20 UNL     1      30.910   5.060  48.811  1.00  0.00     0.160 HD
ENDROOT
BRANCH   1  21
HETATM   21  C3  UNL     1      35.162   6.619  48.634  1.00  0.00     0.028 C 
HETATM   22  C2  UNL     1      35.389   5.351  48.762  1.00  0.00    -0.029 C 
HETATM   23  C1  UNL     1      34.918   4.057  48.257  1.00  0.00     0.036 C 
ENDBRANCH   1  21
BRANCH   8  24
HETATM   24  O2  UNL     1      29.032   9.183  44.711  1.00  0.00    -0.353 OA
HETATM   25  C10 UNL     1      27.803   9.437  44.069  1.00  0.00     0.210 C 
ENDBRANCH   8  24
BRANCH  12  26
HETATM   26  O3  UNL     1      30.499  10.376  49.203  1.00  0.00    -0.353 OA
HETATM   27  C15 UNL     1      30.540  11.784  49.144  1.00  0.00     0.210 C 
ENDBRANCH  12  26
TORSDOF 3
ENDMDL
MODEL 9
REMARK VINA RESULT:      -6.5      8.839     11.396
REMARK  3 active torsions:
REMARK  status: ('A' for Active; 'I' for Inactive)
REMARK    1  A    between atoms: C3_3  and  C4_4 
REMARK    2  A    between atoms: C9_11  and  O2_12 
REMARK    3  A    between atoms: C14_17  and  O3_18 
ROOT
HETATM    1  C4  UNL     1      32.507   4.856  47.782  1.00  0.00     0.069 A 
HETATM    2  N1  UNL     1      31.778   4.694  48.809  1.00  0.00    -0.248 NA
HETATM    3  C5  UNL     1      31.600   6.119  48.952  1.00  0.00     0.068 A 
HETATM    4  C6  UNL     1      31.294   7.408  49.196  1.00  0.00     0.032 C 
HETATM    5  C7  UNL     1      31.265   8.853  49.229  1.00  0.00     0.206 C 
HETATM    6  O1  UNL     1      30.081   9.457  48.721  1.00  0.00    -0.342 OA
HETATM    7  C8  UNL     1      29.942   9.231  47.320  1.00  0.00     0.135 A 
HETATM    8  C9  UNL     1      30.832  10.183  46.862  1.00  0.00     0.104 A 
HETATM    9  C11 UNL     1      31.127  10.423  45.536  1.00  0.00     0.048 A 
HETATM   10  C12 UNL     1      30.459   9.626  44.608  1.00  0.00    -0.033 A 
HETATM   11  C13 UNL     1      29.569   8.682  45.071  1.00  0.00     0.048 A 
HETATM   12  C14 UNL     1      29.293   8.462  46.395  1.00  0.00     0.104 A 
HETATM   13  C16 UNL     1      30.744   9.747  43.131  1.00  0.00     0.188 C 
HETATM   14  N2  UNL     1      31.761   8.756  42.846  1.00  0.00    -0.281 NA
HETATM   15  C17 UNL     1      32.278   8.023  43.701  1.00  0.00     0.196 C 
HETATM   16  N3  UNL     1      32.944   7.140  44.529  1.00  0.00    -0.381 N 
HETATM   17  C18 UNL     1      33.750   6.759  45.669  1.00  0.00     0.148 C 
HETATM   18  C19 UNL     1      32.946   7.084  46.899  1.00  0.00     0.009 C 
HETATM   19  C20 UNL     1      32.425   6.283  47.785  1.00  0.00     0.019 A 
HETATM   20  H20 UNL     1      32.661   6.333  43.884  1.00  0.00     0.160 HD
ENDROOT
BRANCH   1  21
HETATM   21  C3  UNL     1      32.844   3.498  47.416  1.00  0.00     0.028 C 
HETATM   22  C2  UNL     1      33.813   2.973  46.735  1.00  0.00    -0.029 C 
HETATM   23  C1  UNL     1      35.022   3.358  46.000  1.00  0.00     0.036 C 
ENDBRANCH   1  21
BRANCH   8  24
HETATM   24  O2  UNL     1      31.638  11.118  47.544  1.00  0.00    -0.353 OA
HETATM   25  C10 UNL     1      32.945  11.416  47.109  1.00  0.00     0.210 C 
ENDBRANCH   8  24
BRANCH  12  26
HETATM   26  O3  UNL     1      28.408   7.526  46.896  1.00  0.00    -0.353 OA
HETATM   27  C15 UNL     1      27.114   7.848  47.354  1.00  0.00     0.210 C 
ENDBRANCH  12  26
TORSDOF 3
ENDMDL
