MODEL 1
REMARK VINA RESULT:      -8.9      0.000      0.000
REMARK  5 active torsions:
REMARK  status: ('A' for Active; 'I' for Inactive)
REMARK    1  A    between atoms: C3_3  and  C5_5 
REMARK    2  A    between atoms: C5_5  and  C17_19 
REMARK    3  A    between atoms: C6_6  and  C7_7 
REMARK    4  A    between atoms: C17_19  and  C18_20 
REMARK    5  A    between atoms: C18_20  and  O3_22 
ROOT
HETATM    1  C7  UNL     1      24.713   0.119  52.456  1.00  0.00    -0.002 C 
HETATM    2  C8  UNL     1      25.782   0.742  52.977  1.00  0.00     0.042 A 
HETATM    3  C9  UNL     1      25.858   2.145  53.435  1.00  0.00     0.256 A 
HETATM    4  O1  UNL     1      24.994   3.036  53.442  1.00  0.00    -0.267 OA
HETATM    5  N1  UNL     1      27.161   2.429  53.928  1.00  0.00    -0.322 N 
HETATM    6  C10 UNL     1      27.906   1.243  53.793  1.00  0.00     0.046 A 
HETATM    7  C11 UNL     1      29.222   1.045  54.141  1.00  0.00     0.030 A 
HETATM    8  C12 UNL     1      29.779  -0.194  53.930  1.00  0.00     0.003 A 
HETATM    9  C13 UNL     1      28.980  -1.165  53.381  1.00  0.00     0.007 A 
HETATM   10  C14 UNL     1      27.637  -1.006  53.013  1.00  0.00    -0.049 A 
HETATM   11  C15 UNL     1      26.933  -2.171  52.433  1.00  0.00     0.049 C 
HETATM   12  C16 UNL     1      27.129   0.254  53.245  1.00  0.00     0.012 A 
HETATM   13  H10 UNL     1      27.512   3.353  54.324  1.00  0.00     0.169 HD
ENDROOT
BRANCH   1  14
HETATM   14  C6  UNL     1      23.528   0.998  52.365  1.00  0.00     0.067 C 
HETATM   15  C5  UNL     1      22.224   0.645  52.641  1.00  0.00    -0.011 C 
BRANCH  15  16
HETATM   16  C3  UNL     1      21.419   1.868  52.401  1.00  0.00    -0.082 C 
HETATM   17  C2  UNL     1      21.964   3.052  52.181  1.00  0.00    -0.028 C 
HETATM   18  C1  UNL     1      21.498   4.417  51.939  1.00  0.00     0.036 C 
HETATM   19  C4  UNL     1      19.912   1.914  52.404  1.00  0.00     0.043 C 
ENDBRANCH  15  16
BRANCH  15  20
HETATM   20  C17 UNL     1      21.290  -0.493  53.121  1.00  0.00     0.120 C 
BRANCH  20  21
HETATM   21  C18 UNL     1      21.451  -0.728  54.561  1.00  0.00     0.140 C 
HETATM   22  O2  UNL     1      22.096  -1.589  55.251  1.00  0.00    -0.650 OA
BRANCH  21  23
HETATM   23  O3  UNL     1      20.731   0.212  55.321  1.00  0.00    -0.776 OA
HETATM   24  H19 UNL     1      20.666   1.168  54.997  1.00  0.00     0.167 HD
ENDBRANCH  21  23
ENDBRANCH  20  21
ENDBRANCH  15  20
ENDBRANCH   1  14
TORSDOF 5
ENDMDL
MODEL 2
REMARK VINA RESULT:      -8.4      2.398      7.207
REMARK  5 active torsions:
REMARK  status: ('A' for Active; 'I' for Inactive)
REMARK    1  A    between atoms: C3_3  and  C5_5 
REMARK    2  A    between atoms: C5_5  and  C17_19 
REMARK    3  A    between atoms: C6_6  and  C7_7 
REMARK    4  A    between atoms: C17_19  and  C18_20 
REMARK    5  A    between atoms: C18_20  and  O3_22 
ROOT
HETATM    1  C7  UNL     1      23.057   0.565  52.440  1.00  0.00    -0.002 C 
HETATM    2  C8  UNL     1      22.022  -0.067  53.016  1.00  0.00     0.042 A 
HETATM    3  C9  UNL     1      22.052  -0.877  54.252  1.00  0.00     0.256 A 
HETATM    4  O1  UNL     1      22.995  -1.153  55.009  1.00  0.00    -0.267 OA
HETATM    5  N1  UNL     1      20.753  -1.379  54.539  1.00  0.00    -0.322 N 
HETATM    6  C10 UNL     1      19.907  -0.906  53.519  1.00  0.00     0.046 A 
HETATM    7  C11 UNL     1      18.558  -1.139  53.383  1.00  0.00     0.030 A 
HETATM    8  C12 UNL     1      17.900  -0.588  52.309  1.00  0.00     0.003 A 
HETATM    9  C13 UNL     1      18.636   0.168  51.432  1.00  0.00     0.007 A 
HETATM   10  C14 UNL     1      20.010   0.431  51.533  1.00  0.00    -0.049 A 
HETATM   11  C15 UNL     1      20.635   1.271  50.487  1.00  0.00     0.049 C 
HETATM   12  C16 UNL     1      20.620  -0.146  52.626  1.00  0.00     0.012 A 
HETATM   13  H10 UNL     1      20.466  -1.990  55.362  1.00  0.00     0.169 HD
ENDROOT
BRANCH   1  14
HETATM   14  C6  UNL     1      24.322   0.383  53.182  1.00  0.00     0.067 C 
HETATM   15  C5  UNL     1      25.594   0.611  52.699  1.00  0.00    -0.011 C 
BRANCH  15  16
HETATM   16  C3  UNL     1      26.511   0.285  53.819  1.00  0.00    -0.082 C 
HETATM   17  C2  UNL     1      27.822   0.210  53.672  1.00  0.00    -0.028 C 
HETATM   18  C1  UNL     1      28.978  -0.096  54.514  1.00  0.00     0.036 C 
HETATM   19  C4  UNL     1      26.067  -0.017  55.228  1.00  0.00     0.043 C 
ENDBRANCH  15  16
BRANCH  15  20
HETATM   20  C17 UNL     1      26.425   1.091  51.484  1.00  0.00     0.120 C 
BRANCH  20  21
HETATM   21  C18 UNL     1      26.142   2.499  51.182  1.00  0.00     0.140 C 
HETATM   22  O2  UNL     1      25.074   3.153  50.929  1.00  0.00    -0.650 OA
BRANCH  21  23
HETATM   23  O3  UNL     1      27.318   3.272  51.177  1.00  0.00    -0.776 OA
HETATM   24  H19 UNL     1      27.596   3.759  52.020  1.00  0.00     0.167 HD
ENDBRANCH  21  23
ENDBRANCH  20  21
ENDBRANCH  15  20
ENDBRANCH   1  14
TORSDOF 5
ENDMDL
MODEL 3
REMARK VINA RESULT:      -8.2      4.201      6.884
REMARK  5 active torsions:
REMARK  status: ('A' for Active; 'I' for Inactive)
REMARK    1  A    between atoms: C3_3  and  C5_5 
REMARK    2  A    between atoms: C5_5  and  C17_19 
REMARK    3  A    between atoms: C6_6  and  C7_7 
REMARK    4  A    between atoms: C17_19  and  C18_20 
REMARK    5  A    between atoms: C18_20  and  O3_22 
ROOT
HETATM    1  C7  UNL     1      26.770   3.148  50.182  1.00  0.00    -0.002 C 
HETATM    2  C8  UNL     1      25.792   3.999  49.833  1.00  0.00     0.042 A 
HETATM    3  C9  UNL     1      24.354   3.881  50.153  1.00  0.00     0.256 A 
HETATM    4  O1  UNL     1      23.742   3.007  50.787  1.00  0.00    -0.267 OA
HETATM    5  N1  UNL     1      23.639   4.983  49.610  1.00  0.00    -0.322 N 
HETATM    6  C10 UNL     1      24.588   5.792  48.958  1.00  0.00     0.046 A 
HETATM    7  C11 UNL     1      24.354   6.970  48.286  1.00  0.00     0.030 A 
HETATM    8  C12 UNL     1      25.419   7.620  47.708  1.00  0.00     0.003 A 
HETATM    9  C13 UNL     1      26.660   7.049  47.839  1.00  0.00     0.007 A 
HETATM   10  C14 UNL     1      26.942   5.852  48.513  1.00  0.00    -0.049 A 
HETATM   11  C15 UNL     1      28.347   5.390  48.549  1.00  0.00     0.049 C 
HETATM   12  C16 UNL     1      25.840   5.242  49.073  1.00  0.00     0.012 A 
HETATM   13  H10 UNL     1      22.594   5.169  49.680  1.00  0.00     0.169 HD
ENDROOT
BRANCH   1  14
HETATM   14  C6  UNL     1      26.274   2.000  50.968  1.00  0.00     0.067 C 
HETATM   15  C5  UNL     1      26.407   1.821  52.329  1.00  0.00    -0.011 C 
BRANCH  15  16
HETATM   16  C3  UNL     1      25.748   0.526  52.629  1.00  0.00    -0.082 C 
HETATM   17  C2  UNL     1      24.492   0.439  53.032  1.00  0.00    -0.028 C 
HETATM   18  C1  UNL     1      23.565  -0.622  53.422  1.00  0.00     0.036 C 
HETATM   19  C4  UNL     1      26.423  -0.819  52.536  1.00  0.00     0.043 C 
ENDBRANCH  15  16
BRANCH  15  20
HETATM   20  C17 UNL     1      26.934   2.440  53.647  1.00  0.00     0.120 C 
BRANCH  20  21
HETATM   21  C18 UNL     1      28.367   2.171  53.814  1.00  0.00     0.140 C 
HETATM   22  O2  UNL     1      29.040   1.394  54.573  1.00  0.00    -0.650 OA
BRANCH  21  23
HETATM   23  O3  UNL     1      29.144   2.949  52.935  1.00  0.00    -0.776 OA
HETATM   24  H19 UNL     1      28.688   3.466  52.194  1.00  0.00     0.167 HD
ENDBRANCH  21  23
ENDBRANCH  20  21
ENDBRANCH  15  20
ENDBRANCH   1  14
TORSDOF 5
ENDMDL
MODEL 4
REMARK VINA RESULT:      -8.2      2.033      3.225
REMARK  5 active torsions:
REMARK  status: ('A' for Active; 'I' for Inactive)
REMARK    1  A    between atoms: C3_3  and  C5_5 
REMARK    2  A    between atoms: C5_5  and  C17_19 
REMARK    3  A    between atoms: C6_6  and  C7_7 
REMARK    4  A    between atoms: C17_19  and  C18_20 
REMARK    5  A    between atoms: C18_20  and  O3_22 
ROOT
HETATM    1  C7  UNL     1      24.690   0.332  52.403  1.00  0.00    -0.002 C 
HETATM    2  C8  UNL     1      25.768   0.859  53.005  1.00  0.00     0.042 A 
HETATM    3  C9  UNL     1      25.888   2.212  53.586  1.00  0.00     0.256 A 
HETATM    4  O1  UNL     1      25.063   3.137  53.648  1.00  0.00    -0.267 OA
HETATM    5  N1  UNL     1      27.187   2.395  54.137  1.00  0.00    -0.322 N 
HETATM    6  C10 UNL     1      27.885   1.193  53.918  1.00  0.00     0.046 A 
HETATM    7  C11 UNL     1      29.181   0.907  54.283  1.00  0.00     0.030 A 
HETATM    8  C12 UNL     1      29.691  -0.333  53.978  1.00  0.00     0.003 A 
HETATM    9  C13 UNL     1      28.869  -1.217  53.325  1.00  0.00     0.007 A 
HETATM   10  C14 UNL     1      27.546  -0.966  52.936  1.00  0.00    -0.049 A 
HETATM   11  C15 UNL     1      26.812  -2.044  52.237  1.00  0.00     0.049 C 
HETATM   12  C16 UNL     1      27.084   0.290  53.265  1.00  0.00     0.012 A 
HETATM   13  H10 UNL     1      27.564   3.264  54.622  1.00  0.00     0.169 HD
ENDROOT
BRANCH   1  14
HETATM   14  C6  UNL     1      23.547   1.267  52.358  1.00  0.00     0.067 C 
HETATM   15  C5  UNL     1      23.291   2.200  51.374  1.00  0.00    -0.011 C 
BRANCH  15  16
HETATM   16  C3  UNL     1      22.039   2.882  51.786  1.00  0.00    -0.082 C 
HETATM   17  C2  UNL     1      20.854   2.299  51.726  1.00  0.00    -0.028 C 
HETATM   18  C1  UNL     1      19.467   2.662  52.015  1.00  0.00     0.036 C 
HETATM   19  C4  UNL     1      21.963   4.301  52.290  1.00  0.00     0.043 C 
ENDBRANCH  15  16
BRANCH  15  20
HETATM   20  C17 UNL     1      23.767   2.785  50.022  1.00  0.00     0.120 C 
BRANCH  20  21
HETATM   21  C18 UNL     1      25.136   3.303  50.129  1.00  0.00     0.140 C 
HETATM   22  O2  UNL     1      26.261   2.939  49.645  1.00  0.00    -0.650 OA
BRANCH  21  23
HETATM   23  O3  UNL     1      25.192   4.447  50.946  1.00  0.00    -0.776 OA
HETATM   24  H19 UNL     1      24.334   4.924  51.192  1.00  0.00     0.167 HD
ENDBRANCH  21  23
ENDBRANCH  20  21
ENDBRANCH  15  20
ENDBRANCH   1  14
TORSDOF 5
ENDMDL
MODEL 5
REMARK VINA RESULT:      -8.1      1.938      3.975
REMARK  5 active torsions:
REMARK  status: ('A' for Active; 'I' for Inactive)
REMARK    1  A    between atoms: C3_3  and  C5_5 
REMARK    2  A    between atoms: C5_5  and  C17_19 
REMARK    3  A    between atoms: C6_6  and  C7_7 
REMARK    4  A    between atoms: C17_19  and  C18_20 
REMARK    5  A    between atoms: C18_20  and  O3_22 
ROOT
HETATM    1  C7  UNL     1      25.714   2.024  53.268  1.00  0.00    -0.002 C 
HETATM    2  C8  UNL     1      26.225   0.783  53.248  1.00  0.00     0.042 A 
HETATM    3  C9  UNL     1      25.479  -0.483  53.083  1.00  0.00     0.256 A 
HETATM    4  O1  UNL     1      24.264  -0.685  52.934  1.00  0.00    -0.267 OA
HETATM    5  N1  UNL     1      26.375  -1.587  53.111  1.00  0.00    -0.322 N 
HETATM    6  C10 UNL     1      27.664  -1.050  53.289  1.00  0.00     0.046 A 
HETATM    7  C11 UNL     1      28.848  -1.744  53.376  1.00  0.00     0.030 A 
HETATM    8  C12 UNL     1      30.014  -1.037  53.552  1.00  0.00     0.003 A 
HETATM    9  C13 UNL     1      29.923   0.330  53.631  1.00  0.00     0.007 A 
HETATM   10  C14 UNL     1      28.739   1.076  53.547  1.00  0.00    -0.049 A 
HETATM   11  C15 UNL     1      28.837   2.549  53.654  1.00  0.00     0.049 C 
HETATM   12  C16 UNL     1      27.601   0.319  53.371  1.00  0.00     0.012 A 
HETATM   13  H10 UNL     1      26.130  -2.618  53.016  1.00  0.00     0.169 HD
ENDROOT
BRANCH   1  14
HETATM   14  C6  UNL     1      24.246   2.040  53.100  1.00  0.00     0.067 C 
HETATM   15  C5  UNL     1      23.547   2.630  52.068  1.00  0.00    -0.011 C 
BRANCH  15  16
HETATM   16  C3  UNL     1      22.115   2.370  52.356  1.00  0.00    -0.082 C 
HETATM   17  C2  UNL     1      21.660   1.180  52.710  1.00  0.00    -0.028 C 
HETATM   18  C1  UNL     1      20.366   0.583  53.034  1.00  0.00     0.036 C 
HETATM   19  C4  UNL     1      21.022   3.404  52.258  1.00  0.00     0.043 C 
ENDBRANCH  15  16
BRANCH  15  20
HETATM   20  C17 UNL     1      23.665   3.413  50.737  1.00  0.00     0.120 C 
BRANCH  20  21
HETATM   21  C18 UNL     1      24.366   4.687  50.941  1.00  0.00     0.140 C 
HETATM   22  O2  UNL     1      23.993   5.855  51.302  1.00  0.00    -0.650 OA
BRANCH  21  23
HETATM   23  O3  UNL     1      25.742   4.565  50.676  1.00  0.00    -0.776 OA
HETATM   24  H19 UNL     1      26.068   4.581  49.718  1.00  0.00     0.167 HD
ENDBRANCH  21  23
ENDBRANCH  20  21
ENDBRANCH  15  20
ENDBRANCH   1  14
TORSDOF 5
ENDMDL
MODEL 6
REMARK VINA RESULT:      -8.0      2.841      6.583
REMARK  5 active torsions:
REMARK  status: ('A' for Active; 'I' for Inactive)
REMARK    1  A    between atoms: C3_3  and  C5_5 
REMARK    2  A    between atoms: C5_5  and  C17_19 
REMARK    3  A    between atoms: C6_6  and  C7_7 
REMARK    4  A    between atoms: C17_19  and  C18_20 
REMARK    5  A    between atoms: C18_20  and  O3_22 
ROOT
HETATM    1  C7  UNL     1      23.219   0.526  52.981  1.00  0.00    -0.002 C 
HETATM    2  C8  UNL     1      22.118   0.682  52.228  1.00  0.00     0.042 A 
HETATM    3  C9  UNL     1      21.993   1.484  50.992  1.00  0.00     0.256 A 
HETATM    4  O1  UNL     1      22.834   2.171  50.392  1.00  0.00    -0.267 OA
HETATM    5  N1  UNL     1      20.667   1.396  50.484  1.00  0.00    -0.322 N 
HETATM    6  C10 UNL     1      19.957   0.561  51.366  1.00  0.00     0.046 A 
HETATM    7  C11 UNL     1      18.636   0.189  51.274  1.00  0.00     0.030 A 
HETATM    8  C12 UNL     1      18.116  -0.640  52.240  1.00  0.00     0.003 A 
HETATM    9  C13 UNL     1      18.957  -1.049  53.245  1.00  0.00     0.007 A 
HETATM   10  C14 UNL     1      20.307  -0.695  53.376  1.00  0.00    -0.049 A 
HETATM   11  C15 UNL     1      21.058  -1.236  54.531  1.00  0.00     0.049 C 
HETATM   12  C16 UNL     1      20.776   0.137  52.382  1.00  0.00     0.012 A 
HETATM   13  H10 UNL     1      20.281   1.864  49.610  1.00  0.00     0.169 HD
ENDROOT
BRANCH   1  14
HETATM   14  C6  UNL     1      24.383   1.265  52.450  1.00  0.00     0.067 C 
HETATM   15  C5  UNL     1      25.633   0.743  52.187  1.00  0.00    -0.011 C 
BRANCH  15  16
HETATM   16  C3  UNL     1      26.440   1.877  51.673  1.00  0.00    -0.082 C 
HETATM   17  C2  UNL     1      26.154   2.506  50.546  1.00  0.00    -0.028 C 
HETATM   18  C1  UNL     1      26.719   3.602  49.760  1.00  0.00     0.036 C 
HETATM   19  C4  UNL     1      27.673   2.424  52.348  1.00  0.00     0.043 C 
ENDBRANCH  15  16
BRANCH  15  20
HETATM   20  C17 UNL     1      26.500  -0.540  52.186  1.00  0.00     0.120 C 
BRANCH  20  21
HETATM   21  C18 UNL     1      26.999  -0.835  53.535  1.00  0.00     0.140 C 
HETATM   22  O2  UNL     1      28.160  -0.842  54.068  1.00  0.00    -0.650 OA
BRANCH  21  23
HETATM   23  O3  UNL     1      25.950  -1.178  54.409  1.00  0.00    -0.776 OA
HETATM   24  H19 UNL     1      26.141  -1.284  55.397  1.00  0.00     0.167 HD
ENDBRANCH  21  23
ENDBRANCH  20  21
ENDBRANCH  15  20
ENDBRANCH   1  14
TORSDOF 5
ENDMDL
MODEL 7
REMARK VINA RESULT:      -8.0      3.062      5.713
REMARK  5 active torsions:
REMARK  status: ('A' for Active; 'I' for Inactive)
REMARK    1  A    between atoms: C3_3  and  C5_5 
REMARK    2  A    between atoms: C5_5  and  C17_19 
REMARK    3  A    between atoms: C6_6  and  C7_7 
REMARK    4  A    between atoms: C17_19  and  C18_20 
REMARK    5  A    between atoms: C18_20  and  O3_22 
ROOT
HETATM    1  C7  UNL     1      24.565   1.720  51.620  1.00  0.00    -0.002 C 
HETATM    2  C8  UNL     1      23.857   2.802  51.259  1.00  0.00     0.042 A 
HETATM    3  C9  UNL     1      22.488   3.154  51.694  1.00  0.00     0.256 A 
HETATM    4  O1  UNL     1      21.708   2.559  52.453  1.00  0.00    -0.267 OA
HETATM    5  N1  UNL     1      22.085   4.380  51.096  1.00  0.00    -0.322 N 
HETATM    6  C10 UNL     1      23.163   4.809  50.300  1.00  0.00     0.046 A 
HETATM    7  C11 UNL     1      23.227   5.949  49.533  1.00  0.00     0.030 A 
HETATM    8  C12 UNL     1      24.374   6.198  48.818  1.00  0.00     0.003 A 
HETATM    9  C13 UNL     1      25.395   5.285  48.915  1.00  0.00     0.007 A 
HETATM   10  C14 UNL     1      25.371   4.112  49.683  1.00  0.00    -0.049 A 
HETATM   11  C15 UNL     1      26.570   3.245  49.663  1.00  0.00     0.049 C 
HETATM   12  C16 UNL     1      24.198   3.911  50.379  1.00  0.00     0.012 A 
HETATM   13  H10 UNL     1      21.156   4.882  51.222  1.00  0.00     0.169 HD
ENDROOT
BRANCH   1  14
HETATM   14  C6  UNL     1      23.828   0.840  52.551  1.00  0.00     0.067 C 
HETATM   15  C5  UNL     1      24.378  -0.102  53.395  1.00  0.00    -0.011 C 
BRANCH  15  16
HETATM   16  C3  UNL     1      23.233  -0.714  54.113  1.00  0.00    -0.082 C 
HETATM   17  C2  UNL     1      22.010  -0.746  53.612  1.00  0.00    -0.028 C 
HETATM   18  C1  UNL     1      20.694  -1.227  54.033  1.00  0.00     0.036 C 
HETATM   19  C4  UNL     1      23.317  -1.338  55.482  1.00  0.00     0.043 C 
ENDBRANCH  15  16
BRANCH  15  20
HETATM   20  C17 UNL     1      25.695  -0.739  53.902  1.00  0.00     0.120 C 
BRANCH  20  21
HETATM   21  C18 UNL     1      26.564   0.274  54.513  1.00  0.00     0.140 C 
HETATM   22  O2  UNL     1      26.480   1.540  54.660  1.00  0.00    -0.650 OA
BRANCH  21  23
HETATM   23  O3  UNL     1      27.733  -0.302  55.044  1.00  0.00    -0.776 OA
HETATM   24  H19 UNL     1      27.685  -0.807  55.920  1.00  0.00     0.167 HD
ENDBRANCH  21  23
ENDBRANCH  20  21
ENDBRANCH  15  20
ENDBRANCH   1  14
TORSDOF 5
ENDMDL
MODEL 8
REMARK VINA RESULT:      -8.0      3.631      6.082
REMARK  5 active torsions:
REMARK  status: ('A' for Active; 'I' for Inactive)
REMARK    1  A    between atoms: C3_3  and  C5_5 
REMARK    2  A    between atoms: C5_5  and  C17_19 
REMARK    3  A    between atoms: C6_6  and  C7_7 
REMARK    4  A    between atoms: C17_19  and  C18_20 
REMARK    5  A    between atoms: C18_20  and  O3_22 
ROOT
HETATM    1  C7  UNL     1      24.223   3.052  50.478  1.00  0.00    -0.002 C 
HETATM    2  C8  UNL     1      24.751   2.225  51.394  1.00  0.00     0.042 A 
HETATM    3  C9  UNL     1      26.165   2.160  51.823  1.00  0.00     0.256 A 
HETATM    4  O1  UNL     1      27.148   2.820  51.451  1.00  0.00    -0.267 OA
HETATM    5  N1  UNL     1      26.329   1.156  52.816  1.00  0.00    -0.322 N 
HETATM    6  C10 UNL     1      25.058   0.590  53.025  1.00  0.00     0.046 A 
HETATM    7  C11 UNL     1      24.733  -0.421  53.900  1.00  0.00     0.030 A 
HETATM    8  C12 UNL     1      23.427  -0.844  53.961  1.00  0.00     0.003 A 
HETATM    9  C13 UNL     1      22.519  -0.224  53.139  1.00  0.00     0.007 A 
HETATM   10  C14 UNL     1      22.807   0.808  52.234  1.00  0.00    -0.049 A 
HETATM   11  C15 UNL     1      21.694   1.355  51.427  1.00  0.00     0.049 C 
HETATM   12  C16 UNL     1      24.130   1.192  52.213  1.00  0.00     0.012 A 
HETATM   13  H10 UNL     1      27.231   0.882  53.311  1.00  0.00     0.169 HD
ENDROOT
BRANCH   1  14
HETATM   14  C6  UNL     1      25.225   3.961  49.883  1.00  0.00     0.067 C 
HETATM   15  C5  UNL     1      25.053   5.302  49.610  1.00  0.00    -0.011 C 
BRANCH  15  16
HETATM   16  C3  UNL     1      26.338   5.758  49.025  1.00  0.00    -0.082 C 
HETATM   17  C2  UNL     1      27.337   4.934  48.762  1.00  0.00    -0.028 C 
HETATM   18  C1  UNL     1      28.696   5.035  48.230  1.00  0.00     0.036 C 
HETATM   19  C4  UNL     1      26.662   7.191  48.687  1.00  0.00     0.043 C 
ENDBRANCH  15  16
BRANCH  15  20
HETATM   20  C17 UNL     1      24.079   6.503  49.699  1.00  0.00     0.120 C 
BRANCH  20  21
HETATM   21  C18 UNL     1      23.378   6.513  50.988  1.00  0.00     0.140 C 
HETATM   22  O2  UNL     1      22.152   6.396  51.330  1.00  0.00    -0.650 OA
BRANCH  21  23
HETATM   23  O3  UNL     1      24.272   6.688  52.060  1.00  0.00    -0.776 OA
HETATM   24  H19 UNL     1      24.104   7.427  52.732  1.00  0.00     0.167 HD
ENDBRANCH  21  23
ENDBRANCH  20  21
ENDBRANCH  15  20
ENDBRANCH   1  14
TORSDOF 5
ENDMDL
MODEL 9
REMARK VINA RESULT:      -8.0      2.962      5.528
REMARK  5 active torsions:
REMARK  status: ('A' for Active; 'I' for Inactive)
REMARK    1  A    between atoms: C3_3  and  C5_5 
REMARK    2  A    between atoms: C5_5  and  C17_19 
REMARK    3  A    between atoms: C6_6  and  C7_7 
REMARK    4  A    between atoms: C17_19  and  C18_20 
REMARK    5  A    between atoms: C18_20  and  O3_22 
ROOT
HETATM    1  C7  UNL     1      23.561   1.729  51.360  1.00  0.00    -0.002 C 
HETATM    2  C8  UNL     1      24.065   1.020  52.382  1.00  0.00     0.042 A 
HETATM    3  C9  UNL     1      25.477   0.969  52.817  1.00  0.00     0.256 A 
HETATM    4  O1  UNL     1      26.479   1.539  52.360  1.00  0.00    -0.267 OA
HETATM    5  N1  UNL     1      25.612   0.107  53.940  1.00  0.00    -0.322 N 
HETATM    6  C10 UNL     1      24.324  -0.384  54.223  1.00  0.00     0.046 A 
HETATM    7  C11 UNL     1      23.969  -1.253  55.229  1.00  0.00     0.030 A 
HETATM    8  C12 UNL     1      22.649  -1.621  55.345  1.00  0.00     0.003 A 
HETATM    9  C13 UNL     1      21.759  -1.092  54.444  1.00  0.00     0.007 A 
HETATM   10  C14 UNL     1      22.078  -0.204  53.407  1.00  0.00    -0.049 A 
HETATM   11  C15 UNL     1      20.981   0.262  52.530  1.00  0.00     0.049 C 
HETATM   12  C16 UNL     1      23.413   0.131  53.335  1.00  0.00     0.012 A 
HETATM   13  H10 UNL     1      26.505  -0.125  54.470  1.00  0.00     0.169 HD
ENDROOT
BRANCH   1  14
HETATM   14  C6  UNL     1      24.590   2.514  50.647  1.00  0.00     0.067 C 
HETATM   15  C5  UNL     1      24.541   3.864  50.367  1.00  0.00    -0.011 C 
BRANCH  15  16
HETATM   16  C3  UNL     1      25.800   4.168  49.643  1.00  0.00    -0.082 C 
HETATM   17  C2  UNL     1      26.110   5.383  49.225  1.00  0.00    -0.028 C 
HETATM   18  C1  UNL     1      27.207   6.015  48.493  1.00  0.00     0.036 C 
HETATM   19  C4  UNL     1      26.847   3.145  49.282  1.00  0.00     0.043 C 
ENDBRANCH  15  16
BRANCH  15  20
HETATM   20  C17 UNL     1      23.724   5.169  50.534  1.00  0.00     0.120 C 
BRANCH  20  21
HETATM   21  C18 UNL     1      23.545   5.495  51.954  1.00  0.00     0.140 C 
HETATM   22  O2  UNL     1      22.900   4.951  52.913  1.00  0.00    -0.650 OA
BRANCH  21  23
HETATM   23  O3  UNL     1      24.249   6.661  52.308  1.00  0.00    -0.776 OA
HETATM   24  H19 UNL     1      24.578   6.775  53.258  1.00  0.00     0.167 HD
ENDBRANCH  21  23
ENDBRANCH  20  21
ENDBRANCH  15  20
ENDBRANCH   1  14
TORSDOF 5
ENDMDL
