MODEL 1
REMARK VINA RESULT:      -7.2      0.000      0.000
REMARK  10 active torsions:
REMARK  status: ('A' for Active; 'I' for Inactive)
REMARK    1  A    between atoms: O1_2  and  C2_3 
REMARK    2  A    between atoms: C2_3  and  C3_4 
REMARK    3  A    between atoms: C3_4  and  C4_5 
REMARK    4  A    between atoms: C4_5  and  C5_6 
REMARK    5  A    between atoms: C7_10  and  N3_11 
REMARK    6  A    between atoms: N3_11  and  C8_12 
REMARK    7  A    between atoms: C9_13  and  N4_14 
REMARK    8  A    between atoms: N4_14  and  C10_15 
REMARK    9  A    between atoms: C15_20  and  N5_21 
REMARK   10  A    between atoms: C18_26  and  O2_27 
ROOT
HETATM    1  C5  UNL     1      23.661   0.652  53.180  1.00  0.00     0.091 C 
HETATM    2  N1  UNL     1      23.431   1.907  52.908  1.00  0.00    -0.239 NA
HETATM    3  C6  UNL     1      24.488   2.832  53.266  1.00  0.00     0.236 C 
HETATM    4  N2  UNL     1      23.918   3.931  52.797  1.00  0.00    -0.224 NA
HETATM    5  C7  UNL     1      22.599   3.664  52.204  1.00  0.00     0.135 C 
HETATM    6  C16 UNL     1      21.399   3.491  51.742  1.00  0.00     0.100 C 
HETATM    7  S1  UNL     1      20.455   2.557  50.483  1.00  0.00    -0.105 SA
HETATM    8  P1  UNL     1      19.830   0.717  51.516  1.00  0.00    -0.035 P 
HETATM    9  C17 UNL     1      21.289  -0.067  52.291  1.00  0.00     0.053 C 
HETATM   10  C18 UNL     1      22.507  -0.103  52.823  1.00  0.00     0.095 C 
HETATM   11  H16 UNL     1      18.816   1.113  52.519  1.00  0.00     0.073 HD
ENDROOT
BRANCH   5  12
HETATM   12  N3  UNL     1      23.176   2.922  51.079  1.00  0.00    -0.349 N 
HETATM   13  H9  UNL     1      23.468   2.097  50.542  1.00  0.00     0.167 HD
BRANCH  12  14
HETATM   14  C8  UNL     1      23.715   3.640  49.963  1.00  0.00     0.108 C 
HETATM   15  C9  UNL     1      25.012   3.570  49.885  1.00  0.00     0.131 C 
BRANCH  15  16
HETATM   16  N4  UNL     1      26.199   3.886  49.267  1.00  0.00    -0.262 NA
BRANCH  16  17
HETATM   17  C10 UNL     1      26.761   5.040  48.842  1.00  0.00     0.189 A 
HETATM   18  C11 UNL     1      26.978   6.589  48.418  1.00  0.00     0.132 A 
HETATM   19  C12 UNL     1      28.113   7.089  48.015  1.00  0.00     0.011 A 
HETATM   20  N5  UNL     1      26.862   5.374  48.738  1.00  0.00    -0.342 N 
HETATM   21  C15 UNL     1      28.133   5.238  48.458  1.00  0.00     0.132 A 
HETATM   22  C13 UNL     1      29.498   6.684  47.773  1.00  0.00    -0.003 A 
HETATM   23  C14 UNL     1      29.552   5.398  48.071  1.00  0.00     0.011 A 
ENDBRANCH  16  17
ENDBRANCH  15  16
ENDBRANCH  12  14
ENDBRANCH   5  12
BRANCH   1  24
HETATM   24  C4  UNL     1      24.768  -0.049  53.782  1.00  0.00     0.032 C 
BRANCH  24  25
HETATM   25  C3  UNL     1      25.956  -0.399  54.274  1.00  0.00     0.002 C 
BRANCH  25  26
HETATM   26  C2  UNL     1      27.143   0.399  54.589  1.00  0.00     0.194 C 
BRANCH  26  27
HETATM   27  O1  UNL     1      28.194  -0.429  55.057  1.00  0.00    -0.392 OA
HETATM   28  C1  UNL     1      28.988  -0.641  53.926  1.00  0.00     0.201 C 
ENDBRANCH  26  27
ENDBRANCH  25  26
ENDBRANCH  24  25
ENDBRANCH   1  24
BRANCH  10  29
HETATM   29  O2  UNL     1      22.523  -1.493  53.097  1.00  0.00    -0.358 OA
HETATM   30  H18 UNL     1      22.904  -2.118  52.393  1.00  0.00     0.217 HD
ENDBRANCH  10  29
TORSDOF 10
ENDMDL
MODEL 2
REMARK VINA RESULT:      -6.8      3.562      6.912
REMARK  10 active torsions:
REMARK  status: ('A' for Active; 'I' for Inactive)
REMARK    1  A    between atoms: O1_2  and  C2_3 
REMARK    2  A    between atoms: C2_3  and  C3_4 
REMARK    3  A    between atoms: C3_4  and  C4_5 
REMARK    4  A    between atoms: C4_5  and  C5_6 
REMARK    5  A    between atoms: C7_10  and  N3_11 
REMARK    6  A    between atoms: N3_11  and  C8_12 
REMARK    7  A    between atoms: C9_13  and  N4_14 
REMARK    8  A    between atoms: N4_14  and  C10_15 
REMARK    9  A    between atoms: C15_20  and  N5_21 
REMARK   10  A    between atoms: C18_26  and  O2_27 
ROOT
HETATM    1  C5  UNL     1      24.093   5.895  50.555  1.00  0.00     0.091 C 
HETATM    2  N1  UNL     1      24.264   4.617  50.355  1.00  0.00    -0.239 NA
HETATM    3  C6  UNL     1      25.573   4.227  49.868  1.00  0.00     0.236 C 
HETATM    4  N2  UNL     1      25.364   2.919  49.853  1.00  0.00    -0.224 NA
HETATM    5  C7  UNL     1      24.009   2.566  50.300  1.00  0.00     0.135 C 
HETATM    6  C16 UNL     1      22.801   2.210  50.611  1.00  0.00     0.100 C 
HETATM    7  S1  UNL     1      21.564   2.314  51.956  1.00  0.00    -0.105 SA
HETATM    8  P1  UNL     1      20.424   4.144  51.518  1.00  0.00    -0.035 P 
HETATM    9  C17 UNL     1      21.586   5.536  51.274  1.00  0.00     0.053 C 
HETATM   10  C18 UNL     1      22.747   6.107  50.970  1.00  0.00     0.095 C 
HETATM   11  H16 UNL     1      19.626   3.870  50.303  1.00  0.00     0.073 HD
ENDROOT
BRANCH   5  12
HETATM   12  N3  UNL     1      24.280   2.978  51.680  1.00  0.00    -0.349 N 
HETATM   13  H9  UNL     1      24.333   3.619  52.482  1.00  0.00     0.167 HD
BRANCH  12  14
HETATM   14  C8  UNL     1      24.801   2.024  52.612  1.00  0.00     0.108 C 
HETATM   15  C9  UNL     1      25.960   2.361  53.099  1.00  0.00     0.131 C 
BRANCH  15  16
HETATM   16  N4  UNL     1      27.041   2.115  53.911  1.00  0.00    -0.262 NA
BRANCH  16  17
HETATM   17  C10 UNL     1      28.081   1.253  53.859  1.00  0.00     0.189 A 
HETATM   18  C11 UNL     1      29.570   0.619  53.953  1.00  0.00     0.132 A 
HETATM   19  C12 UNL     1      29.860  -0.623  53.680  1.00  0.00     0.011 A 
HETATM   20  N5  UNL     1      28.393   1.063  53.864  1.00  0.00    -0.342 N 
HETATM   21  C15 UNL     1      28.029  -0.137  53.495  1.00  0.00     0.132 A 
HETATM   22  C13 UNL     1      29.208  -1.862  53.253  1.00  0.00    -0.003 A 
HETATM   23  C14 UNL     1      27.928  -1.564  53.114  1.00  0.00     0.011 A 
ENDBRANCH  16  17
ENDBRANCH  15  16
ENDBRANCH  12  14
ENDBRANCH   5  12
BRANCH   1  24
HETATM   24  C4  UNL     1      24.941   7.050  50.392  1.00  0.00     0.032 C 
BRANCH  24  25
HETATM   25  C3  UNL     1      25.907   7.899  50.044  1.00  0.00     0.002 C 
BRANCH  25  26
HETATM   26  C2  UNL     1      25.982   9.360  50.121  1.00  0.00     0.194 C 
BRANCH  26  27
HETATM   27  O1  UNL     1      27.288   9.777  50.481  1.00  0.00    -0.392 OA
HETATM   28  C1  UNL     1      28.125   9.017  49.659  1.00  0.00     0.201 C 
ENDBRANCH  26  27
ENDBRANCH  25  26
ENDBRANCH  24  25
ENDBRANCH   1  24
BRANCH  10  29
HETATM   29  O2  UNL     1      22.331   7.445  51.182  1.00  0.00    -0.358 OA
HETATM   30  H18 UNL     1      23.044   8.162  51.267  1.00  0.00     0.217 HD
ENDBRANCH  10  29
TORSDOF 10
ENDMDL
MODEL 3
REMARK VINA RESULT:      -6.5      3.551      6.894
REMARK  10 active torsions:
REMARK  status: ('A' for Active; 'I' for Inactive)
REMARK    1  A    between atoms: O1_2  and  C2_3 
REMARK    2  A    between atoms: C2_3  and  C3_4 
REMARK    3  A    between atoms: C3_4  and  C4_5 
REMARK    4  A    between atoms: C4_5  and  C5_6 
REMARK    5  A    between atoms: C7_10  and  N3_11 
REMARK    6  A    between atoms: N3_11  and  C8_12 
REMARK    7  A    between atoms: C9_13  and  N4_14 
REMARK    8  A    between atoms: N4_14  and  C10_15 
REMARK    9  A    between atoms: C15_20  and  N5_21 
REMARK   10  A    between atoms: C18_26  and  O2_27 
ROOT
HETATM    1  C5  UNL     1      24.385   4.266  49.601  1.00  0.00     0.091 C 
HETATM    2  N1  UNL     1      23.233   4.076  49.019  1.00  0.00    -0.239 NA
HETATM    3  C6  UNL     1      22.993   2.736  48.520  1.00  0.00     0.236 C 
HETATM    4  N2  UNL     1      21.761   2.938  48.079  1.00  0.00    -0.224 NA
HETATM    5  C7  UNL     1      21.308   4.319  48.303  1.00  0.00     0.135 C 
HETATM    6  C16 UNL     1      20.894   5.544  48.407  1.00  0.00     0.100 C 
HETATM    7  S1  UNL     1      20.590   6.869  49.632  1.00  0.00    -0.105 SA
HETATM    8  P1  UNL     1      22.485   7.983  49.721  1.00  0.00    -0.035 P 
HETATM    9  C17 UNL     1      23.861   6.814  50.004  1.00  0.00     0.053 C 
HETATM   10  C18 UNL     1      24.479   5.638  49.972  1.00  0.00     0.095 C 
HETATM   11  H16 UNL     1      22.621   8.698  48.433  1.00  0.00     0.073 HD
ENDROOT
BRANCH   5  12
HETATM   12  N3  UNL     1      21.260   4.143  49.757  1.00  0.00    -0.349 N 
HETATM   13  H9  UNL     1      21.596   4.194  50.727  1.00  0.00     0.167 HD
BRANCH  12  14
HETATM   14  C8  UNL     1      20.109   3.536  50.357  1.00  0.00     0.108 C 
HETATM   15  C9  UNL     1      20.382   2.888  51.451  1.00  0.00     0.131 C 
BRANCH  15  16
HETATM   16  N4  UNL     1      19.993   2.121  52.525  1.00  0.00    -0.262 NA
BRANCH  16  17
HETATM   17  C10 UNL     1      20.612   1.198  53.295  1.00  0.00     0.189 A 
HETATM   18  C11 UNL     1      20.914   0.097  54.446  1.00  0.00     0.132 A 
HETATM   19  C12 UNL     1      22.042  -0.545  54.570  1.00  0.00     0.011 A 
HETATM   20  N5  UNL     1      20.729   0.945  53.530  1.00  0.00    -0.342 N 
HETATM   21  C15 UNL     1      21.946   0.690  53.126  1.00  0.00     0.132 A 
HETATM   22  C13 UNL     1      23.353  -0.652  53.929  1.00  0.00    -0.003 A 
HETATM   23  C14 UNL     1      23.325   0.196  52.915  1.00  0.00     0.011 A 
ENDBRANCH  16  17
ENDBRANCH  15  16
ENDBRANCH  12  14
ENDBRANCH   5  12
BRANCH   1  24
HETATM   24  C4  UNL     1      25.518   3.413  49.866  1.00  0.00     0.032 C 
BRANCH  24  25
HETATM   25  C3  UNL     1      26.397   2.572  50.409  1.00  0.00     0.002 C 
BRANCH  25  26
HETATM   26  C2  UNL     1      26.608   2.161  51.799  1.00  0.00     0.194 C 
BRANCH  26  27
HETATM   27  O1  UNL     1      27.944   2.416  52.199  1.00  0.00    -0.392 OA
HETATM   28  C1  UNL     1      27.914   2.275  53.590  1.00  0.00     0.201 C 
ENDBRANCH  26  27
ENDBRANCH  25  26
ENDBRANCH  24  25
ENDBRANCH   1  24
BRANCH  10  29
HETATM   29  O2  UNL     1      25.689   6.072  50.568  1.00  0.00    -0.358 OA
HETATM   30  H18 UNL     1      25.672   6.344  51.547  1.00  0.00     0.217 HD
ENDBRANCH  10  29
TORSDOF 10
ENDMDL
MODEL 4
REMARK VINA RESULT:      -6.5      1.593      1.989
REMARK  10 active torsions:
REMARK  status: ('A' for Active; 'I' for Inactive)
REMARK    1  A    between atoms: O1_2  and  C2_3 
REMARK    2  A    between atoms: C2_3  and  C3_4 
REMARK    3  A    between atoms: C3_4  and  C4_5 
REMARK    4  A    between atoms: C4_5  and  C5_6 
REMARK    5  A    between atoms: C7_10  and  N3_11 
REMARK    6  A    between atoms: N3_11  and  C8_12 
REMARK    7  A    between atoms: C9_13  and  N4_14 
REMARK    8  A    between atoms: N4_14  and  C10_15 
REMARK    9  A    between atoms: C15_20  and  N5_21 
REMARK   10  A    between atoms: C18_26  and  O2_27 
ROOT
HETATM    1  C5  UNL     1      22.787   1.642  52.085  1.00  0.00     0.091 C 
HETATM    2  N1  UNL     1      22.898   2.941  52.103  1.00  0.00    -0.239 NA
HETATM    3  C6  UNL     1      23.855   3.478  53.051  1.00  0.00     0.236 C 
HETATM    4  N2  UNL     1      23.715   4.755  52.729  1.00  0.00    -0.224 NA
HETATM    5  C7  UNL     1      22.728   4.954  51.657  1.00  0.00     0.135 C 
HETATM    6  C16 UNL     1      21.810   5.187  50.771  1.00  0.00     0.100 C 
HETATM    7  S1  UNL     1      21.319   4.781  49.055  1.00  0.00    -0.105 SA
HETATM    8  P1  UNL     1      20.034   3.006  49.255  1.00  0.00    -0.035 P 
HETATM    9  C17 UNL     1      20.900   1.741  50.252  1.00  0.00     0.053 C 
HETATM   10  C18 UNL     1      21.770   1.292  51.150  1.00  0.00     0.095 C 
HETATM   11  H16 UNL     1      18.780   3.457  49.899  1.00  0.00     0.073 HD
ENDROOT
BRANCH   5  12
HETATM   12  N3  UNL     1      23.582   4.311  50.654  1.00  0.00    -0.349 N 
HETATM   13  H9  UNL     1      23.915   3.559  50.038  1.00  0.00     0.167 HD
BRANCH  12  14
HETATM   14  C8  UNL     1      24.676   5.042  50.087  1.00  0.00     0.108 C 
HETATM   15  C9  UNL     1      25.668   4.282  49.725  1.00  0.00     0.131 C 
BRANCH  15  16
HETATM   16  N4  UNL     1      26.922   4.115  49.186  1.00  0.00    -0.262 NA
BRANCH  16  17
HETATM   17  C10 UNL     1      27.842   4.959  48.665  1.00  0.00     0.189 A 
HETATM   18  C11 UNL     1      29.242   5.588  48.144  1.00  0.00     0.132 A 
HETATM   19  C12 UNL     1      29.362   6.770  47.606  1.00  0.00     0.011 A 
HETATM   20  N5  UNL     1      28.127   5.144  48.533  1.00  0.00    -0.342 N 
HETATM   21  C15 UNL     1      27.600   6.270  48.127  1.00  0.00     0.132 A 
HETATM   22  C13 UNL     1      28.543   7.925  47.235  1.00  0.00    -0.003 A 
HETATM   23  C14 UNL     1      27.306   7.614  47.582  1.00  0.00     0.011 A 
ENDBRANCH  16  17
ENDBRANCH  15  16
ENDBRANCH  12  14
ENDBRANCH   5  12
BRANCH   1  24
HETATM   24  C4  UNL     1      23.420   0.579  52.825  1.00  0.00     0.032 C 
BRANCH  24  25
HETATM   25  C3  UNL     1      24.246  -0.371  53.262  1.00  0.00     0.002 C 
BRANCH  25  26
HETATM   26  C2  UNL     1      25.411  -0.305  54.148  1.00  0.00     0.194 C 
BRANCH  26  27
HETATM   27  O1  UNL     1      26.334  -1.336  53.840  1.00  0.00    -0.392 OA
HETATM   28  C1  UNL     1      26.719  -1.064  52.524  1.00  0.00     0.201 C 
ENDBRANCH  26  27
ENDBRANCH  25  26
ENDBRANCH  24  25
ENDBRANCH   1  24
BRANCH  10  29
HETATM   29  O2  UNL     1      21.444  -0.081  51.022  1.00  0.00    -0.358 OA
HETATM   30  H18 UNL     1      20.756  -0.348  50.325  1.00  0.00     0.217 HD
ENDBRANCH  10  29
TORSDOF 10
ENDMDL
MODEL 5
REMARK VINA RESULT:      -6.4      3.413      5.460
REMARK  10 active torsions:
REMARK  status: ('A' for Active; 'I' for Inactive)
REMARK    1  A    between atoms: O1_2  and  C2_3 
REMARK    2  A    between atoms: C2_3  and  C3_4 
REMARK    3  A    between atoms: C3_4  and  C4_5 
REMARK    4  A    between atoms: C4_5  and  C5_6 
REMARK    5  A    between atoms: C7_10  and  N3_11 
REMARK    6  A    between atoms: N3_11  and  C8_12 
REMARK    7  A    between atoms: C9_13  and  N4_14 
REMARK    8  A    between atoms: N4_14  and  C10_15 
REMARK    9  A    between atoms: C15_20  and  N5_21 
REMARK   10  A    between atoms: C18_26  and  O2_27 
ROOT
HETATM    1  C5  UNL     1      20.977   2.537  50.523  1.00  0.00     0.091 C 
HETATM    2  N1  UNL     1      21.586   3.636  50.874  1.00  0.00    -0.239 NA
HETATM    3  C6  UNL     1      21.948   3.736  52.274  1.00  0.00     0.236 C 
HETATM    4  N2  UNL     1      22.563   4.907  52.207  1.00  0.00    -0.224 NA
HETATM    5  C7  UNL     1      22.556   5.463  50.846  1.00  0.00     0.135 C 
HETATM    6  C16 UNL     1      22.506   6.031  49.681  1.00  0.00     0.100 C 
HETATM    7  S1  UNL     1      22.966   5.776  47.928  1.00  0.00    -0.105 SA
HETATM    8  P1  UNL     1      21.203   4.815  47.029  1.00  0.00    -0.035 P 
HETATM    9  C17 UNL     1      20.724   3.367  48.038  1.00  0.00     0.053 C 
HETATM   10  C18 UNL     1      20.643   2.631  49.142  1.00  0.00     0.095 C 
HETATM   11  H16 UNL     1      20.135   5.837  46.984  1.00  0.00     0.073 HD
ENDROOT
BRANCH   5  12
HETATM   12  N3  UNL     1      23.465   4.430  50.343  1.00  0.00    -0.349 N 
HETATM   13  H9  UNL     1      23.739   3.565  49.861  1.00  0.00     0.167 HD
BRANCH  12  14
HETATM   14  C8  UNL     1      24.870   4.541  50.601  1.00  0.00     0.108 C 
HETATM   15  C9  UNL     1      25.450   3.391  50.787  1.00  0.00     0.131 C 
BRANCH  15  16
HETATM   16  N4  UNL     1      26.569   2.637  51.051  1.00  0.00    -0.262 NA
BRANCH  16  17
HETATM   17  C10 UNL     1      26.791   1.487  51.728  1.00  0.00     0.189 A 
HETATM   18  C11 UNL     1      26.720  -0.057  52.218  1.00  0.00     0.132 A 
HETATM   19  C12 UNL     1      27.439  -0.554  53.185  1.00  0.00     0.011 A 
HETATM   20  N5  UNL     1      26.814   1.154  51.874  1.00  0.00    -0.342 N 
HETATM   21  C15 UNL     1      27.721   1.289  52.806  1.00  0.00     0.132 A 
HETATM   22  C13 UNL     1      28.467  -0.151  54.146  1.00  0.00    -0.003 A 
HETATM   23  C14 UNL     1      28.691   1.131  53.913  1.00  0.00     0.011 A 
ENDBRANCH  16  17
ENDBRANCH  15  16
ENDBRANCH  12  14
ENDBRANCH   5  12
BRANCH   1  24
HETATM   24  C4  UNL     1      20.563   1.357  51.241  1.00  0.00     0.032 C 
BRANCH  24  25
HETATM   25  C3  UNL     1      20.489   0.307  52.058  1.00  0.00     0.002 C 
BRANCH  25  26
HETATM   26  C2  UNL     1      20.385   0.224  53.517  1.00  0.00     0.194 C 
BRANCH  26  27
HETATM   27  O1  UNL     1      20.684  -1.087  53.966  1.00  0.00    -0.392 OA
HETATM   28  C1  UNL     1      22.075  -1.172  53.862  1.00  0.00     0.201 C 
ENDBRANCH  26  27
ENDBRANCH  25  26
ENDBRANCH  24  25
ENDBRANCH   1  24
BRANCH  10  29
HETATM   29  O2  UNL     1      19.914   1.559  48.571  1.00  0.00    -0.358 OA
HETATM   30  H18 UNL     1      20.102   0.618  48.905  1.00  0.00     0.217 HD
ENDBRANCH  10  29
TORSDOF 10
ENDMDL
MODEL 6
REMARK VINA RESULT:      -6.4      3.458      4.293
REMARK  10 active torsions:
REMARK  status: ('A' for Active; 'I' for Inactive)
REMARK    1  A    between atoms: O1_2  and  C2_3 
REMARK    2  A    between atoms: C2_3  and  C3_4 
REMARK    3  A    between atoms: C3_4  and  C4_5 
REMARK    4  A    between atoms: C4_5  and  C5_6 
REMARK    5  A    between atoms: C7_10  and  N3_11 
REMARK    6  A    between atoms: N3_11  and  C8_12 
REMARK    7  A    between atoms: C9_13  and  N4_14 
REMARK    8  A    between atoms: N4_14  and  C10_15 
REMARK    9  A    between atoms: C15_20  and  N5_21 
REMARK   10  A    between atoms: C18_26  and  O2_27 
ROOT
HETATM    1  C5  UNL     1      24.729   1.433  52.724  1.00  0.00     0.091 C 
HETATM    2  N1  UNL     1      23.638   2.116  52.517  1.00  0.00    -0.239 NA
HETATM    3  C6  UNL     1      23.818   3.424  51.917  1.00  0.00     0.236 C 
HETATM    4  N2  UNL     1      22.536   3.746  51.825  1.00  0.00    -0.224 NA
HETATM    5  C7  UNL     1      21.657   2.688  52.347  1.00  0.00     0.135 C 
HETATM    6  C16 UNL     1      20.846   1.820  52.868  1.00  0.00     0.100 C 
HETATM    7  S1  UNL     1      20.334   0.067  52.750  1.00  0.00    -0.105 SA
HETATM    8  P1  UNL     1      21.646  -0.987  54.168  1.00  0.00    -0.035 P 
HETATM    9  C17 UNL     1      23.387  -0.548  53.822  1.00  0.00     0.053 C 
HETATM   10  C18 UNL     1      24.379   0.212  53.368  1.00  0.00     0.095 C 
HETATM   11  H16 UNL     1      21.229  -0.572  55.525  1.00  0.00     0.073 HD
ENDROOT
BRANCH   5  12
HETATM   12  N3  UNL     1      21.988   1.774  51.251  1.00  0.00    -0.349 N 
HETATM   13  H9  UNL     1      22.495   1.023  50.766  1.00  0.00     0.167 HD
BRANCH  12  14
HETATM   14  C8  UNL     1      21.246   1.843  50.027  1.00  0.00     0.108 C 
HETATM   15  C9  UNL     1      21.970   2.199  49.007  1.00  0.00     0.131 C 
BRANCH  15  16
HETATM   16  N4  UNL     1      22.105   2.487  47.669  1.00  0.00    -0.262 NA
BRANCH  16  17
HETATM   17  C10 UNL     1      22.040   3.624  46.940  1.00  0.00     0.189 A 
HETATM   18  C11 UNL     1      22.201   5.165  46.461  1.00  0.00     0.132 A 
HETATM   19  C12 UNL     1      21.784   5.625  45.314  1.00  0.00     0.011 A 
HETATM   20  N5  UNL     1      22.051   3.955  46.786  1.00  0.00    -0.342 N 
HETATM   21  C15 UNL     1      21.475   3.773  45.626  1.00  0.00     0.132 A 
HETATM   22  C13 UNL     1      21.115   5.170  44.095  1.00  0.00    -0.003 A 
HETATM   23  C14 UNL     1      20.883   3.881  44.274  1.00  0.00     0.011 A 
ENDBRANCH  16  17
ENDBRANCH  15  16
ENDBRANCH  12  14
ENDBRANCH   5  12
BRANCH   1  24
HETATM   24  C4  UNL     1      26.127   1.696  52.487  1.00  0.00     0.032 C 
BRANCH  24  25
HETATM   25  C3  UNL     1      27.405   2.057  52.593  1.00  0.00     0.002 C 
BRANCH  25  26
HETATM   26  C2  UNL     1      28.332   2.005  53.726  1.00  0.00     0.194 C 
BRANCH  26  27
HETATM   27  O1  UNL     1      27.857   1.114  54.722  1.00  0.00    -0.392 OA
HETATM   28  C1  UNL     1      28.713   0.014  54.628  1.00  0.00     0.201 C 
ENDBRANCH  26  27
ENDBRANCH  25  26
ENDBRANCH  24  25
ENDBRANCH   1  24
BRANCH  10  29
HETATM   29  O2  UNL     1      25.434  -0.656  53.743  1.00  0.00    -0.358 OA
HETATM   30  H18 UNL     1      25.281  -1.293  54.519  1.00  0.00     0.217 HD
ENDBRANCH  10  29
TORSDOF 10
ENDMDL
MODEL 7
REMARK VINA RESULT:      -6.3     22.461     24.196
REMARK  10 active torsions:
REMARK  status: ('A' for Active; 'I' for Inactive)
REMARK    1  A    between atoms: O1_2  and  C2_3 
REMARK    2  A    between atoms: C2_3  and  C3_4 
REMARK    3  A    between atoms: C3_4  and  C4_5 
REMARK    4  A    between atoms: C4_5  and  C5_6 
REMARK    5  A    between atoms: C7_10  and  N3_11 
REMARK    6  A    between atoms: N3_11  and  C8_12 
REMARK    7  A    between atoms: C9_13  and  N4_14 
REMARK    8  A    between atoms: N4_14  and  C10_15 
REMARK    9  A    between atoms: C15_20  and  N5_21 
REMARK   10  A    between atoms: C18_26  and  O2_27 
ROOT
HETATM    1  C5  UNL     1      40.405   0.114  68.324  1.00  0.00     0.091 C 
HETATM    2  N1  UNL     1      41.640   0.070  68.742  1.00  0.00    -0.239 NA
HETATM    3  C6  UNL     1      42.519  -0.823  68.015  1.00  0.00     0.236 C 
HETATM    4  N2  UNL     1      43.631  -0.544  68.679  1.00  0.00    -0.224 NA
HETATM    5  C7  UNL     1      43.412   0.453  69.738  1.00  0.00     0.135 C 
HETATM    6  C16 UNL     1      43.253   1.268  70.734  1.00  0.00     0.100 C 
HETATM    7  S1  UNL     1      42.676   2.956  71.142  1.00  0.00    -0.105 SA
HETATM    8  P1  UNL     1      40.535   2.714  71.590  1.00  0.00    -0.035 P 
HETATM    9  C17 UNL     1      39.729   1.811  70.220  1.00  0.00     0.053 C 
HETATM   10  C18 UNL     1      39.672   0.985  69.180  1.00  0.00     0.095 C 
HETATM   11  H16 UNL     1      40.447   1.975  72.869  1.00  0.00     0.073 HD
ENDROOT
BRANCH   5  12
HETATM   12  N3  UNL     1      43.162   1.527  68.773  1.00  0.00    -0.349 N 
HETATM   13  H9  UNL     1      42.606   2.192  68.221  1.00  0.00     0.167 HD
BRANCH  12  14
HETATM   14  C8  UNL     1      44.265   2.122  68.078  1.00  0.00     0.108 C 
HETATM   15  C9  UNL     1      44.111   3.395  67.864  1.00  0.00     0.131 C 
BRANCH  15  16
HETATM   16  N4  UNL     1      44.559   4.594  67.359  1.00  0.00    -0.262 NA
BRANCH  16  17
HETATM   17  C10 UNL     1      45.087   4.978  66.175  1.00  0.00     0.189 A 
HETATM   18  C11 UNL     1      45.905   4.980  64.775  1.00  0.00     0.132 A 
HETATM   19  C12 UNL     1      45.937   5.984  63.944  1.00  0.00     0.011 A 
HETATM   20  N5  UNL     1      45.252   5.029  65.854  1.00  0.00    -0.342 N 
HETATM   21  C15 UNL     1      44.894   6.241  65.516  1.00  0.00     0.132 A 
HETATM   22  C13 UNL     1      45.401   7.338  63.794  1.00  0.00    -0.003 A 
HETATM   23  C14 UNL     1      44.667   7.554  64.872  1.00  0.00     0.011 A 
ENDBRANCH  16  17
ENDBRANCH  15  16
ENDBRANCH  12  14
ENDBRANCH   5  12
BRANCH   1  24
HETATM   24  C4  UNL     1      39.690  -0.555  67.266  1.00  0.00     0.032 C 
BRANCH  24  25
HETATM   25  C3  UNL     1      38.919  -1.372  66.548  1.00  0.00     0.002 C 
BRANCH  25  26
HETATM   26  C2  UNL     1      38.647  -2.805  66.680  1.00  0.00     0.194 C 
BRANCH  26  27
HETATM   27  O1  UNL     1      37.265  -3.036  66.896  1.00  0.00    -0.392 OA
HETATM   28  C1  UNL     1      37.210  -3.581  68.182  1.00  0.00     0.201 C 
ENDBRANCH  26  27
ENDBRANCH  25  26
ENDBRANCH  24  25
ENDBRANCH   1  24
BRANCH  10  29
HETATM   29  O2  UNL     1      38.283   1.126  68.936  1.00  0.00    -0.358 OA
HETATM   30  H18 UNL     1      37.634   0.749  69.621  1.00  0.00     0.217 HD
ENDBRANCH  10  29
TORSDOF 10
ENDMDL
MODEL 8
REMARK VINA RESULT:      -6.2      2.958      3.795
REMARK  10 active torsions:
REMARK  status: ('A' for Active; 'I' for Inactive)
REMARK    1  A    between atoms: O1_2  and  C2_3 
REMARK    2  A    between atoms: C2_3  and  C3_4 
REMARK    3  A    between atoms: C3_4  and  C4_5 
REMARK    4  A    between atoms: C4_5  and  C5_6 
REMARK    5  A    between atoms: C7_10  and  N3_11 
REMARK    6  A    between atoms: N3_11  and  C8_12 
REMARK    7  A    between atoms: C9_13  and  N4_14 
REMARK    8  A    between atoms: N4_14  and  C10_15 
REMARK    9  A    between atoms: C15_20  and  N5_21 
REMARK   10  A    between atoms: C18_26  and  O2_27 
ROOT
HETATM    1  C5  UNL     1      22.671   2.584  50.795  1.00  0.00     0.091 C 
HETATM    2  N1  UNL     1      22.917   3.859  50.917  1.00  0.00    -0.239 NA
HETATM    3  C6  UNL     1      23.454   4.275  52.198  1.00  0.00     0.236 C 
HETATM    4  N2  UNL     1      23.611   5.558  51.906  1.00  0.00    -0.224 NA
HETATM    5  C7  UNL     1      23.184   5.874  50.535  1.00  0.00     0.135 C 
HETATM    6  C16 UNL     1      22.747   6.216  49.362  1.00  0.00     0.100 C 
HETATM    7  S1  UNL     1      22.963   5.863  47.579  1.00  0.00    -0.105 SA
HETATM    8  P1  UNL     1      21.510   4.267  47.153  1.00  0.00    -0.035 P 
HETATM    9  C17 UNL     1      21.732   2.909  48.357  1.00  0.00     0.053 C 
HETATM   10  C18 UNL     1      22.096   2.360  49.511  1.00  0.00     0.095 C 
HETATM   11  H16 UNL     1      20.165   4.877  47.248  1.00  0.00     0.073 HD
ENDROOT
BRANCH   5  12
HETATM   12  N3  UNL     1      24.293   5.122  49.941  1.00  0.00    -0.349 N 
HETATM   13  H9  UNL     1      24.764   4.321  49.501  1.00  0.00     0.167 HD
BRANCH  12  14
HETATM   14  C8  UNL     1      25.586   5.731  49.843  1.00  0.00     0.108 C 
HETATM   15  C9  UNL     1      26.457   4.989  49.224  1.00  0.00     0.131 C 
BRANCH  15  16
HETATM   16  N4  UNL     1      27.726   4.773  48.741  1.00  0.00    -0.262 NA
BRANCH  16  17
HETATM   17  C10 UNL     1      28.703   5.579  48.266  1.00  0.00     0.189 A 
HETATM   18  C11 UNL     1      29.518   6.884  47.755  1.00  0.00     0.132 A 
HETATM   19  C12 UNL     1      30.761   6.867  47.364  1.00  0.00     0.011 A 
HETATM   20  N5  UNL     1      28.929   5.839  48.145  1.00  0.00    -0.342 N 
HETATM   21  C15 UNL     1      30.045   5.195  47.921  1.00  0.00     0.132 A 
HETATM   22  C13 UNL     1      31.877   5.934  47.198  1.00  0.00    -0.003 A 
HETATM   23  C14 UNL     1      31.415   4.755  47.578  1.00  0.00     0.011 A 
ENDBRANCH  16  17
ENDBRANCH  15  16
ENDBRANCH  12  14
ENDBRANCH   5  12
BRANCH   1  24
HETATM   24  C4  UNL     1      22.813   1.454  51.680  1.00  0.00     0.032 C 
BRANCH  24  25
HETATM   25  C3  UNL     1      22.659   0.543  52.640  1.00  0.00     0.002 C 
BRANCH  25  26
HETATM   26  C2  UNL     1      21.457   0.049  53.318  1.00  0.00     0.194 C 
BRANCH  26  27
HETATM   27  O1  UNL     1      21.762  -0.366  54.638  1.00  0.00    -0.392 OA
HETATM   28  C1  UNL     1      21.789  -1.761  54.557  1.00  0.00     0.201 C 
ENDBRANCH  26  27
ENDBRANCH  25  26
ENDBRANCH  24  25
ENDBRANCH   1  24
BRANCH  10  29
HETATM   29  O2  UNL     1      21.692   1.038  49.197  1.00  0.00    -0.358 OA
HETATM   30  H18 UNL     1      22.235   0.267  49.573  1.00  0.00     0.217 HD
ENDBRANCH  10  29
TORSDOF 10
ENDMDL
MODEL 9
REMARK VINA RESULT:      -6.2      4.818      8.517
REMARK  10 active torsions:
REMARK  status: ('A' for Active; 'I' for Inactive)
REMARK    1  A    between atoms: O1_2  and  C2_3 
REMARK    2  A    between atoms: C2_3  and  C3_4 
REMARK    3  A    between atoms: C3_4  and  C4_5 
REMARK    4  A    between atoms: C4_5  and  C5_6 
REMARK    5  A    between atoms: C7_10  and  N3_11 
REMARK    6  A    between atoms: N3_11  and  C8_12 
REMARK    7  A    between atoms: C9_13  and  N4_14 
REMARK    8  A    between atoms: N4_14  and  C10_15 
REMARK    9  A    between atoms: C15_20  and  N5_21 
REMARK   10  A    between atoms: C18_26  and  O2_27 
ROOT
HETATM    1  C5  UNL     1      22.973   2.832  51.713  1.00  0.00     0.091 C 
HETATM    2  N1  UNL     1      22.160   2.712  50.700  1.00  0.00    -0.239 NA
HETATM    3  C6  UNL     1      21.835   1.353  50.312  1.00  0.00     0.236 C 
HETATM    4  N2  UNL     1      20.986   1.653  49.341  1.00  0.00    -0.224 NA
HETATM    5  C7  UNL     1      20.828   3.105  49.167  1.00  0.00     0.135 C 
HETATM    6  C16 UNL     1      20.717   4.374  48.923  1.00  0.00     0.100 C 
HETATM    7  S1  UNL     1      20.258   5.963  49.709  1.00  0.00    -0.105 SA
HETATM    8  P1  UNL     1      22.151   6.747  50.510  1.00  0.00    -0.035 P 
HETATM    9  C17 UNL     1      22.959   5.458  51.525  1.00  0.00     0.053 C 
HETATM   10  C18 UNL     1      23.231   4.218  51.918  1.00  0.00     0.095 C 
HETATM   11  H16 UNL     1      22.979   7.137  49.348  1.00  0.00     0.073 HD
ENDROOT
BRANCH   5  12
HETATM   12  N3  UNL     1      20.138   3.255  50.451  1.00  0.00    -0.349 N 
HETATM   13  H9  UNL     1      20.040   3.464  51.452  1.00  0.00     0.167 HD
BRANCH  12  14
HETATM   14  C8  UNL     1      18.738   2.968  50.537  1.00  0.00     0.108 C 
HETATM   15  C9  UNL     1      18.141   3.607  51.500  1.00  0.00     0.131 C 
BRANCH  15  16
HETATM   16  N4  UNL     1      17.012   3.911  52.225  1.00  0.00    -0.262 NA
BRANCH  16  17
HETATM   17  C10 UNL     1      15.697   4.003  51.924  1.00  0.00     0.189 A 
HETATM   18  C11 UNL     1      14.297   4.037  51.107  1.00  0.00     0.132 A 
HETATM   19  C12 UNL     1      13.127   4.202  51.660  1.00  0.00     0.011 A 
HETATM   20  N5  UNL     1      15.358   4.018  51.789  1.00  0.00    -0.342 N 
HETATM   21  C15 UNL     1      14.613   4.195  52.849  1.00  0.00     0.132 A 
HETATM   22  C13 UNL     1      12.523   4.393  52.980  1.00  0.00    -0.003 A 
HETATM   23  C14 UNL     1      13.529   4.393  53.837  1.00  0.00     0.011 A 
ENDBRANCH  16  17
ENDBRANCH  15  16
ENDBRANCH  12  14
ENDBRANCH   5  12
BRANCH   1  24
HETATM   24  C4  UNL     1      23.650   1.884  52.562  1.00  0.00     0.032 C 
BRANCH  24  25
HETATM   25  C3  UNL     1      24.482   0.976  53.071  1.00  0.00     0.002 C 
BRANCH  25  26
HETATM   26  C2  UNL     1      24.238  -0.370  53.595  1.00  0.00     0.194 C 
BRANCH  26  27
HETATM   27  O1  UNL     1      25.446  -0.957  54.050  1.00  0.00    -0.392 OA
HETATM   28  C1  UNL     1      26.157   0.113  54.600  1.00  0.00     0.201 C 
ENDBRANCH  26  27
ENDBRANCH  25  26
ENDBRANCH  24  25
ENDBRANCH   1  24
BRANCH  10  29
HETATM   29  O2  UNL     1      24.148   4.568  52.940  1.00  0.00    -0.358 OA
HETATM   30  H18 UNL     1      24.973   5.102  52.684  1.00  0.00     0.217 HD
ENDBRANCH  10  29
TORSDOF 10
ENDMDL
