MODEL 1
REMARK VINA RESULT:      -7.0      0.000      0.000
REMARK  9 active torsions:
REMARK  status: ('A' for Active; 'I' for Inactive)
REMARK    1  A    between atoms: O1_2  and  C2_3 
REMARK    2  A    between atoms: C5_6  and  C6_7 
REMARK    3  A    between atoms: C6_7  and  C7_8 
REMARK    4  A    between atoms: C7_8  and  C8_9 
REMARK    5  A    between atoms: C8_9  and  N1_10 
REMARK    6  A    between atoms: N1_10  and  C9_11 
REMARK    7  A    between atoms: N1_10  and  C12_17 
REMARK    8  A    between atoms: C9_11  and  S1_12 
REMARK    9  A    between atoms: S1_12  and  C10_13 
ROOT
HETATM    1  N1  UNL     1      25.249   0.870  53.416  1.00  0.00    -0.372 N 
ENDROOT
BRANCH   1   2
HETATM    2  C8  UNL     1      24.764  -0.492  53.492  1.00  0.00     0.124 C 
BRANCH   2   3
HETATM    3  C7  UNL     1      23.382  -0.606  54.100  1.00  0.00     0.024 C 
BRANCH   3   4
HETATM    4  C6  UNL     1      22.360  -1.015  53.059  1.00  0.00     0.040 C 
BRANCH   4   5
HETATM    5  C5  UNL     1      21.637   0.142  52.498  1.00  0.00    -0.058 A 
HETATM    6  C4  UNL     1      21.098   1.155  53.254  1.00  0.00     0.010 A 
HETATM    7  C3  UNL     1      20.421   2.215  52.668  1.00  0.00     0.037 A 
HETATM    8  C2  UNL     1      20.287   2.253  51.290  1.00  0.00     0.068 A 
HETATM    9  C20 UNL     1      20.820   1.253  50.529  1.00  0.00     0.037 A 
HETATM   10  C19 UNL     1      21.497   0.195  51.132  1.00  0.00     0.010 A 
BRANCH   8  11
HETATM   11  O1  UNL     1      19.600   3.337  50.741  1.00  0.00    -0.356 OA
HETATM   12  C1  UNL     1      18.307   3.144  50.181  1.00  0.00     0.210 C 
ENDBRANCH   8  11
ENDBRANCH   4   5
ENDBRANCH   3   4
ENDBRANCH   2   3
ENDBRANCH   1   2
BRANCH   1  13
HETATM   13  C9  UNL     1      26.417   0.893  54.252  1.00  0.00     0.201 C 
BRANCH  13  14
HETATM   14  S1  UNL     1      27.956   0.968  53.294  1.00  0.00    -0.117 SA
BRANCH  14  15
HETATM   15  C10 UNL     1      28.792  -0.589  53.544  1.00  0.00     0.106 C 
HETATM   16  C11 UNL     1      28.373  -1.788  53.186  1.00  0.00     0.196 A 
HETATM   17  N2  UNL     1      28.715  -3.158  53.201  1.00  0.00    -0.235 N 
HETATM   18  O2  UNL     1      27.532  -2.781  52.632  1.00  0.00    -0.215 OA
HETATM   19  H15 UNL     1      29.144  -4.085  53.316  1.00  0.00     0.197 HD
ENDBRANCH  14  15
ENDBRANCH  13  14
ENDBRANCH   1  13
BRANCH   1  20
HETATM   20  C12 UNL     1      24.693   1.949  52.672  1.00  0.00     0.030 A 
HETATM   21  C13 UNL     1      24.180   3.091  53.215  1.00  0.00     0.030 A 
HETATM   22  C14 UNL     1      23.657   4.103  52.466  1.00  0.00     0.009 A 
HETATM   23  C15 UNL     1      23.613   4.032  51.077  1.00  0.00    -0.062 A 
HETATM   24  C16 UNL     1      23.044   5.132  50.273  1.00  0.00     0.048 C 
HETATM   25  C17 UNL     1      24.130   2.879  50.524  1.00  0.00     0.009 A 
HETATM   26  C18 UNL     1      24.653   1.874  51.308  1.00  0.00     0.030 A 
ENDBRANCH   1  20
TORSDOF 9
ENDMDL
MODEL 2
REMARK VINA RESULT:      -6.9      1.813      2.335
REMARK  9 active torsions:
REMARK  status: ('A' for Active; 'I' for Inactive)
REMARK    1  A    between atoms: O1_2  and  C2_3 
REMARK    2  A    between atoms: C5_6  and  C6_7 
REMARK    3  A    between atoms: C6_7  and  C7_8 
REMARK    4  A    between atoms: C7_8  and  C8_9 
REMARK    5  A    between atoms: C8_9  and  N1_10 
REMARK    6  A    between atoms: N1_10  and  C9_11 
REMARK    7  A    between atoms: N1_10  and  C12_17 
REMARK    8  A    between atoms: C9_11  and  S1_12 
REMARK    9  A    between atoms: S1_12  and  C10_13 
ROOT
HETATM    1  N1  UNL     1      25.278   0.717  52.361  1.00  0.00    -0.372 N 
ENDROOT
BRANCH   1   2
HETATM    2  C8  UNL     1      24.820  -0.411  53.144  1.00  0.00     0.124 C 
BRANCH   2   3
HETATM    3  C7  UNL     1      23.474  -0.184  53.798  1.00  0.00     0.024 C 
BRANCH   3   4
HETATM    4  C6  UNL     1      22.360  -0.814  52.988  1.00  0.00     0.040 C 
BRANCH   4   5
HETATM    5  C5  UNL     1      21.508   0.193  52.327  1.00  0.00    -0.058 A 
HETATM    6  C4  UNL     1      21.197   0.180  50.988  1.00  0.00     0.010 A 
HETATM    7  C3  UNL     1      20.396   1.160  50.422  1.00  0.00     0.037 A 
HETATM    8  C2  UNL     1      19.898   2.174  51.224  1.00  0.00     0.068 A 
HETATM    9  C20 UNL     1      20.200   2.197  52.555  1.00  0.00     0.037 A 
HETATM   10  C19 UNL     1      21.007   1.204  53.109  1.00  0.00     0.010 A 
BRANCH   8  11
HETATM   11  O1  UNL     1      19.096   3.140  50.613  1.00  0.00    -0.356 OA
HETATM   12  C1  UNL     1      18.096   3.811  51.371  1.00  0.00     0.210 C 
ENDBRANCH   8  11
ENDBRANCH   4   5
ENDBRANCH   3   4
ENDBRANCH   2   3
ENDBRANCH   1   2
BRANCH   1  13
HETATM   13  C9  UNL     1      26.598   0.355  51.928  1.00  0.00     0.201 C 
BRANCH  13  14
HETATM   14  S1  UNL     1      27.389  -0.844  53.037  1.00  0.00    -0.117 SA
BRANCH  14  15
HETATM   15  C10 UNL     1      28.762  -0.003  53.807  1.00  0.00     0.106 C 
HETATM   16  C11 UNL     1      28.860   1.285  54.077  1.00  0.00     0.196 A 
HETATM   17  N2  UNL     1      29.713   2.262  54.635  1.00  0.00    -0.235 N 
HETATM   18  O2  UNL     1      28.497   2.650  54.150  1.00  0.00    -0.215 OA
HETATM   19  H15 UNL     1      30.469   2.804  55.072  1.00  0.00     0.197 HD
ENDBRANCH  14  15
ENDBRANCH  13  14
ENDBRANCH   1  13
BRANCH   1  20
HETATM   20  C12 UNL     1      24.571   1.920  52.078  1.00  0.00     0.030 A 
HETATM   21  C13 UNL     1      24.054   2.254  50.860  1.00  0.00     0.030 A 
HETATM   22  C14 UNL     1      23.381   3.418  50.630  1.00  0.00     0.009 A 
HETATM   23  C15 UNL     1      23.178   4.353  51.640  1.00  0.00    -0.062 A 
HETATM   24  C16 UNL     1      22.449   5.611  51.383  1.00  0.00     0.048 C 
HETATM   25  C17 UNL     1      23.700   4.019  52.872  1.00  0.00     0.009 A 
HETATM   26  C18 UNL     1      24.375   2.834  53.074  1.00  0.00     0.030 A 
ENDBRANCH   1  20
TORSDOF 9
ENDMDL
MODEL 3
REMARK VINA RESULT:      -6.8      3.874      6.448
REMARK  9 active torsions:
REMARK  status: ('A' for Active; 'I' for Inactive)
REMARK    1  A    between atoms: O1_2  and  C2_3 
REMARK    2  A    between atoms: C5_6  and  C6_7 
REMARK    3  A    between atoms: C6_7  and  C7_8 
REMARK    4  A    between atoms: C7_8  and  C8_9 
REMARK    5  A    between atoms: C8_9  and  N1_10 
REMARK    6  A    between atoms: N1_10  and  C9_11 
REMARK    7  A    between atoms: N1_10  and  C12_17 
REMARK    8  A    between atoms: C9_11  and  S1_12 
REMARK    9  A    between atoms: S1_12  and  C10_13 
ROOT
HETATM    1  N1  UNL     1      25.748   1.550  52.106  1.00  0.00    -0.372 N 
ENDROOT
BRANCH   1   2
HETATM    2  C8  UNL     1      25.872   2.902  51.603  1.00  0.00     0.124 C 
BRANCH   2   3
HETATM    3  C7  UNL     1      26.286   2.968  50.148  1.00  0.00     0.024 C 
BRANCH   3   4
HETATM    4  C6  UNL     1      25.607   4.124  49.440  1.00  0.00     0.040 C 
BRANCH   4   5
HETATM    5  C5  UNL     1      26.567   5.155  49.003  1.00  0.00    -0.058 A 
HETATM    6  C4  UNL     1      26.272   6.495  48.915  1.00  0.00     0.010 A 
HETATM    7  C3  UNL     1      27.216   7.418  48.489  1.00  0.00     0.037 A 
HETATM    8  C2  UNL     1      28.485   6.979  48.146  1.00  0.00     0.068 A 
HETATM    9  C20 UNL     1      28.789   5.651  48.231  1.00  0.00     0.037 A 
HETATM   10  C19 UNL     1      27.829   4.736  48.660  1.00  0.00     0.010 A 
BRANCH   8  11
HETATM   11  O1  UNL     1      29.404   7.941  47.723  1.00  0.00    -0.356 OA
HETATM   12  C1  UNL     1      30.408   7.591  46.778  1.00  0.00     0.210 C 
ENDBRANCH   8  11
ENDBRANCH   4   5
ENDBRANCH   3   4
ENDBRANCH   2   3
ENDBRANCH   1   2
BRANCH   1  13
HETATM   13  C9  UNL     1      27.033   0.952  51.877  1.00  0.00     0.201 C 
BRANCH  13  14
HETATM   14  S1  UNL     1      28.124   1.077  53.322  1.00  0.00    -0.117 SA
BRANCH  14  15
HETATM   15  C10 UNL     1      28.937  -0.503  53.489  1.00  0.00     0.106 C 
HETATM   16  C11 UNL     1      28.433  -1.693  53.221  1.00  0.00     0.196 A 
HETATM   17  N2  UNL     1      28.730  -3.074  53.220  1.00  0.00    -0.235 N 
HETATM   18  O2  UNL     1      27.492  -2.667  52.814  1.00  0.00    -0.215 OA
HETATM   19  H15 UNL     1      29.141  -4.013  53.295  1.00  0.00     0.197 HD
ENDBRANCH  14  15
ENDBRANCH  13  14
ENDBRANCH   1  13
BRANCH   1  20
HETATM   20  C12 UNL     1      24.603   0.948  52.701  1.00  0.00     0.030 A 
HETATM   21  C13 UNL     1      23.316   1.357  52.508  1.00  0.00     0.030 A 
HETATM   22  C14 UNL     1      22.245   0.752  53.097  1.00  0.00     0.009 A 
HETATM   23  C15 UNL     1      22.403  -0.340  53.946  1.00  0.00    -0.062 A 
HETATM   24  C16 UNL     1      21.238  -0.990  54.580  1.00  0.00     0.048 C 
HETATM   25  C17 UNL     1      23.702  -0.755  54.144  1.00  0.00     0.009 A 
HETATM   26  C18 UNL     1      24.764  -0.123  53.534  1.00  0.00     0.030 A 
ENDBRANCH   1  20
TORSDOF 9
ENDMDL
MODEL 4
REMARK VINA RESULT:      -6.6      3.749      6.674
REMARK  9 active torsions:
REMARK  status: ('A' for Active; 'I' for Inactive)
REMARK    1  A    between atoms: O1_2  and  C2_3 
REMARK    2  A    between atoms: C5_6  and  C6_7 
REMARK    3  A    between atoms: C6_7  and  C7_8 
REMARK    4  A    between atoms: C7_8  and  C8_9 
REMARK    5  A    between atoms: C8_9  and  N1_10 
REMARK    6  A    between atoms: N1_10  and  C9_11 
REMARK    7  A    between atoms: N1_10  and  C12_17 
REMARK    8  A    between atoms: C9_11  and  S1_12 
REMARK    9  A    between atoms: S1_12  and  C10_13 
ROOT
HETATM    1  N1  UNL     1      24.923   1.463  52.310  1.00  0.00    -0.372 N 
ENDROOT
BRANCH   1   2
HETATM    2  C8  UNL     1      24.578   2.110  51.061  1.00  0.00     0.124 C 
BRANCH   2   3
HETATM    3  C7  UNL     1      25.308   3.418  50.839  1.00  0.00     0.024 C 
BRANCH   3   4
HETATM    4  C6  UNL     1      26.199   3.344  49.616  1.00  0.00     0.040 C 
BRANCH   4   5
HETATM    5  C5  UNL     1      26.610   4.678  49.140  1.00  0.00    -0.058 A 
HETATM    6  C4  UNL     1      25.801   5.789  49.167  1.00  0.00     0.010 A 
HETATM    7  C3  UNL     1      26.242   7.018  48.696  1.00  0.00     0.037 A 
HETATM    8  C2  UNL     1      27.526   7.127  48.189  1.00  0.00     0.068 A 
HETATM    9  C20 UNL     1      28.339   6.030  48.158  1.00  0.00     0.037 A 
HETATM   10  C19 UNL     1      27.881   4.802  48.634  1.00  0.00     0.010 A 
BRANCH   8  11
HETATM   11  O1  UNL     1      27.930   8.381  47.727  1.00  0.00    -0.356 OA
HETATM   12  C1  UNL     1      26.959   9.304  47.249  1.00  0.00     0.210 C 
ENDBRANCH   8  11
ENDBRANCH   4   5
ENDBRANCH   3   4
ENDBRANCH   2   3
ENDBRANCH   1   2
BRANCH   1  13
HETATM   13  C9  UNL     1      23.712   1.480  53.081  1.00  0.00     0.201 C 
BRANCH  13  14
HETATM   14  S1  UNL     1      22.844  -0.113  53.047  1.00  0.00    -0.117 SA
BRANCH  14  15
HETATM   15  C10 UNL     1      23.137  -0.891  54.627  1.00  0.00     0.106 C 
HETATM   16  C11 UNL     1      24.283  -0.974  55.276  1.00  0.00     0.196 A 
HETATM   17  N2  UNL     1      24.882  -1.467  56.456  1.00  0.00    -0.235 N 
HETATM   18  O2  UNL     1      25.660  -0.805  55.550  1.00  0.00    -0.215 OA
HETATM   19  H15 UNL     1      25.116  -1.898  57.359  1.00  0.00     0.197 HD
ENDBRANCH  14  15
ENDBRANCH  13  14
ENDBRANCH   1  13
BRANCH   1  20
HETATM   20  C12 UNL     1      26.185   0.923  52.687  1.00  0.00     0.030 A 
HETATM   21  C13 UNL     1      27.134   1.587  53.408  1.00  0.00     0.030 A 
HETATM   22  C14 UNL     1      28.332   1.033  53.751  1.00  0.00     0.009 A 
HETATM   23  C15 UNL     1      28.666  -0.265  53.379  1.00  0.00    -0.062 A 
HETATM   24  C16 UNL     1      29.966  -0.858  53.754  1.00  0.00     0.048 C 
HETATM   25  C17 UNL     1      27.710  -0.939  52.650  1.00  0.00     0.009 A 
HETATM   26  C18 UNL     1      26.507  -0.352  52.319  1.00  0.00     0.030 A 
ENDBRANCH   1  20
TORSDOF 9
ENDMDL
MODEL 5
REMARK VINA RESULT:      -6.6      3.557      5.995
REMARK  9 active torsions:
REMARK  status: ('A' for Active; 'I' for Inactive)
REMARK    1  A    between atoms: O1_2  and  C2_3 
REMARK    2  A    between atoms: C5_6  and  C6_7 
REMARK    3  A    between atoms: C6_7  and  C7_8 
REMARK    4  A    between atoms: C7_8  and  C8_9 
REMARK    5  A    between atoms: C8_9  and  N1_10 
REMARK    6  A    between atoms: N1_10  and  C9_11 
REMARK    7  A    between atoms: N1_10  and  C12_17 
REMARK    8  A    between atoms: C9_11  and  S1_12 
REMARK    9  A    between atoms: S1_12  and  C10_13 
ROOT
HETATM    1  N1  UNL     1      24.310   0.862  52.771  1.00  0.00    -0.372 N 
ENDROOT
BRANCH   1   2
HETATM    2  C8  UNL     1      24.884   2.186  52.661  1.00  0.00     0.124 C 
BRANCH   2   3
HETATM    3  C7  UNL     1      25.512   2.460  51.310  1.00  0.00     0.024 C 
BRANCH   3   4
HETATM    4  C6  UNL     1      24.739   3.522  50.555  1.00  0.00     0.040 C 
BRANCH   4   5
HETATM    5  C5  UNL     1      25.625   4.450  49.827  1.00  0.00    -0.058 A 
HETATM    6  C4  UNL     1      25.335   5.774  49.600  1.00  0.00     0.010 A 
HETATM    7  C3  UNL     1      26.206   6.597  48.901  1.00  0.00     0.037 A 
HETATM    8  C2  UNL     1      27.396   6.071  48.422  1.00  0.00     0.068 A 
HETATM    9  C20 UNL     1      27.694   4.758  48.643  1.00  0.00     0.037 A 
HETATM   10  C19 UNL     1      26.808   3.944  49.347  1.00  0.00     0.010 A 
BRANCH   8  11
HETATM   11  O1  UNL     1      28.244   6.933  47.725  1.00  0.00    -0.356 OA
HETATM   12  C1  UNL     1      29.649   6.718  47.753  1.00  0.00     0.210 C 
ENDBRANCH   8  11
ENDBRANCH   4   5
ENDBRANCH   3   4
ENDBRANCH   2   3
ENDBRANCH   1   2
BRANCH   1  13
HETATM   13  C9  UNL     1      25.437  -0.023  52.868  1.00  0.00     0.201 C 
BRANCH  13  14
HETATM   14  S1  UNL     1      25.983  -0.267  54.581  1.00  0.00    -0.117 SA
BRANCH  14  15
HETATM   15  C10 UNL     1      27.717   0.153  54.632  1.00  0.00     0.106 C 
HETATM   16  C11 UNL     1      28.261   1.333  54.399  1.00  0.00     0.196 A 
HETATM   17  N2  UNL     1      29.493   2.020  54.343  1.00  0.00    -0.235 N 
HETATM   18  O2  UNL     1      28.344   2.708  54.080  1.00  0.00    -0.215 OA
HETATM   19  H15 UNL     1      30.474   2.325  54.354  1.00  0.00     0.197 HD
ENDBRANCH  14  15
ENDBRANCH  13  14
ENDBRANCH   1  13
BRANCH   1  20
HETATM   20  C12 UNL     1      22.929   0.513  52.786  1.00  0.00     0.030 A 
HETATM   21  C13 UNL     1      22.281  -0.066  53.837  1.00  0.00     0.030 A 
HETATM   22  C14 UNL     1      20.955  -0.384  53.812  1.00  0.00     0.009 A 
HETATM   23  C15 UNL     1      20.168  -0.133  52.692  1.00  0.00    -0.062 A 
HETATM   24  C16 UNL     1      18.733  -0.480  52.672  1.00  0.00     0.048 C 
HETATM   25  C17 UNL     1      20.821   0.452  51.627  1.00  0.00     0.009 A 
HETATM   26  C18 UNL     1      22.162   0.762  51.683  1.00  0.00     0.030 A 
ENDBRANCH   1  20
TORSDOF 9
ENDMDL
MODEL 6
REMARK VINA RESULT:      -6.4      3.614      7.044
REMARK  9 active torsions:
REMARK  status: ('A' for Active; 'I' for Inactive)
REMARK    1  A    between atoms: O1_2  and  C2_3 
REMARK    2  A    between atoms: C5_6  and  C6_7 
REMARK    3  A    between atoms: C6_7  and  C7_8 
REMARK    4  A    between atoms: C7_8  and  C8_9 
REMARK    5  A    between atoms: C8_9  and  N1_10 
REMARK    6  A    between atoms: N1_10  and  C9_11 
REMARK    7  A    between atoms: N1_10  and  C12_17 
REMARK    8  A    between atoms: C9_11  and  S1_12 
REMARK    9  A    between atoms: S1_12  and  C10_13 
ROOT
HETATM    1  N1  UNL     1      24.570   0.455  53.200  1.00  0.00    -0.372 N 
ENDROOT
BRANCH   1   2
HETATM    2  C8  UNL     1      24.066   1.712  52.689  1.00  0.00     0.124 C 
BRANCH   2   3
HETATM    3  C7  UNL     1      25.082   2.481  51.872  1.00  0.00     0.024 C 
BRANCH   3   4
HETATM    4  C6  UNL     1      24.478   2.974  50.573  1.00  0.00     0.040 C 
BRANCH   4   5
HETATM    5  C5  UNL     1      25.360   3.925  49.869  1.00  0.00    -0.058 A 
HETATM    6  C4  UNL     1      26.650   3.643  49.490  1.00  0.00     0.010 A 
HETATM    7  C3  UNL     1      27.434   4.583  48.836  1.00  0.00     0.037 A 
HETATM    8  C2  UNL     1      26.904   5.832  48.560  1.00  0.00     0.068 A 
HETATM    9  C20 UNL     1      25.623   6.123  48.931  1.00  0.00     0.037 A 
HETATM   10  C19 UNL     1      24.847   5.168  49.587  1.00  0.00     0.010 A 
BRANCH   8  11
HETATM   11  O1  UNL     1      27.726   6.748  47.901  1.00  0.00    -0.356 OA
HETATM   12  C1  UNL     1      29.135   6.549  47.885  1.00  0.00     0.210 C 
ENDBRANCH   8  11
ENDBRANCH   4   5
ENDBRANCH   3   4
ENDBRANCH   2   3
ENDBRANCH   1   2
BRANCH   1  13
HETATM   13  C9  UNL     1      23.399  -0.333  53.464  1.00  0.00     0.201 C 
BRANCH  13  14
HETATM   14  S1  UNL     1      21.862   0.591  53.186  1.00  0.00    -0.117 SA
BRANCH  14  15
HETATM   15  C10 UNL     1      20.554  -0.344  53.960  1.00  0.00     0.106 C 
HETATM   16  C11 UNL     1      19.400  -0.697  53.427  1.00  0.00     0.196 A 
HETATM   17  N2  UNL     1      18.194  -1.384  53.689  1.00  0.00    -0.235 N 
HETATM   18  O2  UNL     1      18.374  -0.817  52.460  1.00  0.00    -0.215 OA
HETATM   19  H15 UNL     1      17.406  -1.916  54.078  1.00  0.00     0.197 HD
ENDBRANCH  14  15
ENDBRANCH  13  14
ENDBRANCH   1  13
BRANCH   1  20
HETATM   20  C12 UNL     1      25.930   0.080  53.394  1.00  0.00     0.030 A 
HETATM   21  C13 UNL     1      26.751   0.590  54.357  1.00  0.00     0.030 A 
HETATM   22  C14 UNL     1      28.050   0.204  54.511  1.00  0.00     0.009 A 
HETATM   23  C15 UNL     1      28.628  -0.750  53.679  1.00  0.00    -0.062 A 
HETATM   24  C16 UNL     1      30.035  -1.163  53.852  1.00  0.00     0.048 C 
HETATM   25  C17 UNL     1      27.801  -1.267  52.704  1.00  0.00     0.009 A 
HETATM   26  C18 UNL     1      26.492  -0.857  52.574  1.00  0.00     0.030 A 
ENDBRANCH   1  20
TORSDOF 9
ENDMDL
MODEL 7
REMARK VINA RESULT:      -6.3      1.452      3.772
REMARK  9 active torsions:
REMARK  status: ('A' for Active; 'I' for Inactive)
REMARK    1  A    between atoms: O1_2  and  C2_3 
REMARK    2  A    between atoms: C5_6  and  C6_7 
REMARK    3  A    between atoms: C6_7  and  C7_8 
REMARK    4  A    between atoms: C7_8  and  C8_9 
REMARK    5  A    between atoms: C8_9  and  N1_10 
REMARK    6  A    between atoms: N1_10  and  C9_11 
REMARK    7  A    between atoms: N1_10  and  C12_17 
REMARK    8  A    between atoms: C9_11  and  S1_12 
REMARK    9  A    between atoms: S1_12  and  C10_13 
ROOT
HETATM    1  N1  UNL     1      25.605   1.498  52.065  1.00  0.00    -0.372 N 
ENDROOT
BRANCH   1   2
HETATM    2  C8  UNL     1      25.864   2.857  51.640  1.00  0.00     0.124 C 
BRANCH   2   3
HETATM    3  C7  UNL     1      26.233   2.970  50.176  1.00  0.00     0.024 C 
BRANCH   3   4
HETATM    4  C6  UNL     1      25.436   4.064  49.494  1.00  0.00     0.040 C 
BRANCH   4   5
HETATM    5  C5  UNL     1      23.987   3.783  49.491  1.00  0.00    -0.058 A 
HETATM    6  C4  UNL     1      23.411   2.713  48.849  1.00  0.00     0.010 A 
HETATM    7  C3  UNL     1      22.039   2.506  48.876  1.00  0.00     0.037 A 
HETATM    8  C2  UNL     1      21.234   3.398  49.566  1.00  0.00     0.068 A 
HETATM    9  C20 UNL     1      21.796   4.464  50.207  1.00  0.00     0.037 A 
HETATM   10  C19 UNL     1      23.176   4.658  50.171  1.00  0.00     0.010 A 
BRANCH   8  11
HETATM   11  O1  UNL     1      19.859   3.153  49.567  1.00  0.00    -0.356 OA
HETATM   12  C1  UNL     1      19.380   1.814  49.545  1.00  0.00     0.210 C 
ENDBRANCH   8  11
ENDBRANCH   4   5
ENDBRANCH   3   4
ENDBRANCH   2   3
ENDBRANCH   1   2
BRANCH   1  13
HETATM   13  C9  UNL     1      26.846   0.805  51.861  1.00  0.00     0.201 C 
BRANCH  13  14
HETATM   14  S1  UNL     1      28.007   1.038  53.237  1.00  0.00    -0.117 SA
BRANCH  14  15
HETATM   15  C10 UNL     1      28.848  -0.520  53.467  1.00  0.00     0.106 C 
HETATM   16  C11 UNL     1      28.381  -1.726  53.205  1.00  0.00     0.196 A 
HETATM   17  N2  UNL     1      28.709  -3.099  53.244  1.00  0.00    -0.235 N 
HETATM   18  O2  UNL     1      27.478  -2.729  52.784  1.00  0.00    -0.215 OA
HETATM   19  H15 UNL     1      29.138  -4.027  53.354  1.00  0.00     0.197 HD
ENDBRANCH  14  15
ENDBRANCH  13  14
ENDBRANCH   1  13
BRANCH   1  20
HETATM   20  C12 UNL     1      24.388   0.967  52.579  1.00  0.00     0.030 A 
HETATM   21  C13 UNL     1      24.279  -0.200  53.278  1.00  0.00     0.030 A 
HETATM   22  C14 UNL     1      23.093  -0.675  53.755  1.00  0.00     0.009 A 
HETATM   23  C15 UNL     1      21.901   0.013  53.555  1.00  0.00    -0.062 A 
HETATM   24  C16 UNL     1      20.620  -0.508  54.074  1.00  0.00     0.048 C 
HETATM   25  C17 UNL     1      22.007   1.192  52.848  1.00  0.00     0.009 A 
HETATM   26  C18 UNL     1      23.221   1.647  52.379  1.00  0.00     0.030 A 
ENDBRANCH   1  20
TORSDOF 9
ENDMDL
MODEL 8
REMARK VINA RESULT:      -6.3      4.663      7.815
REMARK  9 active torsions:
REMARK  status: ('A' for Active; 'I' for Inactive)
REMARK    1  A    between atoms: O1_2  and  C2_3 
REMARK    2  A    between atoms: C5_6  and  C6_7 
REMARK    3  A    between atoms: C6_7  and  C7_8 
REMARK    4  A    between atoms: C7_8  and  C8_9 
REMARK    5  A    between atoms: C8_9  and  N1_10 
REMARK    6  A    between atoms: N1_10  and  C9_11 
REMARK    7  A    between atoms: N1_10  and  C12_17 
REMARK    8  A    between atoms: C9_11  and  S1_12 
REMARK    9  A    between atoms: S1_12  and  C10_13 
ROOT
HETATM    1  N1  UNL     1      25.459   2.417  51.958  1.00  0.00    -0.372 N 
ENDROOT
BRANCH   1   2
HETATM    2  C8  UNL     1      25.194   2.844  50.600  1.00  0.00     0.124 C 
BRANCH   2   3
HETATM    3  C7  UNL     1      26.380   3.513  49.938  1.00  0.00     0.024 C 
BRANCH   3   4
HETATM    4  C6  UNL     1      25.949   4.734  49.151  1.00  0.00     0.040 C 
BRANCH   4   5
HETATM    5  C5  UNL     1      27.095   5.553  48.712  1.00  0.00    -0.058 A 
HETATM    6  C4  UNL     1      28.344   5.047  48.439  1.00  0.00     0.010 A 
HETATM    7  C3  UNL     1      29.386   5.869  48.036  1.00  0.00     0.037 A 
HETATM    8  C2  UNL     1      29.162   7.230  47.906  1.00  0.00     0.068 A 
HETATM    9  C20 UNL     1      27.926   7.743  48.173  1.00  0.00     0.037 A 
HETATM   10  C19 UNL     1      26.889   6.904  48.577  1.00  0.00     0.010 A 
BRANCH   8  11
HETATM   11  O1  UNL     1      30.238   8.021  47.498  1.00  0.00    -0.356 OA
HETATM   12  C1  UNL     1      31.569   7.601  47.773  1.00  0.00     0.210 C 
ENDBRANCH   8  11
ENDBRANCH   4   5
ENDBRANCH   3   4
ENDBRANCH   2   3
ENDBRANCH   1   2
BRANCH   1  13
HETATM   13  C9  UNL     1      24.435   3.042  52.748  1.00  0.00     0.201 C 
BRANCH  13  14
HETATM   14  S1  UNL     1      22.793   2.333  52.444  1.00  0.00    -0.117 SA
BRANCH  14  15
HETATM   15  C10 UNL     1      22.808   0.689  53.138  1.00  0.00     0.106 C 
HETATM   16  C11 UNL     1      21.958   0.181  54.011  1.00  0.00     0.196 A 
HETATM   17  N2  UNL     1      21.652  -0.985  54.746  1.00  0.00    -0.235 N 
HETATM   18  O2  UNL     1      20.854   0.113  54.891  1.00  0.00    -0.215 OA
HETATM   19  H15 UNL     1      21.607  -1.915  55.181  1.00  0.00     0.197 HD
ENDBRANCH  14  15
ENDBRANCH  13  14
ENDBRANCH   1  13
BRANCH   1  20
HETATM   20  C12 UNL     1      26.502   1.560  52.410  1.00  0.00     0.030 A 
HETATM   21  C13 UNL     1      26.497   0.200  52.302  1.00  0.00     0.030 A 
HETATM   22  C14 UNL     1      27.517  -0.587  52.747  1.00  0.00     0.009 A 
HETATM   23  C15 UNL     1      28.647  -0.042  53.350  1.00  0.00    -0.062 A 
HETATM   24  C16 UNL     1      29.748  -0.900  53.830  1.00  0.00     0.048 C 
HETATM   25  C17 UNL     1      28.655   1.333  53.461  1.00  0.00     0.009 A 
HETATM   26  C18 UNL     1      27.607   2.101  53.001  1.00  0.00     0.030 A 
ENDBRANCH   1  20
TORSDOF 9
ENDMDL
MODEL 9
REMARK VINA RESULT:      -6.2      3.608      5.969
REMARK  9 active torsions:
REMARK  status: ('A' for Active; 'I' for Inactive)
REMARK    1  A    between atoms: O1_2  and  C2_3 
REMARK    2  A    between atoms: C5_6  and  C6_7 
REMARK    3  A    between atoms: C6_7  and  C7_8 
REMARK    4  A    between atoms: C7_8  and  C8_9 
REMARK    5  A    between atoms: C8_9  and  N1_10 
REMARK    6  A    between atoms: N1_10  and  C9_11 
REMARK    7  A    between atoms: N1_10  and  C12_17 
REMARK    8  A    between atoms: C9_11  and  S1_12 
REMARK    9  A    between atoms: S1_12  and  C10_13 
ROOT
HETATM    1  N1  UNL     1      22.473   3.643  50.289  1.00  0.00    -0.372 N 
ENDROOT
BRANCH   1   2
HETATM    2  C8  UNL     1      21.185   3.050  49.995  1.00  0.00     0.124 C 
BRANCH   2   3
HETATM    3  C7  UNL     1      21.160   1.547  50.168  1.00  0.00     0.024 C 
BRANCH   3   4
HETATM    4  C6  UNL     1      20.202   1.140  51.270  1.00  0.00     0.040 C 
BRANCH   4   5
HETATM    5  C5  UNL     1      20.890   0.484  52.398  1.00  0.00    -0.058 A 
HETATM    6  C4  UNL     1      20.432   0.497  53.694  1.00  0.00     0.010 A 
HETATM    7  C3  UNL     1      21.128  -0.133  54.715  1.00  0.00     0.037 A 
HETATM    8  C2  UNL     1      22.312  -0.790  54.421  1.00  0.00     0.068 A 
HETATM    9  C20 UNL     1      22.776  -0.811  53.137  1.00  0.00     0.037 A 
HETATM   10  C19 UNL     1      22.065  -0.173  52.122  1.00  0.00     0.010 A 
BRANCH   8  11
HETATM   11  O1  UNL     1      22.981  -1.411  55.478  1.00  0.00    -0.356 OA
HETATM   12  C1  UNL     1      24.376  -1.199  55.652  1.00  0.00     0.210 C 
ENDBRANCH   8  11
ENDBRANCH   4   5
ENDBRANCH   3   4
ENDBRANCH   2   3
ENDBRANCH   1   2
BRANCH   1  13
HETATM   13  C9  UNL     1      22.541   4.810  49.456  1.00  0.00     0.201 C 
BRANCH  13  14
HETATM   14  S1  UNL     1      22.062   6.322  50.337  1.00  0.00    -0.117 SA
BRANCH  14  15
HETATM   15  C10 UNL     1      23.557   7.004  51.035  1.00  0.00     0.106 C 
HETATM   16  C11 UNL     1      24.774   6.945  50.530  1.00  0.00     0.196 A 
HETATM   17  N2  UNL     1      26.114   7.329  50.758  1.00  0.00    -0.235 N 
HETATM   18  O2  UNL     1      25.815   6.625  49.627  1.00  0.00    -0.215 OA
HETATM   19  H15 UNL     1      27.008   7.697  51.107  1.00  0.00     0.197 HD
ENDBRANCH  14  15
ENDBRANCH  13  14
ENDBRANCH   1  13
BRANCH   1  20
HETATM   20  C12 UNL     1      23.454   3.173  51.208  1.00  0.00     0.030 A 
HETATM   21  C13 UNL     1      23.431   3.392  52.555  1.00  0.00     0.030 A 
HETATM   22  C14 UNL     1      24.391   2.924  53.402  1.00  0.00     0.009 A 
HETATM   23  C15 UNL     1      25.472   2.181  52.938  1.00  0.00    -0.062 A 
HETATM   24  C16 UNL     1      26.508   1.677  53.862  1.00  0.00     0.048 C 
HETATM   25  C17 UNL     1      25.498   1.958  51.577  1.00  0.00     0.009 A 
HETATM   26  C18 UNL     1      24.513   2.444  50.746  1.00  0.00     0.030 A 
ENDBRANCH   1  20
TORSDOF 9
ENDMDL
