MODEL 1
REMARK VINA RESULT:      -8.8      0.000      0.000
REMARK  4 active torsions:
REMARK  status: ('A' for Active; 'I' for Inactive)
REMARK    1  A    between atoms: C7_7  and  N1_8 
REMARK    2  A    between atoms: N1_8  and  C8_9 
REMARK    3  A    between atoms: C12_15  and  O1_16 
REMARK    4  A    between atoms: O1_16  and  C13_17 
ROOT
HETATM    1  C1  UNL     1      28.864  -2.921  53.131  1.00  0.00     0.018 C 
HETATM    2  C2  UNL     1      28.569  -1.737  53.166  1.00  0.00    -0.078 C 
HETATM    3  C3  UNL     1      28.231  -0.335  53.197  1.00  0.00     0.019 A 
HETATM    4  C4  UNL     1      29.093   0.602  53.761  1.00  0.00     0.021 A 
HETATM    5  C5  UNL     1      28.719   1.928  53.761  1.00  0.00     0.004 A 
HETATM    6  C6  UNL     1      27.518   2.313  53.214  1.00  0.00     0.029 A 
HETATM    7  C7  UNL     1      26.622   1.427  52.642  1.00  0.00     0.035 A 
HETATM    8  C22 UNL     1      27.054   0.116  52.673  1.00  0.00     0.050 A 
ENDROOT
BRANCH   7   9
HETATM    9  N1  UNL     1      25.375   1.785  52.066  1.00  0.00    -0.340 N 
HETATM   10  H5  UNL     1      25.413   2.402  51.237  1.00  0.00     0.167 HD
BRANCH   9  11
HETATM   11  C8  UNL     1      24.125   1.369  52.535  1.00  0.00     0.138 C 
HETATM   12  N2  UNL     1      23.697   0.413  53.353  1.00  0.00    -0.224 NA
HETATM   13  C9  UNL     1      22.896  -0.552  52.875  1.00  0.00     0.234 C 
HETATM   14  N3  UNL     1      22.504  -0.852  54.104  1.00  0.00    -0.254 NA
HETATM   15  C10 UNL     1      21.503  -0.229  54.749  1.00  0.00     0.121 C 
HETATM   16  C11 UNL     1      20.588   0.506  54.018  1.00  0.00     0.059 C 
HETATM   17  C12 UNL     1      20.375   0.468  52.657  1.00  0.00     0.106 C 
HETATM   18  C16 UNL     1      20.688   1.180  51.548  1.00  0.00     0.136 C 
HETATM   19  C17 UNL     1      21.846   1.878  51.317  1.00  0.00     0.114 C 
HETATM   20  O3  UNL     1      19.720   1.180  50.579  1.00  0.00    -0.344 OA
HETATM   21  C18 UNL     1      22.975   2.048  52.110  1.00  0.00     0.020 C 
HETATM   22  O2  UNL     1      22.075   2.580  50.147  1.00  0.00    -0.345 OA
HETATM   23  C19 UNL     1      23.054   3.385  52.754  1.00  0.00     0.055 C 
HETATM   24  C20 UNL     1      21.030   2.665  49.190  1.00  0.00     0.202 C 
HETATM   25  C21 UNL     1      20.113   1.464  49.228  1.00  0.00     0.202 C 
BRANCH  17  26
HETATM   26  O1  UNL     1      19.650  -0.668  52.772  1.00  0.00    -0.344 OA
BRANCH  26  27
HETATM   27  C13 UNL     1      18.354  -0.906  53.169  1.00  0.00     0.121 C 
HETATM   28  C14 UNL     1      17.350  -0.641  52.039  1.00  0.00     0.040 C 
HETATM   29  C15 UNL     1      18.112  -2.298  53.713  1.00  0.00     0.040 C 
ENDBRANCH  26  27
ENDBRANCH  17  26
ENDBRANCH   9  11
ENDBRANCH   7   9
TORSDOF 4
ENDMDL
MODEL 2
REMARK VINA RESULT:      -8.7      3.738      6.642
REMARK  4 active torsions:
REMARK  status: ('A' for Active; 'I' for Inactive)
REMARK    1  A    between atoms: C7_7  and  N1_8 
REMARK    2  A    between atoms: N1_8  and  C8_9 
REMARK    3  A    between atoms: C12_15  and  O1_16 
REMARK    4  A    between atoms: O1_16  and  C13_17 
ROOT
HETATM    1  C1  UNL     1      29.403   6.301  47.956  1.00  0.00     0.018 C 
HETATM    2  C2  UNL     1      28.197   6.291  48.142  1.00  0.00    -0.078 C 
HETATM    3  C3  UNL     1      26.769   6.276  48.349  1.00  0.00     0.019 A 
HETATM    4  C4  UNL     1      25.958   7.290  47.846  1.00  0.00     0.021 A 
HETATM    5  C5  UNL     1      24.600   7.223  48.072  1.00  0.00     0.004 A 
HETATM    6  C6  UNL     1      24.062   6.174  48.780  1.00  0.00     0.029 A 
HETATM    7  C7  UNL     1      24.820   5.141  49.303  1.00  0.00     0.035 A 
HETATM    8  C22 UNL     1      26.169   5.266  49.043  1.00  0.00     0.050 A 
ENDROOT
BRANCH   7   9
HETATM    9  N1  UNL     1      24.302   4.041  50.037  1.00  0.00    -0.340 N 
HETATM   10  H5  UNL     1      23.349   3.731  49.786  1.00  0.00     0.167 HD
BRANCH   9  11
HETATM   11  C8  UNL     1      24.981   3.365  51.055  1.00  0.00     0.138 C 
HETATM   12  N2  UNL     1      26.257   3.111  51.330  1.00  0.00    -0.224 NA
HETATM   13  C9  UNL     1      26.684   1.839  51.357  1.00  0.00     0.234 C 
HETATM   14  N3  UNL     1      27.750   2.200  52.055  1.00  0.00    -0.254 NA
HETATM   15  C10 UNL     1      27.769   2.321  53.393  1.00  0.00     0.121 C 
HETATM   16  C11 UNL     1      26.775   1.709  54.137  1.00  0.00     0.059 C 
HETATM   17  C12 UNL     1      25.898   0.732  53.723  1.00  0.00     0.106 C 
HETATM   18  C16 UNL     1      24.611   0.611  53.315  1.00  0.00     0.136 C 
HETATM   19  C17 UNL     1      23.889   1.525  52.590  1.00  0.00     0.114 C 
HETATM   20  O3  UNL     1      24.003  -0.559  53.686  1.00  0.00    -0.344 OA
HETATM   21  C18 UNL     1      24.246   2.772  52.091  1.00  0.00     0.020 C 
HETATM   22  O2  UNL     1      22.573   1.312  52.220  1.00  0.00    -0.345 OA
HETATM   23  C19 UNL     1      23.689   3.908  52.870  1.00  0.00     0.055 C 
HETATM   24  C20 UNL     1      21.913   0.148  52.693  1.00  0.00     0.202 C 
HETATM   25  C21 UNL     1      22.866  -1.001  52.928  1.00  0.00     0.202 C 
BRANCH  17  26
HETATM   26  O1  UNL     1      26.846  -0.222  53.864  1.00  0.00    -0.344 OA
BRANCH  26  27
HETATM   27  C13 UNL     1      27.545  -0.978  52.951  1.00  0.00     0.121 C 
HETATM   28  C14 UNL     1      28.961  -1.307  53.442  1.00  0.00     0.040 C 
HETATM   29  C15 UNL     1      26.860  -2.268  52.552  1.00  0.00     0.040 C 
ENDBRANCH  26  27
ENDBRANCH  17  26
ENDBRANCH   9  11
ENDBRANCH   7   9
TORSDOF 4
ENDMDL
MODEL 3
REMARK VINA RESULT:      -8.4      4.715      6.890
REMARK  4 active torsions:
REMARK  status: ('A' for Active; 'I' for Inactive)
REMARK    1  A    between atoms: C7_7  and  N1_8 
REMARK    2  A    between atoms: N1_8  and  C8_9 
REMARK    3  A    between atoms: C12_15  and  O1_16 
REMARK    4  A    between atoms: O1_16  and  C13_17 
ROOT
HETATM    1  C1  UNL     1      29.587   8.594  46.082  1.00  0.00     0.018 C 
HETATM    2  C2  UNL     1      28.542   8.215  46.586  1.00  0.00    -0.078 C 
HETATM    3  C3  UNL     1      27.304   7.759  47.171  1.00  0.00     0.019 A 
HETATM    4  C4  UNL     1      26.075   8.101  46.613  1.00  0.00     0.021 A 
HETATM    5  C5  UNL     1      24.925   7.635  47.213  1.00  0.00     0.004 A 
HETATM    6  C6  UNL     1      24.996   6.848  48.338  1.00  0.00     0.029 A 
HETATM    7  C7  UNL     1      26.188   6.478  48.935  1.00  0.00     0.035 A 
HETATM    8  C22 UNL     1      27.301   6.975  48.289  1.00  0.00     0.050 A 
ENDROOT
BRANCH   7   9
HETATM    9  N1  UNL     1      26.302   5.667  50.094  1.00  0.00    -0.340 N 
HETATM   10  H5  UNL     1      27.101   5.868  50.719  1.00  0.00     0.167 HD
BRANCH   9  11
HETATM   11  C8  UNL     1      25.426   4.633  50.440  1.00  0.00     0.138 C 
HETATM   12  N2  UNL     1      24.111   4.529  50.608  1.00  0.00    -0.224 NA
HETATM   13  C9  UNL     1      23.626   4.206  51.817  1.00  0.00     0.234 C 
HETATM   14  N3  UNL     1      22.474   3.848  51.271  1.00  0.00    -0.254 NA
HETATM   15  C10 UNL     1      22.230   2.630  50.757  1.00  0.00     0.121 C 
HETATM   16  C11 UNL     1      23.050   1.574  51.113  1.00  0.00     0.059 C 
HETATM   17  C12 UNL     1      23.938   1.519  52.165  1.00  0.00     0.106 C 
HETATM   18  C16 UNL     1      25.269   1.636  52.394  1.00  0.00     0.136 C 
HETATM   19  C17 UNL     1      26.148   2.455  51.733  1.00  0.00     0.114 C 
HETATM   20  O3  UNL     1      25.747   0.835  53.397  1.00  0.00    -0.344 OA
HETATM   21  C18 UNL     1      25.943   3.355  50.694  1.00  0.00     0.020 C 
HETATM   22  O2  UNL     1      27.496   2.505  52.039  1.00  0.00    -0.345 OA
HETATM   23  C19 UNL     1      26.411   2.857  49.374  1.00  0.00     0.055 C 
HETATM   24  C20 UNL     1      28.008   1.600  53.006  1.00  0.00     0.202 C 
HETATM   25  C21 UNL     1      26.975   1.212  54.038  1.00  0.00     0.202 C 
BRANCH  17  26
HETATM   26  O1  UNL     1      22.935   1.276  53.039  1.00  0.00    -0.344 OA
BRANCH  26  27
HETATM   27  C13 UNL     1      22.163   0.162  53.280  1.00  0.00     0.121 C 
HETATM   28  C14 UNL     1      22.841  -0.807  54.257  1.00  0.00     0.040 C 
HETATM   29  C15 UNL     1      20.770   0.466  53.789  1.00  0.00     0.040 C 
ENDBRANCH  26  27
ENDBRANCH  17  26
ENDBRANCH   9  11
ENDBRANCH   7   9
TORSDOF 4
ENDMDL
MODEL 4
REMARK VINA RESULT:      -8.2      4.233      6.950
REMARK  4 active torsions:
REMARK  status: ('A' for Active; 'I' for Inactive)
REMARK    1  A    between atoms: C7_7  and  N1_8 
REMARK    2  A    between atoms: N1_8  and  C8_9 
REMARK    3  A    between atoms: C12_15  and  O1_16 
REMARK    4  A    between atoms: O1_16  and  C13_17 
ROOT
HETATM    1  C1  UNL     1      22.118   7.599  46.336  1.00  0.00     0.018 C 
HETATM    2  C2  UNL     1      23.253   7.500  46.774  1.00  0.00    -0.078 C 
HETATM    3  C3  UNL     1      24.594   7.396  47.297  1.00  0.00     0.019 A 
HETATM    4  C4  UNL     1      25.651   8.087  46.712  1.00  0.00     0.021 A 
HETATM    5  C5  UNL     1      26.910   7.952  47.255  1.00  0.00     0.004 A 
HETATM    6  C6  UNL     1      27.113   7.150  48.353  1.00  0.00     0.029 A 
HETATM    7  C7  UNL     1      26.101   6.440  48.975  1.00  0.00     0.035 A 
HETATM    8  C22 UNL     1      24.866   6.617  48.385  1.00  0.00     0.050 A 
ENDROOT
BRANCH   7   9
HETATM    9  N1  UNL     1      26.269   5.604  50.110  1.00  0.00    -0.340 N 
HETATM   10  H5  UNL     1      27.102   5.786  50.695  1.00  0.00     0.167 HD
BRANCH   9  11
HETATM   11  C8  UNL     1      25.402   4.572  50.482  1.00  0.00     0.138 C 
HETATM   12  N2  UNL     1      24.091   4.466  50.674  1.00  0.00    -0.224 NA
HETATM   13  C9  UNL     1      23.627   4.154  51.894  1.00  0.00     0.234 C 
HETATM   14  N3  UNL     1      22.467   3.786  51.371  1.00  0.00    -0.254 NA
HETATM   15  C10 UNL     1      22.219   2.562  50.875  1.00  0.00     0.121 C 
HETATM   16  C11 UNL     1      23.048   1.513  51.229  1.00  0.00     0.059 C 
HETATM   17  C12 UNL     1      23.954   1.472  52.266  1.00  0.00     0.106 C 
HETATM   18  C16 UNL     1      25.288   1.596  52.471  1.00  0.00     0.136 C 
HETATM   19  C17 UNL     1      26.153   2.411  51.786  1.00  0.00     0.114 C 
HETATM   20  O3  UNL     1      25.786   0.807  53.474  1.00  0.00    -0.344 OA
HETATM   21  C18 UNL     1      25.927   3.298  50.741  1.00  0.00     0.020 C 
HETATM   22  O2  UNL     1      27.506   2.468  52.069  1.00  0.00    -0.345 OA
HETATM   23  C19 UNL     1      26.375   2.788  49.419  1.00  0.00     0.055 C 
HETATM   24  C20 UNL     1      28.038   1.575  53.036  1.00  0.00     0.202 C 
HETATM   25  C21 UNL     1      27.023   1.196  54.091  1.00  0.00     0.202 C 
BRANCH  17  26
HETATM   26  O1  UNL     1      22.967   1.235  53.159  1.00  0.00    -0.344 OA
BRANCH  26  27
HETATM   27  C13 UNL     1      22.201   0.122  53.424  1.00  0.00     0.121 C 
HETATM   28  C14 UNL     1      22.940  -0.884  54.316  1.00  0.00     0.040 C 
HETATM   29  C15 UNL     1      20.855   0.423  54.048  1.00  0.00     0.040 C 
ENDBRANCH  26  27
ENDBRANCH  17  26
ENDBRANCH   9  11
ENDBRANCH   7   9
TORSDOF 4
ENDMDL
MODEL 5
REMARK VINA RESULT:      -8.1      1.726      2.339
REMARK  4 active torsions:
REMARK  status: ('A' for Active; 'I' for Inactive)
REMARK    1  A    between atoms: C7_7  and  N1_8 
REMARK    2  A    between atoms: N1_8  and  C8_9 
REMARK    3  A    between atoms: C12_15  and  O1_16 
REMARK    4  A    between atoms: O1_16  and  C13_17 
ROOT
HETATM    1  C1  UNL     1      28.671  -2.826  53.126  1.00  0.00     0.018 C 
HETATM    2  C2  UNL     1      28.414  -1.634  53.080  1.00  0.00    -0.078 C 
HETATM    3  C3  UNL     1      28.121  -0.222  53.017  1.00  0.00     0.019 A 
HETATM    4  C4  UNL     1      28.920   0.709  53.675  1.00  0.00     0.021 A 
HETATM    5  C5  UNL     1      28.594   2.044  53.578  1.00  0.00     0.004 A 
HETATM    6  C6  UNL     1      27.502   2.444  52.844  1.00  0.00     0.029 A 
HETATM    7  C7  UNL     1      26.673   1.563  52.172  1.00  0.00     0.035 A 
HETATM    8  C22 UNL     1      27.052   0.243  52.307  1.00  0.00     0.050 A 
ENDROOT
BRANCH   7   9
HETATM    9  N1  UNL     1      25.539   1.936  51.403  1.00  0.00    -0.340 N 
HETATM   10  H5  UNL     1      25.728   2.309  50.458  1.00  0.00     0.167 HD
BRANCH   9  11
HETATM   11  C8  UNL     1      24.212   1.836  51.831  1.00  0.00     0.138 C 
HETATM   12  N2  UNL     1      23.353   0.837  52.013  1.00  0.00    -0.224 NA
HETATM   13  C9  UNL     1      22.232   0.791  51.276  1.00  0.00     0.234 C 
HETATM   14  N3  UNL     1      21.679  -0.037  52.150  1.00  0.00    -0.254 NA
HETATM   15  C10 UNL     1      21.031   0.360  53.259  1.00  0.00     0.121 C 
HETATM   16  C11 UNL     1      20.587   1.667  53.345  1.00  0.00     0.059 C 
HETATM   17  C12 UNL     1      20.457   2.580  52.321  1.00  0.00     0.106 C 
HETATM   18  C16 UNL     1      21.119   3.641  51.800  1.00  0.00     0.136 C 
HETATM   19  C17 UNL     1      22.478   3.816  51.744  1.00  0.00     0.114 C 
HETATM   20  O3  UNL     1      20.310   4.621  51.287  1.00  0.00    -0.344 OA
HETATM   21  C18 UNL     1      23.516   3.002  52.180  1.00  0.00     0.020 C 
HETATM   22  O2  UNL     1      23.064   4.941  51.190  1.00  0.00    -0.345 OA
HETATM   23  C19 UNL     1      24.152   3.470  53.439  1.00  0.00     0.055 C 
HETATM   24  C20 UNL     1      22.225   6.000  50.754  1.00  0.00     0.202 C 
HETATM   25  C21 UNL     1      20.865   5.514  50.309  1.00  0.00     0.202 C 
BRANCH  17  26
HETATM   26  O1  UNL     1      19.293   2.015  51.926  1.00  0.00    -0.344 OA
BRANCH  26  27
HETATM   27  C13 UNL     1      18.719   1.842  50.687  1.00  0.00     0.121 C 
HETATM   28  C14 UNL     1      18.302   0.385  50.446  1.00  0.00     0.040 C 
HETATM   29  C15 UNL     1      17.527   2.737  50.420  1.00  0.00     0.040 C 
ENDBRANCH  26  27
ENDBRANCH  17  26
ENDBRANCH   9  11
ENDBRANCH   7   9
TORSDOF 4
ENDMDL
MODEL 6
REMARK VINA RESULT:      -7.8      3.106      5.651
REMARK  4 active torsions:
REMARK  status: ('A' for Active; 'I' for Inactive)
REMARK    1  A    between atoms: C7_7  and  N1_8 
REMARK    2  A    between atoms: N1_8  and  C8_9 
REMARK    3  A    between atoms: C12_15  and  O1_16 
REMARK    4  A    between atoms: O1_16  and  C13_17 
ROOT
HETATM    1  C1  UNL     1      27.163  -1.899  52.714  1.00  0.00     0.018 C 
HETATM    2  C2  UNL     1      26.269  -1.070  52.760  1.00  0.00    -0.078 C 
HETATM    3  C3  UNL     1      25.211  -0.090  52.830  1.00  0.00     0.019 A 
HETATM    4  C4  UNL     1      23.914  -0.454  53.180  1.00  0.00     0.021 A 
HETATM    5  C5  UNL     1      22.945   0.524  53.232  1.00  0.00     0.004 A 
HETATM    6  C6  UNL     1      23.258   1.831  52.944  1.00  0.00     0.029 A 
HETATM    7  C7  UNL     1      24.528   2.250  52.589  1.00  0.00     0.035 A 
HETATM    8  C22 UNL     1      25.452   1.225  52.555  1.00  0.00     0.050 A 
ENDROOT
BRANCH   7   9
HETATM    9  N1  UNL     1      24.892   3.588  52.286  1.00  0.00    -0.340 N 
HETATM   10  H5  UNL     1      25.659   3.994  52.847  1.00  0.00     0.167 HD
BRANCH   9  11
HETATM   11  C8  UNL     1      24.292   4.379  51.300  1.00  0.00     0.138 C 
HETATM   12  N2  UNL     1      23.925   5.654  51.210  1.00  0.00    -0.224 NA
HETATM   13  C9  UNL     1      22.627   5.954  51.045  1.00  0.00     0.234 C 
HETATM   14  N3  UNL     1      22.951   7.162  50.609  1.00  0.00    -0.254 NA
HETATM   15  C10 UNL     1      23.263   7.444  49.332  1.00  0.00     0.121 C 
HETATM   16  C11 UNL     1      22.894   6.555  48.339  1.00  0.00     0.059 C 
HETATM   17  C12 UNL     1      21.983   5.525  48.429  1.00  0.00     0.106 C 
HETATM   18  C16 UNL     1      21.965   4.179  48.586  1.00  0.00     0.136 C 
HETATM   19  C17 UNL     1      22.846   3.424  49.317  1.00  0.00     0.114 C 
HETATM   20  O3  UNL     1      20.947   3.543  47.927  1.00  0.00    -0.344 OA
HETATM   21  C18 UNL     1      23.952   3.798  50.071  1.00  0.00     0.020 C 
HETATM   22  O2  UNL     1      22.746   2.048  49.417  1.00  0.00    -0.345 OA
HETATM   23  C19 UNL     1      25.250   3.509  49.407  1.00  0.00     0.055 C 
HETATM   24  C20 UNL     1      21.755   1.380  48.651  1.00  0.00     0.202 C 
HETATM   25  C21 UNL     1      20.543   2.247  48.395  1.00  0.00     0.202 C 
BRANCH  17  26
HETATM   26  O1  UNL     1      20.950   6.388  48.296  1.00  0.00    -0.344 OA
BRANCH  26  27
HETATM   27  C13 UNL     1      19.772   6.539  48.991  1.00  0.00     0.121 C 
HETATM   28  C14 UNL     1      19.570   7.983  49.470  1.00  0.00     0.040 C 
HETATM   29  C15 UNL     1      18.537   6.106  48.230  1.00  0.00     0.040 C 
ENDBRANCH  26  27
ENDBRANCH  17  26
ENDBRANCH   9  11
ENDBRANCH   7   9
TORSDOF 4
ENDMDL
MODEL 7
REMARK VINA RESULT:      -7.8     10.737     12.991
REMARK  4 active torsions:
REMARK  status: ('A' for Active; 'I' for Inactive)
REMARK    1  A    between atoms: C7_7  and  N1_8 
REMARK    2  A    between atoms: N1_8  and  C8_9 
REMARK    3  A    between atoms: C12_15  and  O1_16 
REMARK    4  A    between atoms: O1_16  and  C13_17 
ROOT
HETATM    1  C1  UNL     1      34.258   5.091  42.348  1.00  0.00     0.018 C 
HETATM    2  C2  UNL     1      34.131   4.737  43.509  1.00  0.00    -0.078 C 
HETATM    3  C3  UNL     1      33.990   4.328  44.886  1.00  0.00     0.019 A 
HETATM    4  C4  UNL     1      35.051   3.752  45.579  1.00  0.00     0.021 A 
HETATM    5  C5  UNL     1      34.859   3.383  46.893  1.00  0.00     0.004 A 
HETATM    6  C6  UNL     1      33.643   3.582  47.502  1.00  0.00     0.029 A 
HETATM    7  C7  UNL     1      32.554   4.148  46.862  1.00  0.00     0.035 A 
HETATM    8  C22 UNL     1      32.809   4.495  45.551  1.00  0.00     0.050 A 
ENDROOT
BRANCH   7   9
HETATM    9  N1  UNL     1      31.284   4.372  47.456  1.00  0.00    -0.340 N 
HETATM   10  H5  UNL     1      30.700   3.535  47.619  1.00  0.00     0.167 HD
BRANCH   9  11
HETATM   11  C8  UNL     1      30.780   5.623  47.826  1.00  0.00     0.138 C 
HETATM   12  N2  UNL     1      29.587   6.207  47.785  1.00  0.00    -0.224 NA
HETATM   13  C9  UNL     1      29.416   7.304  47.030  1.00  0.00     0.234 C 
HETATM   14  N3  UNL     1      28.322   7.614  47.708  1.00  0.00    -0.254 NA
HETATM   15  C10 UNL     1      28.320   8.307  48.860  1.00  0.00     0.121 C 
HETATM   16  C11 UNL     1      29.435   9.053  49.197  1.00  0.00     0.059 C 
HETATM   17  C12 UNL     1      30.474   9.430  48.373  1.00  0.00     0.106 C 
HETATM   18  C16 UNL     1      31.746   9.061  48.089  1.00  0.00     0.136 C 
HETATM   19  C17 UNL     1      32.255   7.787  48.099  1.00  0.00     0.114 C 
HETATM   20  O3  UNL     1      32.581  10.097  47.765  1.00  0.00    -0.344 OA
HETATM   21  C18 UNL     1      31.648   6.571  48.386  1.00  0.00     0.020 C 
HETATM   22  O2  UNL     1      33.576   7.508  47.794  1.00  0.00    -0.345 OA
HETATM   23  C19 UNL     1      31.996   6.033  49.726  1.00  0.00     0.055 C 
HETATM   24  C20 UNL     1      34.463   8.591  47.562  1.00  0.00     0.202 C 
HETATM   25  C21 UNL     1      33.759   9.804  46.998  1.00  0.00     0.202 C 
BRANCH  17  26
HETATM   26  O1  UNL     1      29.733  10.433  47.848  1.00  0.00    -0.344 OA
BRANCH  26  27
HETATM   27  C13 UNL     1      29.277  11.621  48.370  1.00  0.00     0.121 C 
HETATM   28  C14 UNL     1      30.426  12.508  48.869  1.00  0.00     0.040 C 
HETATM   29  C15 UNL     1      28.419  12.432  47.422  1.00  0.00     0.040 C 
ENDBRANCH  26  27
ENDBRANCH  17  26
ENDBRANCH   9  11
ENDBRANCH   7   9
TORSDOF 4
ENDMDL
MODEL 8
REMARK VINA RESULT:      -7.7      3.428      6.148
REMARK  4 active torsions:
REMARK  status: ('A' for Active; 'I' for Inactive)
REMARK    1  A    between atoms: C7_7  and  N1_8 
REMARK    2  A    between atoms: N1_8  and  C8_9 
REMARK    3  A    between atoms: C12_15  and  O1_16 
REMARK    4  A    between atoms: O1_16  and  C13_17 
ROOT
HETATM    1  C1  UNL     1      22.424  -1.170  54.703  1.00  0.00     0.018 C 
HETATM    2  C2  UNL     1      23.402  -0.723  54.126  1.00  0.00    -0.078 C 
HETATM    3  C3  UNL     1      24.556  -0.202  53.432  1.00  0.00     0.019 A 
HETATM    4  C4  UNL     1      25.722  -0.952  53.311  1.00  0.00     0.021 A 
HETATM    5  C5  UNL     1      26.792  -0.405  52.636  1.00  0.00     0.004 A 
HETATM    6  C6  UNL     1      26.703   0.855  52.094  1.00  0.00     0.029 A 
HETATM    7  C7  UNL     1      25.571   1.645  52.185  1.00  0.00     0.035 A 
HETATM    8  C22 UNL     1      24.537   1.042  52.871  1.00  0.00     0.050 A 
ENDROOT
BRANCH   7   9
HETATM    9  N1  UNL     1      25.440   2.949  51.638  1.00  0.00    -0.340 N 
HETATM   10  H5  UNL     1      26.227   3.598  51.805  1.00  0.00     0.167 HD
BRANCH   9  11
HETATM   11  C8  UNL     1      24.339   3.405  50.906  1.00  0.00     0.138 C 
HETATM   12  N2  UNL     1      23.476   2.852  50.060  1.00  0.00    -0.224 NA
HETATM   13  C9  UNL     1      23.430   3.284  48.790  1.00  0.00     0.234 C 
HETATM   14  N3  UNL     1      22.226   2.752  48.641  1.00  0.00    -0.254 NA
HETATM   15  C10 UNL     1      21.081   3.370  48.979  1.00  0.00     0.121 C 
HETATM   16  C11 UNL     1      21.085   4.743  49.151  1.00  0.00     0.059 C 
HETATM   17  C12 UNL     1      22.052   5.637  48.744  1.00  0.00     0.106 C 
HETATM   18  C16 UNL     1      23.092   6.333  49.264  1.00  0.00     0.136 C 
HETATM   19  C17 UNL     1      23.932   5.928  50.270  1.00  0.00     0.114 C 
HETATM   20  O3  UNL     1      23.291   7.565  48.700  1.00  0.00    -0.344 OA
HETATM   21  C18 UNL     1      23.961   4.751  51.008  1.00  0.00     0.020 C 
HETATM   22  O2  UNL     1      24.972   6.713  50.735  1.00  0.00    -0.345 OA
HETATM   23  C19 UNL     1      23.426   4.899  52.386  1.00  0.00     0.055 C 
HETATM   24  C20 UNL     1      25.112   8.030  50.224  1.00  0.00     0.202 C 
HETATM   25  C21 UNL     1      24.595   8.157  48.809  1.00  0.00     0.202 C 
BRANCH  17  26
HETATM   26  O1  UNL     1      21.584   5.612  47.476  1.00  0.00    -0.344 OA
BRANCH  26  27
HETATM   27  C13 UNL     1      22.216   5.607  46.253  1.00  0.00     0.121 C 
HETATM   28  C14 UNL     1      21.825   4.386  45.410  1.00  0.00     0.040 C 
HETATM   29  C15 UNL     1      21.990   6.856  45.427  1.00  0.00     0.040 C 
ENDBRANCH  26  27
ENDBRANCH  17  26
ENDBRANCH   9  11
ENDBRANCH   7   9
TORSDOF 4
ENDMDL
MODEL 9
REMARK VINA RESULT:      -7.6      2.610      5.643
REMARK  4 active torsions:
REMARK  status: ('A' for Active; 'I' for Inactive)
REMARK    1  A    between atoms: C7_7  and  N1_8 
REMARK    2  A    between atoms: N1_8  and  C8_9 
REMARK    3  A    between atoms: C12_15  and  O1_16 
REMARK    4  A    between atoms: O1_16  and  C13_17 
ROOT
HETATM    1  C1  UNL     1      27.366  -0.088  54.436  1.00  0.00     0.018 C 
HETATM    2  C2  UNL     1      26.164  -0.287  54.372  1.00  0.00    -0.078 C 
HETATM    3  C3  UNL     1      24.740  -0.513  54.306  1.00  0.00     0.019 A 
HETATM    4  C4  UNL     1      24.068  -1.180  55.327  1.00  0.00     0.021 A 
HETATM    5  C5  UNL     1      22.708  -1.365  55.211  1.00  0.00     0.004 A 
HETATM    6  C6  UNL     1      22.032  -0.899  54.108  1.00  0.00     0.029 A 
HETATM    7  C7  UNL     1      22.648  -0.232  53.064  1.00  0.00     0.035 A 
HETATM    8  C22 UNL     1      24.008  -0.078  53.239  1.00  0.00     0.050 A 
ENDROOT
BRANCH   7   9
HETATM    9  N1  UNL     1      21.986   0.266  51.911  1.00  0.00    -0.340 N 
HETATM   10  H5  UNL     1      21.135  -0.242  51.615  1.00  0.00     0.167 HD
BRANCH   9  11
HETATM   11  C8  UNL     1      22.400   1.372  51.162  1.00  0.00     0.138 C 
HETATM   12  N2  UNL     1      23.484   2.141  51.139  1.00  0.00    -0.224 NA
HETATM   13  C9  UNL     1      23.371   3.447  51.432  1.00  0.00     0.234 C 
HETATM   14  N3  UNL     1      24.532   3.690  50.843  1.00  0.00    -0.254 NA
HETATM   15  C10 UNL     1      24.677   3.915  49.526  1.00  0.00     0.121 C 
HETATM   16  C11 UNL     1      23.568   4.274  48.780  1.00  0.00     0.059 C 
HETATM   17  C12 UNL     1      22.351   4.721  49.247  1.00  0.00     0.106 C 
HETATM   18  C16 UNL     1      21.101   4.251  49.473  1.00  0.00     0.136 C 
HETATM   19  C17 UNL     1      20.759   2.987  49.882  1.00  0.00     0.114 C 
HETATM   20  O3  UNL     1      20.101   5.162  49.258  1.00  0.00    -0.344 OA
HETATM   21  C18 UNL     1      21.551   1.882  50.169  1.00  0.00     0.020 C 
HETATM   22  O2  UNL     1      19.448   2.597  50.086  1.00  0.00    -0.345 OA
HETATM   23  C19 UNL     1      21.539   0.847  49.103  1.00  0.00     0.055 C 
HETATM   24  C20 UNL     1      18.409   3.509  49.763  1.00  0.00     0.202 C 
HETATM   25  C21 UNL     1      18.840   4.951  49.910  1.00  0.00     0.202 C 
BRANCH  17  26
HETATM   26  O1  UNL     1      22.850   5.963  49.444  1.00  0.00    -0.344 OA
BRANCH  26  27
HETATM   27  C13 UNL     1      22.722   6.861  50.479  1.00  0.00     0.121 C 
HETATM   28  C14 UNL     1      24.066   7.497  50.857  1.00  0.00     0.040 C 
HETATM   29  C15 UNL     1      21.719   7.967  50.227  1.00  0.00     0.040 C 
ENDBRANCH  26  27
ENDBRANCH  17  26
ENDBRANCH   9  11
ENDBRANCH   7   9
TORSDOF 4
ENDMDL
