MODEL 1
REMARK VINA RESULT:      -9.3      0.000      0.000
REMARK  3 active torsions:
REMARK  status: ('A' for Active; 'I' for Inactive)
REMARK    1  A    between atoms: O1_2  and  C2_3 
REMARK    2  A    between atoms: C10_12  and  N2_13 
REMARK    3  A    between atoms: N2_13  and  C11_14 
ROOT
HETATM    1  C2  UNL     1      20.235  -0.147  53.221  1.00  0.00     0.069 A 
HETATM    2  C3  UNL     1      20.990  -0.499  54.321  1.00  0.00     0.039 A 
HETATM    3  C4  UNL     1      22.352  -0.247  54.419  1.00  0.00     0.040 A 
HETATM    4  C5  UNL     1      22.918   0.389  53.330  1.00  0.00     0.086 A 
HETATM    5  C6  UNL     1      22.224   0.767  52.208  1.00  0.00    -0.004 A 
HETATM    6  C7  UNL     1      20.852   0.498  52.140  1.00  0.00     0.048 A 
HETATM    7  C8  UNL     1      22.528   1.438  50.930  1.00  0.00     0.161 C 
HETATM    8  N1  UNL     1      23.940   1.621  50.668  1.00  0.00    -0.379 N 
HETATM    9  C9  UNL     1      25.057   1.743  51.538  1.00  0.00     0.129 A 
HETATM   10  C10 UNL     1      26.049   2.446  50.892  1.00  0.00     0.160 A 
HETATM   11  N4  UNL     1      27.184   2.666  51.606  1.00  0.00    -0.222 NA
HETATM   12  C22 UNL     1      27.308   2.205  52.887  1.00  0.00     0.238 A 
HETATM   13  N5  UNL     1      26.305   1.513  53.493  1.00  0.00    -0.215 NA
HETATM   14  C23 UNL     1      25.166   1.273  52.827  1.00  0.00     0.202 A 
HETATM   15  O2  UNL     1      24.265   0.559  53.597  1.00  0.00    -0.289 OA
HETATM   16  H9  UNL     1      24.199   1.683  49.661  1.00  0.00     0.160 HD
ENDROOT
BRANCH  10  17
HETATM   17  N2  UNL     1      25.995   2.932  49.549  1.00  0.00    -0.338 N 
HETATM   18  H10 UNL     1      26.042   2.483  48.623  1.00  0.00     0.167 HD
BRANCH  17  19
HETATM   19  C11 UNL     1      25.838   4.352  49.749  1.00  0.00     0.049 A 
HETATM   20  C12 UNL     1      25.044   5.010  50.572  1.00  0.00     0.113 A 
HETATM   21  N3  UNL     1      25.073   6.432  50.588  1.00  0.00    -0.385 N 
HETATM   22  C13 UNL     1      25.857   7.239  49.696  1.00  0.00     0.137 A 
HETATM   23  H12 UNL     1      24.480   6.896  51.305  1.00  0.00     0.160 HD
HETATM   24  C14 UNL     1      26.579   8.291  50.463  1.00  0.00     0.003 C 
HETATM   25  C20 UNL     1      26.725   6.441  48.821  1.00  0.00    -0.030 A 
HETATM   26  C15 UNL     1      27.381   9.325  50.271  1.00  0.00    -0.002 C 
HETATM   27  C16 UNL     1      27.931   9.888  49.019  1.00  0.00    -0.000 C 
HETATM   28  C17 UNL     1      28.319   9.315  47.868  1.00  0.00     0.000 C 
HETATM   29  C18 UNL     1      28.365   7.930  47.368  1.00  0.00     0.001 C 
HETATM   30  C19 UNL     1      27.692   6.866  47.818  1.00  0.00     0.009 C 
HETATM   31  C21 UNL     1      26.711   5.128  48.842  1.00  0.00     0.040 A 
ENDBRANCH  17  19
ENDBRANCH  10  17
BRANCH   1  32
HETATM   32  O1  UNL     1      18.860  -0.411  53.146  1.00  0.00    -0.356 OA
HETATM   33  C1  UNL     1      18.390  -1.710  53.447  1.00  0.00     0.210 C 
ENDBRANCH   1  32
TORSDOF 3
ENDMDL
MODEL 2
REMARK VINA RESULT:      -9.2      3.790      6.794
REMARK  3 active torsions:
REMARK  status: ('A' for Active; 'I' for Inactive)
REMARK    1  A    between atoms: O1_2  and  C2_3 
REMARK    2  A    between atoms: C10_12  and  N2_13 
REMARK    3  A    between atoms: N2_13  and  C11_14 
ROOT
HETATM    1  C2  UNL     1      17.523   3.123  50.295  1.00  0.00     0.069 A 
HETATM    2  C3  UNL     1      17.920   3.370  48.998  1.00  0.00     0.039 A 
HETATM    3  C4  UNL     1      19.243   3.593  48.637  1.00  0.00     0.040 A 
HETATM    4  C5  UNL     1      20.155   3.554  49.675  1.00  0.00     0.086 A 
HETATM    5  C6  UNL     1      19.826   3.313  50.986  1.00  0.00    -0.004 A 
HETATM    6  C7  UNL     1      18.484   3.092  51.316  1.00  0.00     0.048 A 
HETATM    7  C8  UNL     1      20.541   3.207  52.272  1.00  0.00     0.161 C 
HETATM    8  N1  UNL     1      21.927   3.618  52.226  1.00  0.00    -0.379 N 
HETATM    9  C9  UNL     1      22.874   3.639  51.166  1.00  0.00     0.129 A 
HETATM   10  C10 UNL     1      24.141   3.556  51.699  1.00  0.00     0.160 A 
HETATM   11  N4  UNL     1      25.163   3.544  50.803  1.00  0.00    -0.222 NA
HETATM   12  C22 UNL     1      24.922   3.611  49.459  1.00  0.00     0.238 A 
HETATM   13  N5  UNL     1      23.654   3.693  48.969  1.00  0.00    -0.215 NA
HETATM   14  C23 UNL     1      22.614   3.707  49.816  1.00  0.00     0.202 A 
HETATM   15  O2  UNL     1      21.408   3.794  49.141  1.00  0.00    -0.289 OA
HETATM   16  H9  UNL     1      22.320   3.955  53.129  1.00  0.00     0.160 HD
ENDROOT
BRANCH  10  17
HETATM   17  N2  UNL     1      24.465   3.510  53.090  1.00  0.00    -0.338 N 
HETATM   18  H10 UNL     1      24.458   4.205  53.850  1.00  0.00     0.167 HD
BRANCH  17  19
HETATM   19  C11 UNL     1      24.849   2.130  53.263  1.00  0.00     0.049 A 
HETATM   20  C12 UNL     1      24.107   1.039  53.291  1.00  0.00     0.113 A 
HETATM   21  N3  UNL     1      24.726  -0.227  53.474  1.00  0.00    -0.385 N 
HETATM   22  C13 UNL     1      26.127  -0.417  53.726  1.00  0.00     0.137 A 
HETATM   23  H12 UNL     1      24.103  -1.057  53.417  1.00  0.00     0.160 HD
HETATM   24  C14 UNL     1      26.661  -1.491  52.844  1.00  0.00     0.003 C 
HETATM   25  C20 UNL     1      26.891   0.835  53.665  1.00  0.00    -0.030 A 
HETATM   26  C15 UNL     1      27.780  -2.155  52.606  1.00  0.00    -0.002 C 
HETATM   27  C16 UNL     1      29.112  -2.040  53.238  1.00  0.00    -0.000 C 
HETATM   28  C17 UNL     1      29.786  -0.989  53.734  1.00  0.00     0.000 C 
HETATM   29  C18 UNL     1      29.506   0.452  53.858  1.00  0.00     0.001 C 
HETATM   30  C19 UNL     1      28.321   1.071  53.817  1.00  0.00     0.009 C 
HETATM   31  C21 UNL     1      26.308   1.994  53.461  1.00  0.00     0.040 A 
ENDBRANCH  17  19
ENDBRANCH  10  17
BRANCH   1  32
HETATM   32  O1  UNL     1      16.181   2.899  50.634  1.00  0.00    -0.356 OA
HETATM   33  C1  UNL     1      15.788   2.989  51.990  1.00  0.00     0.210 C 
ENDBRANCH   1  32
TORSDOF 3
ENDMDL
MODEL 3
REMARK VINA RESULT:      -9.0      4.068      9.565
REMARK  3 active torsions:
REMARK  status: ('A' for Active; 'I' for Inactive)
REMARK    1  A    between atoms: O1_2  and  C2_3 
REMARK    2  A    between atoms: C10_12  and  N2_13 
REMARK    3  A    between atoms: N2_13  and  C11_14 
ROOT
HETATM    1  C2  UNL     1      32.702   6.417  48.250  1.00  0.00     0.069 A 
HETATM    2  C3  UNL     1      32.724   7.733  48.661  1.00  0.00     0.039 A 
HETATM    3  C4  UNL     1      31.574   8.456  48.953  1.00  0.00     0.040 A 
HETATM    4  C5  UNL     1      30.385   7.766  48.804  1.00  0.00     0.086 A 
HETATM    5  C6  UNL     1      30.296   6.458  48.400  1.00  0.00    -0.004 A 
HETATM    6  C7  UNL     1      31.473   5.757  48.113  1.00  0.00     0.048 A 
HETATM    7  C8  UNL     1      29.219   5.478  48.158  1.00  0.00     0.161 C 
HETATM    8  N1  UNL     1      27.884   6.035  48.176  1.00  0.00    -0.379 N 
HETATM    9  C9  UNL     1      27.341   7.174  48.831  1.00  0.00     0.129 A 
HETATM   10  C10 UNL     1      25.991   6.979  49.016  1.00  0.00     0.160 A 
HETATM   11  N4  UNL     1      25.327   7.979  49.653  1.00  0.00    -0.222 NA
HETATM   12  C22 UNL     1      25.984   9.101  50.075  1.00  0.00     0.238 A 
HETATM   13  N5  UNL     1      27.321   9.259  49.874  1.00  0.00    -0.215 NA
HETATM   14  C23 UNL     1      28.018   8.297  49.249  1.00  0.00     0.202 A 
HETATM   15  O2  UNL     1      29.356   8.629  49.134  1.00  0.00    -0.289 OA
HETATM   16  H9  UNL     1      27.178   5.513  47.616  1.00  0.00     0.160 HD
ENDROOT
BRANCH  10  17
HETATM   17  N2  UNL     1      25.239   5.845  48.578  1.00  0.00    -0.338 N 
HETATM   18  H10 UNL     1      24.968   5.480  47.654  1.00  0.00     0.167 HD
BRANCH  17  19
HETATM   19  C11 UNL     1      24.883   5.219  49.828  1.00  0.00     0.049 A 
HETATM   20  C12 UNL     1      24.025   5.602  50.755  1.00  0.00     0.113 A 
HETATM   21  N3  UNL     1      23.844   4.803  51.917  1.00  0.00    -0.385 N 
HETATM   22  C13 UNL     1      24.603   3.621  52.217  1.00  0.00     0.137 A 
HETATM   23  H12 UNL     1      23.106   5.114  52.579  1.00  0.00     0.160 HD
HETATM   24  C14 UNL     1      23.689   2.523  52.634  1.00  0.00     0.003 C 
HETATM   25  C20 UNL     1      25.525   3.248  51.137  1.00  0.00    -0.030 A 
HETATM   26  C15 UNL     1      23.725   1.271  53.062  1.00  0.00    -0.002 C 
HETATM   27  C16 UNL     1      24.879   0.381  53.314  1.00  0.00    -0.000 C 
HETATM   28  C17 UNL     1      26.071   0.256  52.707  1.00  0.00     0.000 C 
HETATM   29  C18 UNL     1      26.724   0.925  51.568  1.00  0.00     0.001 C 
HETATM   30  C19 UNL     1      26.429   2.111  51.026  1.00  0.00     0.009 C 
HETATM   31  C21 UNL     1      25.656   3.979  50.054  1.00  0.00     0.040 A 
ENDBRANCH  17  19
ENDBRANCH  10  17
BRANCH   1  32
HETATM   32  O1  UNL     1      33.878   5.707  47.962  1.00  0.00    -0.356 OA
HETATM   33  C1  UNL     1      34.995   5.848  48.817  1.00  0.00     0.210 C 
ENDBRANCH   1  32
TORSDOF 3
ENDMDL
MODEL 4
REMARK VINA RESULT:      -9.0      3.646      9.138
REMARK  3 active torsions:
REMARK  status: ('A' for Active; 'I' for Inactive)
REMARK    1  A    between atoms: O1_2  and  C2_3 
REMARK    2  A    between atoms: C10_12  and  N2_13 
REMARK    3  A    between atoms: N2_13  and  C11_14 
ROOT
HETATM    1  C2  UNL     1      30.324   8.424  48.097  1.00  0.00     0.069 A 
HETATM    2  C3  UNL     1      29.670   9.475  48.706  1.00  0.00     0.039 A 
HETATM    3  C4  UNL     1      28.403   9.360  49.264  1.00  0.00     0.040 A 
HETATM    4  C5  UNL     1      27.825   8.108  49.170  1.00  0.00     0.086 A 
HETATM    5  C6  UNL     1      28.421   7.023  48.578  1.00  0.00    -0.004 A 
HETATM    6  C7  UNL     1      29.699   7.171  48.026  1.00  0.00     0.048 A 
HETATM    7  C8  UNL     1      28.079   5.609  48.331  1.00  0.00     0.161 C 
HETATM    8  N1  UNL     1      26.704   5.264  48.619  1.00  0.00    -0.379 N 
HETATM    9  C9  UNL     1      25.754   5.825  49.516  1.00  0.00     0.129 A 
HETATM   10  C10 UNL     1      24.832   4.858  49.849  1.00  0.00     0.160 A 
HETATM   11  N4  UNL     1      23.862   5.238  50.722  1.00  0.00    -0.222 NA
HETATM   12  C22 UNL     1      23.826   6.509  51.224  1.00  0.00     0.238 A 
HETATM   13  N5  UNL     1      24.755   7.438  50.871  1.00  0.00    -0.215 NA
HETATM   14  C23 UNL     1      25.732   7.108  50.012  1.00  0.00     0.202 A 
HETATM   15  O2  UNL     1      26.580   8.175  49.770  1.00  0.00    -0.289 OA
HETATM   16  H9  UNL     1      26.329   4.453  48.085  1.00  0.00     0.160 HD
ENDROOT
BRANCH  10  17
HETATM   17  N2  UNL     1      24.795   3.522  49.342  1.00  0.00    -0.338 N 
HETATM   18  H10 UNL     1      24.774   3.117  48.396  1.00  0.00     0.167 HD
BRANCH  17  19
HETATM   19  C11 UNL     1      24.799   2.741  50.554  1.00  0.00     0.049 A 
HETATM   20  C12 UNL     1      23.824   2.065  51.131  1.00  0.00     0.113 A 
HETATM   21  N3  UNL     1      24.078   1.360  52.340  1.00  0.00    -0.385 N 
HETATM   22  C13 UNL     1      25.324   1.394  53.054  1.00  0.00     0.137 A 
HETATM   23  H12 UNL     1      23.294   0.788  52.712  1.00  0.00     0.160 HD
HETATM   24  C14 UNL     1      25.733   0.013  53.428  1.00  0.00     0.003 C 
HETATM   25  C20 UNL     1      26.364   2.151  52.347  1.00  0.00    -0.030 A 
HETATM   26  C15 UNL     1      26.684  -0.627  54.089  1.00  0.00    -0.002 C 
HETATM   27  C16 UNL     1      27.869  -0.103  54.803  1.00  0.00    -0.000 C 
HETATM   28  C17 UNL     1      28.675   0.944  54.563  1.00  0.00     0.000 C 
HETATM   29  C18 UNL     1      28.732   1.988  53.525  1.00  0.00     0.001 C 
HETATM   30  C19 UNL     1      27.757   2.388  52.702  1.00  0.00     0.009 C 
HETATM   31  C21 UNL     1      26.122   2.768  51.213  1.00  0.00     0.040 A 
ENDBRANCH  17  19
ENDBRANCH  10  17
BRANCH   1  32
HETATM   32  O1  UNL     1      31.605   8.565  47.542  1.00  0.00    -0.356 OA
HETATM   33  C1  UNL     1      32.235   7.436  46.969  1.00  0.00     0.210 C 
ENDBRANCH   1  32
TORSDOF 3
ENDMDL
MODEL 5
REMARK VINA RESULT:      -8.9      2.681      4.691
REMARK  3 active torsions:
REMARK  status: ('A' for Active; 'I' for Inactive)
REMARK    1  A    between atoms: O1_2  and  C2_3 
REMARK    2  A    between atoms: C10_12  and  N2_13 
REMARK    3  A    between atoms: N2_13  and  C11_14 
ROOT
HETATM    1  C2  UNL     1      27.501  -0.215  53.966  1.00  0.00     0.069 A 
HETATM    2  C3  UNL     1      26.725  -1.172  53.347  1.00  0.00     0.039 A 
HETATM    3  C4  UNL     1      25.511  -0.885  52.735  1.00  0.00     0.040 A 
HETATM    4  C5  UNL     1      25.121   0.440  52.783  1.00  0.00     0.086 A 
HETATM    5  C6  UNL     1      25.847   1.439  53.382  1.00  0.00    -0.004 A 
HETATM    6  C7  UNL     1      27.065   1.117  53.990  1.00  0.00     0.048 A 
HETATM    7  C8  UNL     1      25.707   2.893  53.591  1.00  0.00     0.161 C 
HETATM    8  N1  UNL     1      24.410   3.429  53.239  1.00  0.00    -0.379 N 
HETATM    9  C9  UNL     1      23.424   2.993  52.312  1.00  0.00     0.129 A 
HETATM   10  C10 UNL     1      22.669   4.077  51.924  1.00  0.00     0.160 A 
HETATM   11  N4  UNL     1      21.689   3.824  51.017  1.00  0.00    -0.222 NA
HETATM   12  C22 UNL     1      21.486   2.561  50.534  1.00  0.00     0.238 A 
HETATM   13  N5  UNL     1      22.254   1.514  50.942  1.00  0.00    -0.215 NA
HETATM   14  C23 UNL     1      23.234   1.716  51.836  1.00  0.00     0.202 A 
HETATM   15  O2  UNL     1      23.905   0.542  52.132  1.00  0.00    -0.289 OA
HETATM   16  H9  UNL     1      24.138   4.298  53.743  1.00  0.00     0.160 HD
ENDROOT
BRANCH  10  17
HETATM   17  N2  UNL     1      22.809   5.415  52.407  1.00  0.00    -0.338 N 
HETATM   18  H10 UNL     1      22.758   5.847  53.340  1.00  0.00     0.167 HD
BRANCH  17  19
HETATM   19  C11 UNL     1      23.077   6.146  51.193  1.00  0.00     0.049 A 
HETATM   20  C12 UNL     1      22.315   6.993  50.526  1.00  0.00     0.113 A 
HETATM   21  N3  UNL     1      22.811   7.597  49.338  1.00  0.00    -0.385 N 
HETATM   22  C13 UNL     1      24.077   7.288  48.736  1.00  0.00     0.137 A 
HETATM   23  H12 UNL     1      22.197   8.309  48.894  1.00  0.00     0.160 HD
HETATM   24  C14 UNL     1      24.794   8.545  48.387  1.00  0.00     0.003 C 
HETATM   25  C20 UNL     1      24.875   6.352  49.538  1.00  0.00    -0.030 A 
HETATM   26  C15 UNL     1      25.910   8.957  47.807  1.00  0.00    -0.002 C 
HETATM   27  C16 UNL     1      27.015   8.181  47.204  1.00  0.00    -0.000 C 
HETATM   28  C17 UNL     1      27.564   6.997  47.522  1.00  0.00     0.000 C 
HETATM   29  C18 UNL     1      27.315   5.992  48.571  1.00  0.00     0.001 C 
HETATM   30  C19 UNL     1      26.213   5.824  49.309  1.00  0.00     0.009 C 
HETATM   31  C21 UNL     1      24.416   5.829  50.652  1.00  0.00     0.040 A 
ENDBRANCH  17  19
ENDBRANCH  10  17
BRANCH   1  32
HETATM   32  O1  UNL     1      28.724  -0.529  54.577  1.00  0.00    -0.356 OA
HETATM   33  C1  UNL     1      29.832  -0.869  53.767  1.00  0.00     0.210 C 
ENDBRANCH   1  32
TORSDOF 3
ENDMDL
MODEL 6
REMARK VINA RESULT:      -8.6      1.834      2.980
REMARK  3 active torsions:
REMARK  status: ('A' for Active; 'I' for Inactive)
REMARK    1  A    between atoms: O1_2  and  C2_3 
REMARK    2  A    between atoms: C10_12  and  N2_13 
REMARK    3  A    between atoms: N2_13  and  C11_14 
ROOT
HETATM    1  C2  UNL     1      21.902  -0.402  54.196  1.00  0.00     0.069 A 
HETATM    2  C3  UNL     1      20.662   0.113  53.881  1.00  0.00     0.039 A 
HETATM    3  C4  UNL     1      20.475   1.129  52.952  1.00  0.00     0.040 A 
HETATM    4  C5  UNL     1      21.626   1.602  52.350  1.00  0.00     0.086 A 
HETATM    5  C6  UNL     1      22.888   1.132  52.618  1.00  0.00    -0.004 A 
HETATM    6  C7  UNL     1      23.042   0.109  53.560  1.00  0.00     0.048 A 
HETATM    7  C8  UNL     1      24.261   1.416  52.159  1.00  0.00     0.161 C 
HETATM    8  N1  UNL     1      24.388   2.599  51.335  1.00  0.00    -0.379 N 
HETATM    9  C9  UNL     1      23.464   3.264  50.484  1.00  0.00     0.129 A 
HETATM   10  C10 UNL     1      24.164   3.952  49.519  1.00  0.00     0.160 A 
HETATM   11  N4  UNL     1      23.414   4.628  48.609  1.00  0.00    -0.222 NA
HETATM   12  C22 UNL     1      22.048   4.610  48.671  1.00  0.00     0.238 A 
HETATM   13  N5  UNL     1      21.391   3.918  49.641  1.00  0.00    -0.215 NA
HETATM   14  C23 UNL     1      22.090   3.235  50.561  1.00  0.00     0.202 A 
HETATM   15  O2  UNL     1      21.257   2.597  51.463  1.00  0.00    -0.289 OA
HETATM   16  H9  UNL     1      25.324   3.053  51.353  1.00  0.00     0.160 HD
ENDROOT
BRANCH  10  17
HETATM   17  N2  UNL     1      25.587   4.034  49.412  1.00  0.00    -0.338 N 
HETATM   18  H10 UNL     1      26.334   3.340  49.272  1.00  0.00     0.167 HD
BRANCH  17  19
HETATM   19  C11 UNL     1      25.817   5.451  49.550  1.00  0.00     0.049 A 
HETATM   20  C12 UNL     1      25.301   6.316  50.404  1.00  0.00     0.113 A 
HETATM   21  N3  UNL     1      25.693   7.681  50.342  1.00  0.00    -0.385 N 
HETATM   22  C13 UNL     1      26.564   8.233  49.343  1.00  0.00     0.137 A 
HETATM   23  H12 UNL     1      25.310   8.303  51.082  1.00  0.00     0.160 HD
HETATM   24  C14 UNL     1      27.602   9.084  49.987  1.00  0.00     0.003 C 
HETATM   25  C20 UNL     1      27.110   7.213  48.439  1.00  0.00    -0.030 A 
HETATM   26  C15 UNL     1      28.618   9.871  49.671  1.00  0.00    -0.002 C 
HETATM   27  C16 UNL     1      29.167  10.236  48.348  1.00  0.00    -0.000 C 
HETATM   28  C17 UNL     1      29.282   9.549  47.199  1.00  0.00     0.000 C 
HETATM   29  C18 UNL     1      28.925   8.185  46.771  1.00  0.00     0.001 C 
HETATM   30  C19 UNL     1      28.050   7.345  47.334  1.00  0.00     0.009 C 
HETATM   31  C21 UNL     1      26.765   5.949  48.531  1.00  0.00     0.040 A 
ENDBRANCH  17  19
ENDBRANCH  10  17
BRANCH   1  32
HETATM   32  O1  UNL     1      22.065  -1.429  55.138  1.00  0.00    -0.356 OA
HETATM   33  C1  UNL     1      23.333  -1.624  55.731  1.00  0.00     0.210 C 
ENDBRANCH   1  32
TORSDOF 3
ENDMDL
MODEL 7
REMARK VINA RESULT:      -8.6      2.239      4.009
REMARK  3 active torsions:
REMARK  status: ('A' for Active; 'I' for Inactive)
REMARK    1  A    between atoms: O1_2  and  C2_3 
REMARK    2  A    between atoms: C10_12  and  N2_13 
REMARK    3  A    between atoms: N2_13  and  C11_14 
ROOT
HETATM    1  C2  UNL     1      22.355   0.193  53.006  1.00  0.00     0.069 A 
HETATM    2  C3  UNL     1      21.114   0.383  52.434  1.00  0.00     0.039 A 
HETATM    3  C4  UNL     1      20.709   1.593  51.885  1.00  0.00     0.040 A 
HETATM    4  C5  UNL     1      21.639   2.614  51.947  1.00  0.00     0.086 A 
HETATM    5  C6  UNL     1      22.888   2.490  52.502  1.00  0.00    -0.004 A 
HETATM    6  C7  UNL     1      23.266   1.257  53.046  1.00  0.00     0.048 A 
HETATM    7  C8  UNL     1      24.064   3.357  52.710  1.00  0.00     0.161 C 
HETATM    8  N1  UNL     1      23.836   4.757  52.425  1.00  0.00    -0.379 N 
HETATM    9  C9  UNL     1      22.922   5.410  51.554  1.00  0.00     0.129 A 
HETATM   10  C10 UNL     1      23.443   6.635  51.201  1.00  0.00     0.160 A 
HETATM   11  N4  UNL     1      22.689   7.378  50.348  1.00  0.00    -0.222 NA
HETATM   12  C22 UNL     1      21.490   6.914  49.884  1.00  0.00     0.238 A 
HETATM   13  N5  UNL     1      21.007   5.697  50.256  1.00  0.00    -0.215 NA
HETATM   14  C23 UNL     1      21.718   4.928  51.096  1.00  0.00     0.202 A 
HETATM   15  O2  UNL     1      21.074   3.732  51.361  1.00  0.00    -0.289 OA
HETATM   16  H9  UNL     1      24.453   5.420  52.939  1.00  0.00     0.160 HD
ENDROOT
BRANCH  10  17
HETATM   17  N2  UNL     1      24.674   7.191  51.669  1.00  0.00    -0.338 N 
HETATM   18  H10 UNL     1      24.986   7.578  52.571  1.00  0.00     0.167 HD
BRANCH  17  19
HETATM   19  C11 UNL     1      25.510   7.096  50.498  1.00  0.00     0.049 A 
HETATM   20  C12 UNL     1      25.637   6.116  49.623  1.00  0.00     0.113 A 
HETATM   21  N3  UNL     1      26.539   6.261  48.534  1.00  0.00    -0.385 N 
HETATM   22  C13 UNL     1      27.416   7.383  48.348  1.00  0.00     0.137 A 
HETATM   23  H12 UNL     1      26.547   5.489  47.837  1.00  0.00     0.160 HD
HETATM   24  C14 UNL     1      27.336   7.863  46.941  1.00  0.00     0.003 C 
HETATM   25  C20 UNL     1      27.210   8.437  49.348  1.00  0.00    -0.030 A 
HETATM   26  C15 UNL     1      27.874   8.766  46.138  1.00  0.00    -0.002 C 
HETATM   27  C16 UNL     1      28.915   9.782  46.405  1.00  0.00    -0.000 C 
HETATM   28  C17 UNL     1      29.203  10.513  47.495  1.00  0.00     0.000 C 
HETATM   29  C18 UNL     1      28.630  10.618  48.848  1.00  0.00     0.001 C 
HETATM   30  C19 UNL     1      27.853   9.737  49.488  1.00  0.00     0.009 C 
HETATM   31  C21 UNL     1      26.347   8.303  50.329  1.00  0.00     0.040 A 
ENDBRANCH  17  19
ENDBRANCH  10  17
BRANCH   1  32
HETATM   32  O1  UNL     1      22.741  -1.040  53.553  1.00  0.00    -0.356 OA
HETATM   33  C1  UNL     1      22.416  -1.329  54.899  1.00  0.00     0.210 C 
ENDBRANCH   1  32
TORSDOF 3
ENDMDL
MODEL 8
REMARK VINA RESULT:      -8.6      5.807      9.271
REMARK  3 active torsions:
REMARK  status: ('A' for Active; 'I' for Inactive)
REMARK    1  A    between atoms: O1_2  and  C2_3 
REMARK    2  A    between atoms: C10_12  and  N2_13 
REMARK    3  A    between atoms: N2_13  and  C11_14 
ROOT
HETATM    1  C2  UNL     1      11.684   2.387  54.340  1.00  0.00     0.069 A 
HETATM    2  C3  UNL     1      11.990   3.727  54.218  1.00  0.00     0.039 A 
HETATM    3  C4  UNL     1      13.151   4.188  53.610  1.00  0.00     0.040 A 
HETATM    4  C5  UNL     1      13.997   3.207  53.126  1.00  0.00     0.086 A 
HETATM    5  C6  UNL     1      13.750   1.860  53.215  1.00  0.00    -0.004 A 
HETATM    6  C7  UNL     1      12.571   1.428  53.834  1.00  0.00     0.048 A 
HETATM    7  C8  UNL     1      14.427   0.613  52.809  1.00  0.00     0.161 C 
HETATM    8  N1  UNL     1      15.784   0.791  52.339  1.00  0.00    -0.379 N 
HETATM    9  C9  UNL     1      16.439   1.897  51.733  1.00  0.00     0.129 A 
HETATM   10  C10 UNL     1      17.488   1.431  50.973  1.00  0.00     0.160 A 
HETATM   11  N4  UNL     1      18.206   2.375  50.308  1.00  0.00    -0.222 NA
HETATM   12  C22 UNL     1      17.885   3.700  50.405  1.00  0.00     0.238 A 
HETATM   13  N5  UNL     1      16.840   4.124  51.168  1.00  0.00    -0.215 NA
HETATM   14  C23 UNL     1      16.103   3.228  51.841  1.00  0.00     0.202 A 
HETATM   15  O2  UNL     1      15.089   3.838  52.559  1.00  0.00    -0.289 OA
HETATM   16  H9  UNL     1      16.404  -0.037  52.452  1.00  0.00     0.160 HD
ENDROOT
BRANCH  10  17
HETATM   17  N2  UNL     1      17.893   0.066  50.849  1.00  0.00    -0.338 N 
HETATM   18  H10 UNL     1      17.602  -0.714  50.242  1.00  0.00     0.167 HD
BRANCH  17  19
HETATM   19  C11 UNL     1      18.922  -0.035  51.855  1.00  0.00     0.049 A 
HETATM   20  C12 UNL     1      18.876  -0.559  53.065  1.00  0.00     0.113 A 
HETATM   21  N3  UNL     1      20.040  -0.540  53.882  1.00  0.00    -0.385 N 
HETATM   22  C13 UNL     1      21.275   0.097  53.522  1.00  0.00     0.137 A 
HETATM   23  H12 UNL     1      19.967  -1.029  54.797  1.00  0.00     0.160 HD
HETATM   24  C14 UNL     1      22.417  -0.821  53.789  1.00  0.00     0.003 C 
HETATM   25  C20 UNL     1      21.258   0.643  52.160  1.00  0.00    -0.030 A 
HETATM   26  C15 UNL     1      23.738  -0.850  53.732  1.00  0.00    -0.002 C 
HETATM   27  C16 UNL     1      24.699   0.193  53.313  1.00  0.00    -0.000 C 
HETATM   28  C17 UNL     1      24.635   1.155  52.377  1.00  0.00     0.000 C 
HETATM   29  C18 UNL     1      23.618   1.575  51.397  1.00  0.00     0.001 C 
HETATM   30  C19 UNL     1      22.305   1.318  51.406  1.00  0.00     0.009 C 
HETATM   31  C21 UNL     1      20.185   0.588  51.405  1.00  0.00     0.040 A 
ENDBRANCH  17  19
ENDBRANCH  10  17
BRANCH   1  32
HETATM   32  O1  UNL     1      10.504   1.947  54.958  1.00  0.00    -0.356 OA
HETATM   33  C1  UNL     1      10.184   0.570  54.929  1.00  0.00     0.210 C 
ENDBRANCH   1  32
TORSDOF 3
ENDMDL
MODEL 9
REMARK VINA RESULT:      -8.5      3.070      5.403
REMARK  3 active torsions:
REMARK  status: ('A' for Active; 'I' for Inactive)
REMARK    1  A    between atoms: O1_2  and  C2_3 
REMARK    2  A    between atoms: C10_12  and  N2_13 
REMARK    3  A    between atoms: N2_13  and  C11_14 
ROOT
HETATM    1  C2  UNL     1      27.837  -0.904  53.029  1.00  0.00     0.069 A 
HETATM    2  C3  UNL     1      26.739  -1.738  53.001  1.00  0.00     0.039 A 
HETATM    3  C4  UNL     1      25.432  -1.271  52.934  1.00  0.00     0.040 A 
HETATM    4  C5  UNL     1      25.295   0.104  52.896  1.00  0.00     0.086 A 
HETATM    5  C6  UNL     1      26.345   0.988  52.921  1.00  0.00    -0.004 A 
HETATM    6  C7  UNL     1      27.649   0.485  52.988  1.00  0.00     0.048 A 
HETATM    7  C8  UNL     1      26.520   2.452  52.891  1.00  0.00     0.161 C 
HETATM    8  N1  UNL     1      25.294   3.207  53.043  1.00  0.00    -0.379 N 
HETATM    9  C9  UNL     1      23.943   2.891  52.737  1.00  0.00     0.129 A 
HETATM   10  C10 UNL     1      23.251   4.062  52.519  1.00  0.00     0.160 A 
HETATM   11  N4  UNL     1      21.939   3.925  52.193  1.00  0.00    -0.222 NA
HETATM   12  C22 UNL     1      21.364   2.688  52.093  1.00  0.00     0.238 A 
HETATM   13  N5  UNL     1      22.081   1.552  52.317  1.00  0.00    -0.215 NA
HETATM   14  C23 UNL     1      23.380   1.639  52.641  1.00  0.00     0.202 A 
HETATM   15  O2  UNL     1      23.943   0.389  52.831  1.00  0.00    -0.289 OA
HETATM   16  H9  UNL     1      25.409   4.162  53.442  1.00  0.00     0.160 HD
ENDROOT
BRANCH  10  17
HETATM   17  N2  UNL     1      23.782   5.384  52.631  1.00  0.00    -0.338 N 
HETATM   18  H10 UNL     1      24.013   5.997  53.426  1.00  0.00     0.167 HD
BRANCH  17  19
HETATM   19  C11 UNL     1      23.963   5.753  51.249  1.00  0.00     0.049 A 
HETATM   20  C12 UNL     1      24.768   5.246  50.334  1.00  0.00     0.113 A 
HETATM   21  N3  UNL     1      24.764   5.786  49.019  1.00  0.00    -0.385 N 
HETATM   22  C13 UNL     1      23.996   6.930  48.612  1.00  0.00     0.137 A 
HETATM   23  H12 UNL     1      25.365   5.304  48.321  1.00  0.00     0.160 HD
HETATM   24  C14 UNL     1      23.292   6.640  47.333  1.00  0.00     0.003 C 
HETATM   25  C20 UNL     1      23.115   7.430  49.674  1.00  0.00    -0.030 A 
HETATM   26  C15 UNL     1      22.509   7.227  46.443  1.00  0.00    -0.002 C 
HETATM   27  C16 UNL     1      21.970   8.604  46.405  1.00  0.00    -0.000 C 
HETATM   28  C17 UNL     1      21.573   9.443  47.376  1.00  0.00     0.000 C 
HETATM   29  C18 UNL     1      21.503   9.362  48.846  1.00  0.00     0.001 C 
HETATM   30  C19 UNL     1      22.157   8.527  49.660  1.00  0.00     0.009 C 
HETATM   31  C21 UNL     1      23.106   6.897  50.875  1.00  0.00     0.040 A 
ENDBRANCH  17  19
ENDBRANCH  10  17
BRANCH   1  32
HETATM   32  O1  UNL     1      29.147  -1.400  53.095  1.00  0.00    -0.356 OA
HETATM   33  C1  UNL     1      30.141  -0.635  53.748  1.00  0.00     0.210 C 
ENDBRANCH   1  32
TORSDOF 3
ENDMDL
