MODEL 1
REMARK VINA RESULT:      -8.1      0.000      0.000
REMARK  3 active torsions:
REMARK  status: ('A' for Active; 'I' for Inactive)
REMARK    1  A    between atoms: C6_7  and  C7_8 
REMARK       I    between atoms: C7_8  and  N2_10 
REMARK    2  A    between atoms: N2_10  and  C8_11 
REMARK    3  A    between atoms: C9_12  and  C10_13 
ROOT
HETATM    1  C7  UNL     1      25.230   3.774  50.128  1.00  0.00     0.257 C 
HETATM    2  O1  UNL     1      24.212   3.173  49.683  1.00  0.00    -0.267 OA
HETATM    3  N2  UNL     1      25.709   3.226  51.372  1.00  0.00    -0.332 N 
HETATM    4  H7  UNL     1      26.525   3.615  51.846  1.00  0.00     0.168 HD
ENDROOT
BRANCH   3   5
HETATM    5  C8  UNL     1      24.985   2.136  51.878  1.00  0.00     0.104 C 
HETATM    6  C9  UNL     1      25.511   0.999  52.311  1.00  0.00    -0.001 C 
BRANCH   6   7
HETATM    7  C10 UNL     1      26.416   0.059  52.548  1.00  0.00    -0.029 A 
HETATM    8  C11 UNL     1      26.429  -1.395  52.419  1.00  0.00     0.080 A 
HETATM    9  C12 UNL     1      27.834  -1.224  52.934  1.00  0.00    -0.040 A 
HETATM   10  C13 UNL     1      29.007  -1.887  53.289  1.00  0.00     0.027 A 
HETATM   11  C16 UNL     1      27.754   0.168  53.037  1.00  0.00    -0.004 A 
HETATM   12  C14 UNL     1      30.037  -1.050  53.735  1.00  0.00     0.116 A 
HETATM   13  N3  UNL     1      29.972   0.289  53.840  1.00  0.00    -0.272 NA
HETATM   14  C15 UNL     1      28.837   0.908  53.495  1.00  0.00     0.128 A 
ENDBRANCH   6   7
ENDBRANCH   3   5
BRANCH   1  15
HETATM   15  C6  UNL     1      25.999   4.909  49.619  1.00  0.00     0.056 A 
HETATM   16  C2  UNL     1      25.668   6.232  49.797  1.00  0.00     0.046 A 
HETATM   17  C1  UNL     1      24.456   6.544  50.562  1.00  0.00     0.071 C 
HETATM   18  N1  UNL     1      26.449   7.206  49.279  1.00  0.00    -0.265 NA
HETATM   19  C3  UNL     1      27.575   6.888  48.575  1.00  0.00     0.117 A 
HETATM   20  C4  UNL     1      27.982   5.570  48.350  1.00  0.00     0.020 A 
HETATM   21  C5  UNL     1      27.142   4.630  48.903  1.00  0.00     0.020 A 
ENDBRANCH   1  15
TORSDOF 3
ENDMDL
MODEL 2
REMARK VINA RESULT:      -7.9      3.639      6.925
REMARK  3 active torsions:
REMARK  status: ('A' for Active; 'I' for Inactive)
REMARK    1  A    between atoms: C6_7  and  C7_8 
REMARK       I    between atoms: C7_8  and  N2_10 
REMARK    2  A    between atoms: N2_10  and  C8_11 
REMARK    3  A    between atoms: C9_12  and  C10_13 
ROOT
HETATM    1  C7  UNL     1      26.865   1.068  52.407  1.00  0.00     0.257 C 
HETATM    2  O1  UNL     1      26.577   1.496  51.255  1.00  0.00    -0.267 OA
HETATM    3  N2  UNL     1      26.000   1.590  53.436  1.00  0.00    -0.332 N 
HETATM    4  H7  UNL     1      26.118   1.328  54.414  1.00  0.00     0.168 HD
ENDROOT
BRANCH   3   5
HETATM    5  C8  UNL     1      24.997   2.470  53.001  1.00  0.00     0.104 C 
HETATM    6  C9  UNL     1      23.703   2.191  52.941  1.00  0.00    -0.001 C 
BRANCH   6   7
HETATM    7  C10 UNL     1      22.581   1.484  52.970  1.00  0.00    -0.029 A 
HETATM    8  C11 UNL     1      21.273   1.629  52.341  1.00  0.00     0.080 A 
HETATM    9  C12 UNL     1      20.995   0.354  53.095  1.00  0.00    -0.040 A 
HETATM   10  C13 UNL     1      20.041  -0.623  53.372  1.00  0.00     0.027 A 
HETATM   11  C16 UNL     1      22.268   0.277  53.667  1.00  0.00    -0.004 A 
HETATM   12  C14 UNL     1      20.476  -1.633  54.238  1.00  0.00     0.116 A 
HETATM   13  N3  UNL     1      21.697  -1.718  54.796  1.00  0.00    -0.272 NA
HETATM   14  C15 UNL     1      22.600  -0.769  54.520  1.00  0.00     0.128 A 
ENDBRANCH   6   7
ENDBRANCH   3   5
BRANCH   1  15
HETATM   15  C6  UNL     1      27.902   0.153  52.883  1.00  0.00     0.056 A 
HETATM   16  C2  UNL     1      27.784  -1.216  52.938  1.00  0.00     0.046 A 
HETATM   17  C1  UNL     1      26.528  -1.820  52.479  1.00  0.00     0.071 C 
HETATM   18  N1  UNL     1      28.806  -1.971  53.400  1.00  0.00    -0.265 NA
HETATM   19  C3  UNL     1      29.965  -1.383  53.817  1.00  0.00     0.117 A 
HETATM   20  C4  UNL     1      30.167  -0.000  53.792  1.00  0.00     0.020 A 
HETATM   21  C5  UNL     1      29.088   0.707  53.312  1.00  0.00     0.020 A 
ENDBRANCH   1  15
TORSDOF 3
ENDMDL
MODEL 3
REMARK VINA RESULT:      -7.8      3.441      6.022
REMARK  3 active torsions:
REMARK  status: ('A' for Active; 'I' for Inactive)
REMARK    1  A    between atoms: C6_7  and  C7_8 
REMARK       I    between atoms: C7_8  and  N2_10 
REMARK    2  A    between atoms: N2_10  and  C8_11 
REMARK    3  A    between atoms: C9_12  and  C10_13 
ROOT
HETATM    1  C7  UNL     1      22.909   1.087  52.172  1.00  0.00     0.257 C 
HETATM    2  O1  UNL     1      23.180   1.355  50.967  1.00  0.00    -0.267 OA
HETATM    3  N2  UNL     1      23.781   1.752  53.107  1.00  0.00    -0.332 N 
HETATM    4  H7  UNL     1      23.677   1.626  54.114  1.00  0.00     0.168 HD
ENDROOT
BRANCH   3   5
HETATM    5  C8  UNL     1      24.768   2.574  52.543  1.00  0.00     0.104 C 
HETATM    6  C9  UNL     1      26.074   2.352  52.591  1.00  0.00    -0.001 C 
BRANCH   6   7
HETATM    7  C10 UNL     1      27.229   1.803  52.943  1.00  0.00    -0.029 A 
HETATM    8  C11 UNL     1      28.518   2.335  53.370  1.00  0.00     0.080 A 
HETATM    9  C12 UNL     1      28.870   0.871  53.439  1.00  0.00    -0.040 A 
HETATM   10  C13 UNL     1      29.874  -0.048  53.734  1.00  0.00     0.027 A 
HETATM   11  C16 UNL     1      27.611   0.429  53.021  1.00  0.00    -0.004 A 
HETATM   12  C14 UNL     1      29.503  -1.388  53.574  1.00  0.00     0.116 A 
HETATM   13  N3  UNL     1      28.297  -1.827  53.171  1.00  0.00    -0.272 NA
HETATM   14  C15 UNL     1      27.345  -0.929  52.891  1.00  0.00     0.128 A 
ENDBRANCH   6   7
ENDBRANCH   3   5
BRANCH   1  15
HETATM   15  C6  UNL     1      21.888   0.236  52.781  1.00  0.00     0.056 A 
HETATM   16  C2  UNL     1      20.533   0.360  52.581  1.00  0.00     0.046 A 
HETATM   17  C1  UNL     1      20.061   1.418  51.682  1.00  0.00     0.071 C 
HETATM   18  N1  UNL     1      19.673  -0.480  53.200  1.00  0.00    -0.265 NA
HETATM   19  C3  UNL     1      20.139  -1.460  54.029  1.00  0.00     0.117 A 
HETATM   20  C4  UNL     1      21.500  -1.654  54.284  1.00  0.00     0.020 A 
HETATM   21  C5  UNL     1      22.318  -0.765  53.625  1.00  0.00     0.020 A 
ENDBRANCH   1  15
TORSDOF 3
ENDMDL
MODEL 4
REMARK VINA RESULT:      -7.8      4.092      7.434
REMARK  3 active torsions:
REMARK  status: ('A' for Active; 'I' for Inactive)
REMARK    1  A    between atoms: C6_7  and  C7_8 
REMARK       I    between atoms: C7_8  and  N2_10 
REMARK    2  A    between atoms: N2_10  and  C8_11 
REMARK    3  A    between atoms: C9_12  and  C10_13 
ROOT
HETATM    1  C7  UNL     1      26.326   1.094  52.441  1.00  0.00     0.257 C 
HETATM    2  O1  UNL     1      26.122   1.851  51.451  1.00  0.00    -0.267 OA
HETATM    3  N2  UNL     1      25.152   0.902  53.256  1.00  0.00    -0.332 N 
HETATM    4  H7  UNL     1      25.174   0.313  54.089  1.00  0.00     0.168 HD
ENDROOT
BRANCH   3   5
HETATM    5  C8  UNL     1      23.996   1.570  52.828  1.00  0.00     0.104 C 
HETATM    6  C9  UNL     1      22.753   1.147  53.006  1.00  0.00    -0.001 C 
BRANCH   6   7
HETATM    7  C10 UNL     1      21.748   0.340  53.317  1.00  0.00    -0.029 A 
HETATM    8  C11 UNL     1      21.533  -0.659  54.359  1.00  0.00     0.080 A 
HETATM    9  C12 UNL     1      20.199  -0.794  53.671  1.00  0.00    -0.040 A 
HETATM   10  C13 UNL     1      18.974  -1.457  53.677  1.00  0.00     0.027 A 
HETATM   11  C16 UNL     1      20.471   0.173  52.698  1.00  0.00    -0.004 A 
HETATM   12  C14 UNL     1      18.096  -1.069  52.659  1.00  0.00     0.116 A 
HETATM   13  N3  UNL     1      18.346  -0.142  51.716  1.00  0.00    -0.272 NA
HETATM   14  C15 UNL     1      19.529   0.484  51.725  1.00  0.00     0.128 A 
ENDBRANCH   6   7
ENDBRANCH   3   5
BRANCH   1  15
HETATM   15  C6  UNL     1      27.520   0.388  52.906  1.00  0.00     0.056 A 
HETATM   16  C2  UNL     1      28.627   0.986  53.459  1.00  0.00     0.046 A 
HETATM   17  C1  UNL     1      28.622   2.445  53.609  1.00  0.00     0.071 C 
HETATM   18  N1  UNL     1      29.681   0.237  53.852  1.00  0.00    -0.265 NA
HETATM   19  C3  UNL     1      29.659  -1.120  53.706  1.00  0.00     0.117 A 
HETATM   20  C4  UNL     1      28.572  -1.806  53.155  1.00  0.00     0.020 A 
HETATM   21  C5  UNL     1      27.536  -0.984  52.775  1.00  0.00     0.020 A 
ENDBRANCH   1  15
TORSDOF 3
ENDMDL
MODEL 5
REMARK VINA RESULT:      -7.7      1.464      7.651
REMARK  3 active torsions:
REMARK  status: ('A' for Active; 'I' for Inactive)
REMARK    1  A    between atoms: C6_7  and  C7_8 
REMARK       I    between atoms: C7_8  and  N2_10 
REMARK    2  A    between atoms: N2_10  and  C8_11 
REMARK    3  A    between atoms: C9_12  and  C10_13 
ROOT
HETATM    1  C7  UNL     1      26.351   1.967  52.113  1.00  0.00     0.257 C 
HETATM    2  O1  UNL     1      25.389   2.600  52.630  1.00  0.00    -0.267 OA
HETATM    3  N2  UNL     1      26.627   2.371  50.756  1.00  0.00    -0.332 N 
HETATM    4  H7  UNL     1      27.379   1.943  50.216  1.00  0.00     0.168 HD
ENDROOT
BRANCH   3   5
HETATM    5  C8  UNL     1      25.802   3.382  50.241  1.00  0.00     0.104 C 
HETATM    6  C9  UNL     1      26.204   4.386  49.475  1.00  0.00    -0.001 C 
BRANCH   6   7
HETATM    7  C10 UNL     1      27.022   5.215  48.841  1.00  0.00    -0.029 A 
HETATM    8  C11 UNL     1      28.426   5.154  48.450  1.00  0.00     0.080 A 
HETATM    9  C12 UNL     1      28.121   6.522  47.896  1.00  0.00    -0.040 A 
HETATM   10  C13 UNL     1      28.643   7.622  47.220  1.00  0.00     0.027 A 
HETATM   11  C16 UNL     1      26.783   6.516  48.302  1.00  0.00    -0.004 A 
HETATM   12  C14 UNL     1      27.732   8.661  47.005  1.00  0.00     0.116 A 
HETATM   13  N3  UNL     1      26.443   8.669  47.391  1.00  0.00    -0.272 NA
HETATM   14  C15 UNL     1      25.959   7.604  48.041  1.00  0.00     0.128 A 
ENDBRANCH   6   7
ENDBRANCH   3   5
BRANCH   1  15
HETATM   15  C6  UNL     1      27.224   0.913  52.630  1.00  0.00     0.056 A 
HETATM   16  C2  UNL     1      28.370   1.123  53.358  1.00  0.00     0.046 A 
HETATM   17  C1  UNL     1      28.757   2.506  53.655  1.00  0.00     0.071 C 
HETATM   18  N1  UNL     1      29.108   0.074  53.786  1.00  0.00    -0.265 NA
HETATM   19  C3  UNL     1      28.723  -1.204  53.499  1.00  0.00     0.117 A 
HETATM   20  C4  UNL     1      27.571  -1.504  52.766  1.00  0.00     0.020 A 
HETATM   21  C5  UNL     1      26.869  -0.392  52.362  1.00  0.00     0.020 A 
ENDBRANCH   1  15
TORSDOF 3
ENDMDL
MODEL 6
REMARK VINA RESULT:      -7.6      1.196      2.356
REMARK  3 active torsions:
REMARK  status: ('A' for Active; 'I' for Inactive)
REMARK    1  A    between atoms: C6_7  and  C7_8 
REMARK       I    between atoms: C7_8  and  N2_10 
REMARK    2  A    between atoms: N2_10  and  C8_11 
REMARK    3  A    between atoms: C9_12  and  C10_13 
ROOT
HETATM    1  C7  UNL     1      24.611   4.010  50.495  1.00  0.00     0.257 C 
HETATM    2  O1  UNL     1      24.095   3.134  49.745  1.00  0.00    -0.267 OA
HETATM    3  N2  UNL     1      25.004   3.490  51.781  1.00  0.00    -0.332 N 
HETATM    4  H7  UNL     1      25.434   4.087  52.487  1.00  0.00     0.168 HD
ENDROOT
BRANCH   3   5
HETATM    5  C8  UNL     1      24.757   2.125  51.989  1.00  0.00     0.104 C 
HETATM    6  C9  UNL     1      25.647   1.238  52.411  1.00  0.00    -0.001 C 
BRANCH   6   7
HETATM    7  C10 UNL     1      26.819   0.719  52.751  1.00  0.00    -0.029 A 
HETATM    8  C11 UNL     1      28.083   1.283  53.215  1.00  0.00     0.080 A 
HETATM    9  C12 UNL     1      28.491  -0.167  53.226  1.00  0.00    -0.040 A 
HETATM   10  C13 UNL     1      29.528  -1.058  53.493  1.00  0.00     0.027 A 
HETATM   11  C16 UNL     1      27.255  -0.640  52.776  1.00  0.00    -0.004 A 
HETATM   12  C14 UNL     1      29.212  -2.404  53.273  1.00  0.00     0.116 A 
HETATM   13  N3  UNL     1      28.027  -2.872  52.840  1.00  0.00    -0.272 NA
HETATM   14  C15 UNL     1      27.043  -2.001  52.587  1.00  0.00     0.128 A 
ENDBRANCH   6   7
ENDBRANCH   3   5
BRANCH   1  15
HETATM   15  C6  UNL     1      24.878   5.434  50.300  1.00  0.00     0.056 A 
HETATM   16  C2  UNL     1      25.930   5.950  49.580  1.00  0.00     0.046 A 
HETATM   17  C1  UNL     1      26.861   5.010  48.947  1.00  0.00     0.071 C 
HETATM   18  N1  UNL     1      26.087   7.288  49.466  1.00  0.00    -0.265 NA
HETATM   19  C3  UNL     1      25.204   8.141  50.062  1.00  0.00     0.117 A 
HETATM   20  C4  UNL     1      24.108   7.699  50.809  1.00  0.00     0.020 A 
HETATM   21  C5  UNL     1      24.009   6.328  50.886  1.00  0.00     0.020 A 
ENDBRANCH   1  15
TORSDOF 3
ENDMDL
MODEL 7
REMARK VINA RESULT:      -7.6      4.175      6.473
REMARK  3 active torsions:
REMARK  status: ('A' for Active; 'I' for Inactive)
REMARK    1  A    between atoms: C6_7  and  C7_8 
REMARK       I    between atoms: C7_8  and  N2_10 
REMARK    2  A    between atoms: N2_10  and  C8_11 
REMARK    3  A    between atoms: C9_12  and  C10_13 
ROOT
HETATM    1  C7  UNL     1      21.527   1.379  52.309  1.00  0.00     0.257 C 
HETATM    2  O1  UNL     1      21.703   2.587  52.633  1.00  0.00    -0.267 OA
HETATM    3  N2  UNL     1      22.640   0.823  51.580  1.00  0.00    -0.332 N 
HETATM    4  H7  UNL     1      22.633  -0.144  51.255  1.00  0.00     0.168 HD
ENDROOT
BRANCH   3   5
HETATM    5  C8  UNL     1      23.717   1.693  51.353  1.00  0.00     0.104 C 
HETATM    6  C9  UNL     1      24.980   1.453  51.675  1.00  0.00    -0.001 C 
BRANCH   6   7
HETATM    7  C10 UNL     1      26.032   0.856  52.219  1.00  0.00    -0.029 A 
HETATM    8  C11 UNL     1      26.514  -0.522  52.250  1.00  0.00     0.080 A 
HETATM    9  C12 UNL     1      27.619   0.099  53.065  1.00  0.00    -0.040 A 
HETATM   10  C13 UNL     1      28.802  -0.148  53.757  1.00  0.00     0.027 A 
HETATM   11  C16 UNL     1      27.100   1.395  52.998  1.00  0.00    -0.004 A 
HETATM   12  C14 UNL     1      29.381   0.982  54.344  1.00  0.00     0.116 A 
HETATM   13  N3  UNL     1      28.892   2.234  54.288  1.00  0.00    -0.272 NA
HETATM   14  C15 UNL     1      27.753   2.452  53.620  1.00  0.00     0.128 A 
ENDBRANCH   6   7
ENDBRANCH   3   5
BRANCH   1  15
HETATM   15  C6  UNL     1      20.417   0.455  52.535  1.00  0.00     0.056 A 
HETATM   16  C2  UNL     1      20.295  -0.386  53.615  1.00  0.00     0.046 A 
HETATM   17  C1  UNL     1      21.350  -0.359  54.634  1.00  0.00     0.071 C 
HETATM   18  N1  UNL     1      19.226  -1.206  53.724  1.00  0.00    -0.265 NA
HETATM   19  C3  UNL     1      18.256  -1.209  52.764  1.00  0.00     0.117 A 
HETATM   20  C4  UNL     1      18.302  -0.384  51.636  1.00  0.00     0.020 A 
HETATM   21  C5  UNL     1      19.416   0.423  51.588  1.00  0.00     0.020 A 
ENDBRANCH   1  15
TORSDOF 3
ENDMDL
MODEL 8
REMARK VINA RESULT:      -7.6      1.690      2.264
REMARK  3 active torsions:
REMARK  status: ('A' for Active; 'I' for Inactive)
REMARK    1  A    between atoms: C6_7  and  C7_8 
REMARK       I    between atoms: C7_8  and  N2_10 
REMARK    2  A    between atoms: N2_10  and  C8_11 
REMARK    3  A    between atoms: C9_12  and  C10_13 
ROOT
HETATM    1  C7  UNL     1      26.597   5.431  48.936  1.00  0.00     0.257 C 
HETATM    2  O1  UNL     1      25.345   5.553  48.826  1.00  0.00    -0.267 OA
HETATM    3  N2  UNL     1      26.987   4.222  49.618  1.00  0.00    -0.332 N 
HETATM    4  H7  UNL     1      27.969   3.994  49.777  1.00  0.00     0.168 HD
ENDROOT
BRANCH   3   5
HETATM    5  C8  UNL     1      25.937   3.392  50.038  1.00  0.00     0.104 C 
HETATM    6  C9  UNL     1      26.044   2.396  50.906  1.00  0.00    -0.001 C 
BRANCH   6   7
HETATM    7  C10 UNL     1      26.607   1.498  51.704  1.00  0.00    -0.029 A 
HETATM    8  C11 UNL     1      26.492   0.050  51.845  1.00  0.00     0.080 A 
HETATM    9  C12 UNL     1      27.506   0.280  52.935  1.00  0.00    -0.040 A 
HETATM   10  C13 UNL     1      28.284  -0.330  53.917  1.00  0.00     0.027 A 
HETATM   11  C16 UNL     1      27.566   1.665  52.749  1.00  0.00    -0.004 A 
HETATM   12  C14 UNL     1      29.087   0.548  54.653  1.00  0.00     0.116 A 
HETATM   13  N3  UNL     1      29.154   1.881  54.485  1.00  0.00    -0.272 NA
HETATM   14  C15 UNL     1      28.398   2.450  53.538  1.00  0.00     0.128 A 
ENDBRANCH   6   7
ENDBRANCH   3   5
BRANCH   1  15
HETATM   15  C6  UNL     1      27.707   6.280  48.506  1.00  0.00     0.056 A 
HETATM   16  C2  UNL     1      27.651   7.647  48.373  1.00  0.00     0.046 A 
HETATM   17  C1  UNL     1      26.388   8.321  48.691  1.00  0.00     0.071 C 
HETATM   18  N1  UNL     1      28.738   8.337  47.963  1.00  0.00    -0.265 NA
HETATM   19  C3  UNL     1      29.903   7.686  47.677  1.00  0.00     0.117 A 
HETATM   20  C4  UNL     1      30.045   6.300  47.788  1.00  0.00     0.020 A 
HETATM   21  C5  UNL     1      28.901   5.660  48.209  1.00  0.00     0.020 A 
ENDBRANCH   1  15
TORSDOF 3
ENDMDL
MODEL 9
REMARK VINA RESULT:      -7.5      2.197      2.815
REMARK  3 active torsions:
REMARK  status: ('A' for Active; 'I' for Inactive)
REMARK    1  A    between atoms: C6_7  and  C7_8 
REMARK       I    between atoms: C7_8  and  N2_10 
REMARK    2  A    between atoms: N2_10  and  C8_11 
REMARK    3  A    between atoms: C9_12  and  C10_13 
ROOT
HETATM    1  C7  UNL     1      25.174   5.368  49.437  1.00  0.00     0.257 C 
HETATM    2  O1  UNL     1      24.136   5.046  48.792  1.00  0.00    -0.267 OA
HETATM    3  N2  UNL     1      25.030   5.189  50.860  1.00  0.00    -0.332 N 
HETATM    4  H7  UNL     1      25.790   5.411  51.503  1.00  0.00     0.168 HD
ENDROOT
BRANCH   3   5
HETATM    5  C8  UNL     1      23.790   4.695  51.292  1.00  0.00     0.104 C 
HETATM    6  C9  UNL     1      23.600   3.551  51.934  1.00  0.00    -0.001 C 
BRANCH   6   7
HETATM    7  C10 UNL     1      23.861   2.358  52.452  1.00  0.00    -0.029 A 
HETATM    8  C11 UNL     1      23.174   1.071  52.435  1.00  0.00     0.080 A 
HETATM    9  C12 UNL     1      24.362   0.656  53.264  1.00  0.00    -0.040 A 
HETATM   10  C13 UNL     1      24.967  -0.400  53.941  1.00  0.00     0.027 A 
HETATM   11  C16 UNL     1      24.966   1.917  53.242  1.00  0.00    -0.004 A 
HETATM   12  C14 UNL     1      26.179  -0.076  54.562  1.00  0.00     0.116 A 
HETATM   13  N3  UNL     1      26.770   1.132  54.550  1.00  0.00    -0.272 NA
HETATM   14  C15 UNL     1      26.173   2.135  53.896  1.00  0.00     0.128 A 
ENDBRANCH   6   7
ENDBRANCH   3   5
BRANCH   1  15
HETATM   15  C6  UNL     1      26.473   5.884  49.010  1.00  0.00     0.056 A 
HETATM   16  C2  UNL     1      26.797   7.216  48.896  1.00  0.00     0.046 A 
HETATM   17  C1  UNL     1      25.771   8.207  49.234  1.00  0.00     0.071 C 
HETATM   18  N1  UNL     1      28.031   7.585  48.487  1.00  0.00    -0.265 NA
HETATM   19  C3  UNL     1      28.970   6.641  48.182  1.00  0.00     0.117 A 
HETATM   20  C4  UNL     1      28.722   5.268  48.273  1.00  0.00     0.020 A 
HETATM   21  C5  UNL     1      27.448   4.963  48.694  1.00  0.00     0.020 A 
ENDBRANCH   1  15
TORSDOF 3
ENDMDL
