MODEL 1
REMARK VINA RESULT:      -6.8      0.000      0.000
REMARK  4 active torsions:
REMARK  status: ('A' for Active; 'I' for Inactive)
REMARK    1  A    between atoms: C2_2  and  C3_3 
REMARK    2  A    between atoms: C3_3  and  N1_4 
REMARK    3  A    between atoms: C13_16  and  N3_17 
REMARK    4  A    between atoms: C16_21  and  O1_22 
ROOT
HETATM    1  C3  UNL     1      23.269   3.165  51.698  1.00  0.00     0.120 C 
HETATM    2  C9  UNL     1      24.279   3.853  50.810  1.00  0.00     0.124 C 
HETATM    3  N2  UNL     1      25.501   3.852  50.333  1.00  0.00    -0.275 NA
HETATM    4  C10 UNL     1      26.556   2.926  50.581  1.00  0.00     0.114 C 
HETATM    5  C11 UNL     1      26.812   2.053  51.543  1.00  0.00     0.034 C 
HETATM    6  C12 UNL     1      26.160   1.608  52.804  1.00  0.00     0.299 C 
HETATM    7  C13 UNL     1      26.684   0.264  53.144  1.00  0.00     0.038 C 
HETATM    8  C14 UNL     1      25.720  -0.573  53.490  1.00  0.00     0.030 C 
HETATM    9  C15 UNL     1      24.464   0.213  53.389  1.00  0.00     0.306 C 
HETATM   10  N4  UNL     1      24.765   1.340  52.525  1.00  0.00     0.137 N 
HETATM   11  C16 UNL     1      23.886   2.397  52.806  1.00  0.00     0.392 C 
ENDROOT
BRANCH   1  12
HETATM   12  C2  UNL     1      22.496   4.295  52.353  1.00  0.00     0.037 C 
HETATM   13  C1  UNL     1      22.262   5.491  51.512  1.00  0.00     0.008 C 
ENDBRANCH   1  12
BRANCH   1  14
HETATM   14  N1  UNL     1      22.391   2.478  50.822  1.00  0.00    -0.367 N 
HETATM   15  C4  UNL     1      21.396   1.812  51.634  1.00  0.00     0.111 A 
HETATM   16  C5  UNL     1      20.388   1.008  51.243  1.00  0.00     0.049 A 
HETATM   17 CL1  UNL     1      19.180   0.193  52.209  1.00  0.00    -0.083 Cl
HETATM   18  C6  UNL     1      20.245   0.769  49.791  1.00  0.00     0.023 A 
HETATM   19  C7  UNL     1      21.143   1.393  49.059  1.00  0.00    -0.005 A 
HETATM   20  C8  UNL     1      22.272   2.292  49.392  1.00  0.00     0.151 A 
ENDBRANCH   1  14
BRANCH  11  21
HETATM   21  O1  UNL     1      24.575   3.330  53.605  1.00  0.00    -0.366 OA
HETATM   22  H21 UNL     1      25.239   3.793  53.040  1.00  0.00     0.212 HD
ENDBRANCH  11  21
BRANCH   7  23
HETATM   23  N3  UNL     1      28.037  -0.198  53.140  1.00  0.00    -0.401 N 
HETATM   24  H15 UNL     1      28.289  -1.202  53.359  1.00  0.00     0.156 HD
HETATM   25  H16 UNL     1      29.026   0.144  52.974  1.00  0.00     0.156 HD
ENDBRANCH   7  23
TORSDOF 4
ENDMDL
MODEL 2
REMARK VINA RESULT:      -6.6      1.801      2.115
REMARK  4 active torsions:
REMARK  status: ('A' for Active; 'I' for Inactive)
REMARK    1  A    between atoms: C2_2  and  C3_3 
REMARK    2  A    between atoms: C3_3  and  N1_4 
REMARK    3  A    between atoms: C13_16  and  N3_17 
REMARK    4  A    between atoms: C16_21  and  O1_22 
ROOT
HETATM    1  C3  UNL     1      23.544   3.150  51.456  1.00  0.00     0.120 C 
HETATM    2  C9  UNL     1      24.790   3.637  50.754  1.00  0.00     0.124 C 
HETATM    3  N2  UNL     1      26.074   3.462  50.553  1.00  0.00    -0.275 NA
HETATM    4  C10 UNL     1      26.937   2.466  51.096  1.00  0.00     0.114 C 
HETATM    5  C11 UNL     1      26.882   1.677  52.158  1.00  0.00     0.034 C 
HETATM    6  C12 UNL     1      25.936   1.433  53.280  1.00  0.00     0.299 C 
HETATM    7  C13 UNL     1      26.214   0.087  53.832  1.00  0.00     0.038 C 
HETATM    8  C14 UNL     1      25.106  -0.609  54.029  1.00  0.00     0.030 C 
HETATM    9  C15 UNL     1      24.002   0.285  53.597  1.00  0.00     0.306 C 
HETATM   10  N4  UNL     1      24.607   1.280  52.730  1.00  0.00     0.137 N 
HETATM   11  C16 UNL     1      23.823   2.443  52.729  1.00  0.00     0.392 C 
ENDROOT
BRANCH   1  12
HETATM   12  C2  UNL     1      22.795   4.414  51.836  1.00  0.00     0.037 C 
HETATM   13  C1  UNL     1      21.387   4.229  52.258  1.00  0.00     0.008 C 
ENDBRANCH   1  12
BRANCH   1  14
HETATM   14  N1  UNL     1      22.787   2.468  50.470  1.00  0.00    -0.367 N 
HETATM   15  C4  UNL     1      22.781   3.287  49.278  1.00  0.00     0.111 A 
HETATM   16  C5  UNL     1      22.155   3.066  48.105  1.00  0.00     0.049 A 
HETATM   17 CL1  UNL     1      22.135   4.044  46.657  1.00  0.00    -0.083 Cl
HETATM   18  C6  UNL     1      21.374   1.816  47.986  1.00  0.00     0.023 A 
HETATM   19  C7  UNL     1      21.400   1.068  49.069  1.00  0.00    -0.005 A 
HETATM   20  C8  UNL     1      22.055   1.222  50.389  1.00  0.00     0.151 A 
ENDBRANCH   1  14
BRANCH  11  21
HETATM   21  O1  UNL     1      24.440   3.381  53.580  1.00  0.00    -0.366 OA
HETATM   22  H21 UNL     1      24.961   2.889  54.260  1.00  0.00     0.212 HD
ENDBRANCH  11  21
BRANCH   7  23
HETATM   23  N3  UNL     1      27.474  -0.508  54.158  1.00  0.00    -0.401 N 
HETATM   24  H15 UNL     1      28.256   0.044  54.607  1.00  0.00     0.156 HD
HETATM   25  H16 UNL     1      27.988  -1.433  54.107  1.00  0.00     0.156 HD
ENDBRANCH   7  23
TORSDOF 4
ENDMDL
MODEL 3
REMARK VINA RESULT:      -6.2      3.365      5.269
REMARK  4 active torsions:
REMARK  status: ('A' for Active; 'I' for Inactive)
REMARK    1  A    between atoms: C2_2  and  C3_3 
REMARK    2  A    between atoms: C3_3  and  N1_4 
REMARK    3  A    between atoms: C13_16  and  N3_17 
REMARK    4  A    between atoms: C16_21  and  O1_22 
ROOT
HETATM    1  C3  UNL     1      22.208   2.925  49.563  1.00  0.00     0.120 C 
HETATM    2  C9  UNL     1      20.784   3.419  49.676  1.00  0.00     0.124 C 
HETATM    3  N2  UNL     1      19.690   3.455  50.399  1.00  0.00    -0.275 NA
HETATM    4  C10 UNL     1      19.441   2.866  51.674  1.00  0.00     0.114 C 
HETATM    5  C11 UNL     1      19.993   1.875  52.356  1.00  0.00     0.034 C 
HETATM    6  C12 UNL     1      21.107   0.910  52.157  1.00  0.00     0.299 C 
HETATM    7  C13 UNL     1      21.531   0.414  53.488  1.00  0.00     0.038 C 
HETATM    8  C14 UNL     1      22.847   0.415  53.623  1.00  0.00     0.030 C 
HETATM    9  C15 UNL     1      23.372   0.934  52.335  1.00  0.00     0.306 C 
HETATM   10  N4  UNL     1      22.271   1.643  51.709  1.00  0.00     0.137 N 
HETATM   11  C16 UNL     1      22.459   1.674  50.319  1.00  0.00     0.392 C 
ENDROOT
BRANCH   1  12
HETATM   12  C2  UNL     1      22.378   2.568  48.098  1.00  0.00     0.037 C 
HETATM   13  C1  UNL     1      21.514   3.306  47.148  1.00  0.00     0.008 C 
ENDBRANCH   1  12
BRANCH   1  14
HETATM   14  N1  UNL     1      23.028   4.047  49.843  1.00  0.00    -0.367 N 
HETATM   15  C4  UNL     1      24.373   3.721  49.424  1.00  0.00     0.111 A 
HETATM   16  C5  UNL     1      25.494   4.461  49.532  1.00  0.00     0.049 A 
HETATM   17 CL1  UNL     1      27.126   4.082  49.034  1.00  0.00    -0.083 Cl
HETATM   18  C6  UNL     1      25.357   5.799  50.145  1.00  0.00     0.023 A 
HETATM   19  C7  UNL     1      24.127   6.095  50.508  1.00  0.00    -0.005 A 
HETATM   20  C8  UNL     1      22.844   5.359  50.426  1.00  0.00     0.151 A 
ENDBRANCH   1  14
BRANCH  11  21
HETATM   21  O1  UNL     1      21.630   0.689  49.749  1.00  0.00    -0.366 OA
HETATM   22  H21 UNL     1      21.957  -0.197  50.038  1.00  0.00     0.212 HD
ENDBRANCH  11  21
BRANCH   7  23
HETATM   23  N3  UNL     1      20.721  -0.039  54.576  1.00  0.00    -0.401 N 
HETATM   24  H15 UNL     1      19.775   0.385  54.787  1.00  0.00     0.156 HD
HETATM   25  H16 UNL     1      20.719  -0.746  55.365  1.00  0.00     0.156 HD
ENDBRANCH   7  23
TORSDOF 4
ENDMDL
MODEL 4
REMARK VINA RESULT:      -6.2      3.495      4.832
REMARK  4 active torsions:
REMARK  status: ('A' for Active; 'I' for Inactive)
REMARK    1  A    between atoms: C2_2  and  C3_3 
REMARK    2  A    between atoms: C3_3  and  N1_4 
REMARK    3  A    between atoms: C13_16  and  N3_17 
REMARK    4  A    between atoms: C16_21  and  O1_22 
ROOT
HETATM    1  C3  UNL     1      23.405   5.316  49.775  1.00  0.00     0.120 C 
HETATM    2  C9  UNL     1      22.961   6.550  49.025  1.00  0.00     0.124 C 
HETATM    3  N2  UNL     1      23.297   7.511  48.198  1.00  0.00    -0.275 NA
HETATM    4  C10 UNL     1      24.554   7.752  47.570  1.00  0.00     0.114 C 
HETATM    5  C11 UNL     1      25.801   7.389  47.832  1.00  0.00     0.034 C 
HETATM    6  C12 UNL     1      26.500   6.580  48.865  1.00  0.00     0.299 C 
HETATM    7  C13 UNL     1      27.801   6.143  48.306  1.00  0.00     0.038 C 
HETATM    8  C14 UNL     1      28.037   4.862  48.534  1.00  0.00     0.030 C 
HETATM    9  C15 UNL     1      26.852   4.375  49.285  1.00  0.00     0.306 C 
HETATM   10  N4  UNL     1      25.790   5.329  49.022  1.00  0.00     0.137 N 
HETATM   11  C16 UNL     1      24.858   5.299  50.071  1.00  0.00     0.392 C 
ENDROOT
BRANCH   1  12
HETATM   12  C2  UNL     1      22.707   5.408  51.119  1.00  0.00     0.037 C 
HETATM   13  C1  UNL     1      21.564   6.347  51.191  1.00  0.00     0.008 C 
ENDBRANCH   1  12
BRANCH   1  14
HETATM   14  N1  UNL     1      22.858   4.217  49.066  1.00  0.00    -0.367 N 
HETATM   15  C4  UNL     1      22.638   3.150  50.017  1.00  0.00     0.111 A 
HETATM   16  C5  UNL     1      22.176   1.904  49.795  1.00  0.00     0.049 A 
HETATM   17 CL1  UNL     1      21.905   0.602  50.930  1.00  0.00    -0.083 Cl
HETATM   18  C6  UNL     1      21.822   1.557  48.402  1.00  0.00     0.023 A 
HETATM   19  C7  UNL     1      22.009   2.540  47.546  1.00  0.00    -0.005 A 
HETATM   20  C8  UNL     1      22.501   3.929  47.694  1.00  0.00     0.151 A 
ENDBRANCH   1  14
BRANCH  11  21
HETATM   21  O1  UNL     1      25.110   6.405  50.904  1.00  0.00    -0.366 OA
HETATM   22  H21 UNL     1      26.015   6.306  51.288  1.00  0.00     0.212 HD
ENDBRANCH  11  21
BRANCH   7  23
HETATM   23  N3  UNL     1      28.773   6.911  47.589  1.00  0.00    -0.401 N 
HETATM   24  H15 UNL     1      28.746   7.968  47.565  1.00  0.00     0.156 HD
HETATM   25  H16 UNL     1      29.635   6.794  46.986  1.00  0.00     0.156 HD
ENDBRANCH   7  23
TORSDOF 4
ENDMDL
MODEL 5
REMARK VINA RESULT:      -6.1      6.606      9.357
REMARK  4 active torsions:
REMARK  status: ('A' for Active; 'I' for Inactive)
REMARK    1  A    between atoms: C2_2  and  C3_3 
REMARK    2  A    between atoms: C3_3  and  N1_4 
REMARK    3  A    between atoms: C13_16  and  N3_17 
REMARK    4  A    between atoms: C16_21  and  O1_22 
ROOT
HETATM    1  C3  UNL     1      29.290   7.831  47.609  1.00  0.00     0.120 C 
HETATM    2  C9  UNL     1      29.139   9.129  48.367  1.00  0.00     0.124 C 
HETATM    3  N2  UNL     1      28.521   9.772  49.328  1.00  0.00    -0.275 NA
HETATM    4  C10 UNL     1      27.504   9.300  50.209  1.00  0.00     0.114 C 
HETATM    5  C11 UNL     1      26.634   8.303  50.164  1.00  0.00     0.034 C 
HETATM    6  C12 UNL     1      26.286   7.210  49.218  1.00  0.00     0.299 C 
HETATM    7  C13 UNL     1      25.587   6.147  49.979  1.00  0.00     0.038 C 
HETATM    8  C14 UNL     1      26.044   4.941  49.684  1.00  0.00     0.030 C 
HETATM    9  C15 UNL     1      27.111   5.163  48.675  1.00  0.00     0.306 C 
HETATM   10  N4  UNL     1      27.509   6.552  48.811  1.00  0.00     0.137 N 
HETATM   11  C16 UNL     1      28.057   7.006  47.602  1.00  0.00     0.392 C 
ENDROOT
BRANCH   1  12
HETATM   12  C2  UNL     1      29.520   8.249  46.168  1.00  0.00     0.037 C 
HETATM   13  C1  UNL     1      30.191   9.555  45.973  1.00  0.00     0.008 C 
ENDBRANCH   1  12
BRANCH   1  14
HETATM   14  N1  UNL     1      30.483   7.238  48.093  1.00  0.00    -0.367 N 
HETATM   15  C4  UNL     1      30.662   5.983  47.396  1.00  0.00     0.111 A 
HETATM   16  C5  UNL     1      31.629   5.059  47.557  1.00  0.00     0.049 A 
HETATM   17 CL1  UNL     1      31.859   3.537  46.727  1.00  0.00    -0.083 Cl
HETATM   18  C6  UNL     1      32.672   5.347  48.564  1.00  0.00     0.023 A 
HETATM   19  C7  UNL     1      32.512   6.499  49.181  1.00  0.00    -0.005 A 
HETATM   20  C8  UNL     1      31.497   7.572  49.070  1.00  0.00     0.151 A 
ENDBRANCH   1  14
BRANCH  11  21
HETATM   21  O1  UNL     1      27.073   7.764  46.939  1.00  0.00    -0.366 OA
HETATM   22  H21 UNL     1      27.455   8.648  46.721  1.00  0.00     0.212 HD
ENDBRANCH  11  21
BRANCH   7  23
HETATM   23  N3  UNL     1      24.534   6.275  50.939  1.00  0.00    -0.401 N 
HETATM   24  H15 UNL     1      23.864   5.484  51.146  1.00  0.00     0.156 HD
HETATM   25  H16 UNL     1      24.117   6.973  51.618  1.00  0.00     0.156 HD
ENDBRANCH   7  23
TORSDOF 4
ENDMDL
MODEL 6
REMARK VINA RESULT:      -6.0      2.498      4.791
REMARK  4 active torsions:
REMARK  status: ('A' for Active; 'I' for Inactive)
REMARK    1  A    between atoms: C2_2  and  C3_3 
REMARK    2  A    between atoms: C3_3  and  N1_4 
REMARK    3  A    between atoms: C13_16  and  N3_17 
REMARK    4  A    between atoms: C16_21  and  O1_22 
ROOT
HETATM    1  C3  UNL     1      23.574   2.357  52.035  1.00  0.00     0.120 C 
HETATM    2  C9  UNL     1      23.673   3.735  52.647  1.00  0.00     0.124 C 
HETATM    3  N2  UNL     1      23.525   5.026  52.470  1.00  0.00    -0.275 NA
HETATM    4  C10 UNL     1      23.099   5.726  51.304  1.00  0.00     0.114 C 
HETATM    5  C11 UNL     1      23.062   5.432  50.013  1.00  0.00     0.034 C 
HETATM    6  C12 UNL     1      23.428   4.275  49.154  1.00  0.00     0.299 C 
HETATM    7  C13 UNL     1      22.673   4.387  47.884  1.00  0.00     0.038 C 
HETATM    8  C14 UNL     1      22.125   3.236  47.527  1.00  0.00     0.030 C 
HETATM    9  C15 UNL     1      22.510   2.274  48.590  1.00  0.00     0.306 C 
HETATM   10  N4  UNL     1      22.874   3.076  49.744  1.00  0.00     0.137 N 
HETATM   11  C16 UNL     1      23.754   2.352  50.563  1.00  0.00     0.392 C 
ENDROOT
BRANCH   1  12
HETATM   12  C2  UNL     1      24.758   1.595  52.602  1.00  0.00     0.037 C 
HETATM   13  C1  UNL     1      25.603   2.339  53.565  1.00  0.00     0.008 C 
ENDBRANCH   1  12
BRANCH   1  14
HETATM   14  N1  UNL     1      22.388   1.785  52.561  1.00  0.00    -0.367 N 
HETATM   15  C4  UNL     1      22.769   0.636  53.352  1.00  0.00     0.111 A 
HETATM   16  C5  UNL     1      21.979  -0.239  54.004  1.00  0.00     0.049 A 
HETATM   17 CL1  UNL     1      22.421  -1.633  54.962  1.00  0.00    -0.083 Cl
HETATM   18  C6  UNL     1      20.520  -0.008  53.933  1.00  0.00     0.023 A 
HETATM   19  C7  UNL     1      20.183   1.050  53.226  1.00  0.00    -0.005 A 
HETATM   20  C8  UNL     1      20.970   2.063  52.485  1.00  0.00     0.151 A 
ENDBRANCH   1  14
BRANCH  11  21
HETATM   21  O1  UNL     1      25.058   2.823  50.318  1.00  0.00    -0.366 OA
HETATM   22  H21 UNL     1      25.127   3.067  49.363  1.00  0.00     0.212 HD
ENDBRANCH  11  21
BRANCH   7  23
HETATM   23  N3  UNL     1      22.483   5.534  47.051  1.00  0.00    -0.401 N 
HETATM   24  H15 UNL     1      23.120   6.377  47.101  1.00  0.00     0.156 HD
HETATM   25  H16 UNL     1      21.845   5.906  46.291  1.00  0.00     0.156 HD
ENDBRANCH   7  23
TORSDOF 4
ENDMDL
MODEL 7
REMARK VINA RESULT:      -5.9      2.385      5.045
REMARK  4 active torsions:
REMARK  status: ('A' for Active; 'I' for Inactive)
REMARK    1  A    between atoms: C2_2  and  C3_3 
REMARK    2  A    between atoms: C3_3  and  N1_4 
REMARK    3  A    between atoms: C13_16  and  N3_17 
REMARK    4  A    between atoms: C16_21  and  O1_22 
ROOT
HETATM    1  C3  UNL     1      22.112   1.810  51.565  1.00  0.00     0.120 C 
HETATM    2  C9  UNL     1      22.037   1.380  50.118  1.00  0.00     0.124 C 
HETATM    3  N2  UNL     1      22.254   1.703  48.866  1.00  0.00    -0.275 NA
HETATM    4  C10 UNL     1      22.784   2.915  48.334  1.00  0.00     0.114 C 
HETATM    5  C11 UNL     1      22.889   4.155  48.788  1.00  0.00     0.034 C 
HETATM    6  C12 UNL     1      22.526   4.888  50.030  1.00  0.00     0.299 C 
HETATM    7  C13 UNL     1      23.364   6.107  50.106  1.00  0.00     0.038 C 
HETATM    8  C14 UNL     1      23.881   6.282  51.312  1.00  0.00     0.030 C 
HETATM    9  C15 UNL     1      23.387   5.137  52.118  1.00  0.00     0.306 C 
HETATM   10  N4  UNL     1      22.987   4.118  51.165  1.00  0.00     0.137 N 
HETATM   11  C16 UNL     1      22.025   3.279  51.748  1.00  0.00     0.392 C 
ENDROOT
BRANCH   1  12
HETATM   12  C2  UNL     1      20.862   1.235  52.204  1.00  0.00     0.037 C 
HETATM   13  C1  UNL     1      20.000   0.419  51.319  1.00  0.00     0.008 C 
ENDBRANCH   1  12
BRANCH   1  14
HETATM   14  N1  UNL     1      23.236   1.138  52.109  1.00  0.00    -0.367 N 
HETATM   15  C4  UNL     1      22.769   0.323  53.208  1.00  0.00     0.111 A 
HETATM   16  C5  UNL     1      23.483  -0.454  54.046  1.00  0.00     0.049 A 
HETATM   17 CL1  UNL     1      22.936  -1.443  55.379  1.00  0.00    -0.083 Cl
HETATM   18  C6  UNL     1      24.944  -0.512  53.825  1.00  0.00     0.023 A 
HETATM   19  C7  UNL     1      25.358   0.219  52.812  1.00  0.00    -0.005 A 
HETATM   20  C8  UNL     1      24.657   1.091  51.841  1.00  0.00     0.151 A 
ENDBRANCH   1  14
BRANCH  11  21
HETATM   21  O1  UNL     1      20.762   3.668  51.263  1.00  0.00    -0.366 OA
HETATM   22  H21 UNL     1      20.083   3.055  51.635  1.00  0.00     0.212 HD
ENDBRANCH  11  21
BRANCH   7  23
HETATM   23  N3  UNL     1      23.658   7.060  49.081  1.00  0.00    -0.401 N 
HETATM   24  H15 UNL     1      23.664   6.798  48.056  1.00  0.00     0.156 HD
HETATM   25  H16 UNL     1      23.909   8.081  48.949  1.00  0.00     0.156 HD
ENDBRANCH   7  23
TORSDOF 4
ENDMDL
MODEL 8
REMARK VINA RESULT:      -5.9      3.213      4.886
REMARK  4 active torsions:
REMARK  status: ('A' for Active; 'I' for Inactive)
REMARK    1  A    between atoms: C2_2  and  C3_3 
REMARK    2  A    between atoms: C3_3  and  N1_4 
REMARK    3  A    between atoms: C13_16  and  N3_17 
REMARK    4  A    between atoms: C16_21  and  O1_22 
ROOT
HETATM    1  C3  UNL     1      21.447   3.393  51.072  1.00  0.00     0.120 C 
HETATM    2  C9  UNL     1      22.687   3.056  51.867  1.00  0.00     0.124 C 
HETATM    3  N2  UNL     1      23.280   2.200  52.665  1.00  0.00    -0.275 NA
HETATM    4  C10 UNL     1      22.787   0.963  53.172  1.00  0.00     0.114 C 
HETATM    5  C11 UNL     1      21.578   0.446  53.333  1.00  0.00     0.034 C 
HETATM    6  C12 UNL     1      20.176   0.870  53.079  1.00  0.00     0.299 C 
HETATM    7  C13 UNL     1      19.333  -0.346  53.001  1.00  0.00     0.038 C 
HETATM    8  C14 UNL     1      18.505  -0.313  51.970  1.00  0.00     0.030 C 
HETATM    9  C15 UNL     1      18.776   0.979  51.292  1.00  0.00     0.306 C 
HETATM   10  N4  UNL     1      20.095   1.395  51.732  1.00  0.00     0.137 N 
HETATM   11  C16 UNL     1      20.211   2.789  51.627  1.00  0.00     0.392 C 
ENDROOT
BRANCH   1  12
HETATM   12  C2  UNL     1      21.283   4.893  51.226  1.00  0.00     0.037 C 
HETATM   13  C1  UNL     1      22.437   5.612  51.814  1.00  0.00     0.008 C 
ENDBRANCH   1  12
BRANCH   1  14
HETATM   14  N1  UNL     1      21.770   3.120  49.719  1.00  0.00    -0.367 N 
HETATM   15  C4  UNL     1      21.134   4.131  48.905  1.00  0.00     0.111 A 
HETATM   16  C5  UNL     1      21.125   4.252  47.563  1.00  0.00     0.049 A 
HETATM   17 CL1  UNL     1      20.360   5.464  46.562  1.00  0.00    -0.083 Cl
HETATM   18  C6  UNL     1      21.872   3.234  46.793  1.00  0.00     0.023 A 
HETATM   19  C7  UNL     1      22.462   2.327  47.542  1.00  0.00    -0.005 A 
HETATM   20  C8  UNL     1      22.533   2.118  49.007  1.00  0.00     0.151 A 
ENDBRANCH   1  14
BRANCH  11  21
HETATM   21  O1  UNL     1      20.041   3.335  52.914  1.00  0.00    -0.366 OA
HETATM   22  H21 UNL     1      19.141   3.740  52.964  1.00  0.00     0.212 HD
ENDBRANCH  11  21
BRANCH   7  23
HETATM   23  N3  UNL     1      19.318  -1.484  53.869  1.00  0.00    -0.401 N 
HETATM   24  H15 UNL     1      19.414  -2.471  53.502  1.00  0.00     0.156 HD
HETATM   25  H16 UNL     1      19.233  -1.740  54.893  1.00  0.00     0.156 HD
ENDBRANCH   7  23
TORSDOF 4
ENDMDL
MODEL 9
REMARK VINA RESULT:      -5.8      7.885      9.971
REMARK  4 active torsions:
REMARK  status: ('A' for Active; 'I' for Inactive)
REMARK    1  A    between atoms: C2_2  and  C3_3 
REMARK    2  A    between atoms: C3_3  and  N1_4 
REMARK    3  A    between atoms: C13_16  and  N3_17 
REMARK    4  A    between atoms: C16_21  and  O1_22 
ROOT
HETATM    1  C3  UNL     1      30.847   7.605  48.200  1.00  0.00     0.120 C 
HETATM    2  C9  UNL     1      30.737   8.379  46.907  1.00  0.00     0.124 C 
HETATM    3  N2  UNL     1      31.114   8.481  45.655  1.00  0.00    -0.275 NA
HETATM    4  C10 UNL     1      32.002   7.645  44.918  1.00  0.00     0.114 C 
HETATM    5  C11 UNL     1      32.959   6.792  45.252  1.00  0.00     0.034 C 
HETATM    6  C12 UNL     1      33.571   6.289  46.511  1.00  0.00     0.299 C 
HETATM    7  C13 UNL     1      34.225   4.992  46.218  1.00  0.00     0.038 C 
HETATM    8  C14 UNL     1      33.945   4.076  47.131  1.00  0.00     0.030 C 
HETATM    9  C15 UNL     1      33.054   4.755  48.106  1.00  0.00     0.306 C 
HETATM   10  N4  UNL     1      32.506   5.907  47.414  1.00  0.00     0.137 N 
HETATM   11  C16 UNL     1      32.136   6.886  48.348  1.00  0.00     0.392 C 
ENDROOT
BRANCH   1  12
HETATM   12  C2  UNL     1      30.833   8.664  49.287  1.00  0.00     0.037 C 
HETATM   13  C1  UNL     1      30.869  10.069  48.821  1.00  0.00     0.008 C 
ENDBRANCH   1  12
BRANCH   1  14
HETATM   14  N1  UNL     1      29.651   6.851  48.301  1.00  0.00    -0.367 N 
HETATM   15  C4  UNL     1      28.564   7.781  48.513  1.00  0.00     0.111 A 
HETATM   16  C5  UNL     1      27.256   7.521  48.709  1.00  0.00     0.049 A 
HETATM   17 CL1  UNL     1      25.931   8.631  48.968  1.00  0.00    -0.083 Cl
HETATM   18  C6  UNL     1      26.845   6.101  48.695  1.00  0.00     0.023 A 
HETATM   19  C7  UNL     1      27.838   5.262  48.485  1.00  0.00    -0.005 A 
HETATM   20  C8  UNL     1      29.289   5.451  48.256  1.00  0.00     0.151 A 
ENDBRANCH   1  14
BRANCH  11  21
HETATM   21  O1  UNL     1      33.143   7.870  48.365  1.00  0.00    -0.366 OA
HETATM   22  H21 UNL     1      33.706   7.752  47.562  1.00  0.00     0.212 HD
ENDBRANCH  11  21
BRANCH   7  23
HETATM   23  N3  UNL     1      35.077   4.644  45.124  1.00  0.00    -0.401 N 
HETATM   24  H15 UNL     1      35.184   5.266  44.275  1.00  0.00     0.156 HD
HETATM   25  H16 UNL     1      35.737   3.880  44.802  1.00  0.00     0.156 HD
ENDBRANCH   7  23
TORSDOF 4
ENDMDL
