MODEL 1
REMARK VINA RESULT:      -7.5      0.000      0.000
REMARK  5 active torsions:
REMARK  status: ('A' for Active; 'I' for Inactive)
REMARK    1  A    between atoms: C1_2  and  C2_3 
REMARK    2  A    between atoms: C2_3  and  C3_4 
REMARK    3  A    between atoms: C3_4  and  C4_5 
REMARK    4  A    between atoms: C7_8  and  N1_9 
REMARK    5  A    between atoms: N1_9  and  C8_10 
ROOT
HETATM    1  N1  UNL     1      25.575   2.746  50.753  1.00  0.00    -0.320 N 
HETATM    2  H6  UNL     1      24.578   2.401  50.670  1.00  0.00     0.169 HD
ENDROOT
BRANCH   1   3
HETATM    3  C7  UNL     1      25.870   3.932  50.036  1.00  0.00     0.035 A 
HETATM    4  C6  UNL     1      27.040   4.044  49.298  1.00  0.00     0.030 A 
HETATM    5  C5  UNL     1      27.365   5.176  48.586  1.00  0.00     0.009 A 
HETATM    6  C4  UNL     1      26.538   6.275  48.568  1.00  0.00    -0.054 A 
HETATM    7  C16 UNL     1      25.372   6.201  49.287  1.00  0.00     0.009 A 
HETATM    8  C15 UNL     1      25.075   5.053  49.988  1.00  0.00     0.030 A 
BRANCH   6   9
HETATM    9  C3  UNL     1      26.906   7.476  47.800  1.00  0.00     0.070 C 
BRANCH   9  10
HETATM   10  C2  UNL     1      27.944   8.289  48.482  1.00  0.00     0.037 C 
BRANCH  10  11
HETATM   11  C1  UNL     1      27.695   8.954  49.591  1.00  0.00     0.217 C 
HETATM   12  O1  UNL     1      27.226   9.692  50.492  1.00  0.00    -0.284 OA
ENDBRANCH  10  11
ENDBRANCH   9  10
ENDBRANCH   6   9
ENDBRANCH   1   3
BRANCH   1  13
HETATM   13  C8  UNL     1      26.486   2.005  51.550  1.00  0.00     0.252 A 
HETATM   14  N2  UNL     1      27.509   2.411  52.315  1.00  0.00    -0.206 NA
HETATM   15  C9  UNL     1      28.095   1.364  52.888  1.00  0.00     0.096 A 
HETATM   16  C10 UNL     1      29.154   1.142  53.748  1.00  0.00     0.035 A 
HETATM   17  C14 UNL     1      27.386   0.272  52.443  1.00  0.00     0.129 A 
HETATM   18  C11 UNL     1      29.475  -0.140  54.136  1.00  0.00     0.004 A 
HETATM   19  C12 UNL     1      28.755  -1.224  53.681  1.00  0.00     0.027 A 
HETATM   20  C13 UNL     1      27.691  -1.026  52.820  1.00  0.00     0.070 A 
HETATM   21 CL1  UNL     1      26.777  -2.402  52.243  1.00  0.00    -0.081 Cl
HETATM   22  O2  UNL     1      26.455   0.699  51.662  1.00  0.00    -0.274 OA
ENDBRANCH   1  13
TORSDOF 5
ENDMDL
MODEL 2
REMARK VINA RESULT:      -7.5      5.438      7.850
REMARK  5 active torsions:
REMARK  status: ('A' for Active; 'I' for Inactive)
REMARK    1  A    between atoms: C1_2  and  C2_3 
REMARK    2  A    between atoms: C2_3  and  C3_4 
REMARK    3  A    between atoms: C3_4  and  C4_5 
REMARK    4  A    between atoms: C7_8  and  N1_9 
REMARK    5  A    between atoms: N1_9  and  C8_10 
ROOT
HETATM    1  N1  UNL     1      24.331   1.082  52.656  1.00  0.00    -0.320 N 
HETATM    2  H6  UNL     1      24.339   2.086  52.322  1.00  0.00     0.169 HD
ENDROOT
BRANCH   1   3
HETATM    3  C7  UNL     1      23.047   0.526  52.879  1.00  0.00     0.035 A 
HETATM    4  C6  UNL     1      22.040   0.661  51.933  1.00  0.00     0.030 A 
HETATM    5  C5  UNL     1      20.779   0.137  52.109  1.00  0.00     0.009 A 
HETATM    6  C4  UNL     1      20.443  -0.558  53.247  1.00  0.00    -0.054 A 
HETATM    7  C16 UNL     1      21.413  -0.712  54.205  1.00  0.00     0.009 A 
HETATM    8  C15 UNL     1      22.665  -0.176  53.999  1.00  0.00     0.030 A 
BRANCH   6   9
HETATM    9  C3  UNL     1      19.088  -1.111  53.413  1.00  0.00     0.070 C 
BRANCH   9  10
HETATM   10  C2  UNL     1      18.132  -0.577  52.411  1.00  0.00     0.037 C 
BRANCH  10  11
HETATM   11  C1  UNL     1      16.842  -0.480  52.658  1.00  0.00     0.217 C 
HETATM   12  O1  UNL     1      15.700  -0.169  53.074  1.00  0.00    -0.284 OA
ENDBRANCH  10  11
ENDBRANCH   9  10
ENDBRANCH   6   9
ENDBRANCH   1   3
BRANCH   1  13
HETATM   13  C8  UNL     1      25.571   0.417  52.841  1.00  0.00     0.252 A 
HETATM   14  N2  UNL     1      25.928  -0.851  52.596  1.00  0.00    -0.206 NA
HETATM   15  C9  UNL     1      27.203  -1.038  52.922  1.00  0.00     0.096 A 
HETATM   16  C10 UNL     1      28.110  -2.081  52.902  1.00  0.00     0.035 A 
HETATM   17  C14 UNL     1      27.634   0.184  53.387  1.00  0.00     0.129 A 
HETATM   18  C11 UNL     1      29.401  -1.884  53.340  1.00  0.00     0.004 A 
HETATM   19  C12 UNL     1      29.817  -0.654  53.803  1.00  0.00     0.027 A 
HETATM   20  C13 UNL     1      28.927   0.403  53.832  1.00  0.00     0.070 A 
HETATM   21 CL1  UNL     1      29.457   1.964  54.419  1.00  0.00    -0.081 Cl
HETATM   22  O2  UNL     1      26.643   1.002  53.320  1.00  0.00    -0.274 OA
ENDBRANCH   1  13
TORSDOF 5
ENDMDL
MODEL 3
REMARK VINA RESULT:      -7.5      3.418      4.366
REMARK  5 active torsions:
REMARK  status: ('A' for Active; 'I' for Inactive)
REMARK    1  A    between atoms: C1_2  and  C2_3 
REMARK    2  A    between atoms: C2_3  and  C3_4 
REMARK    3  A    between atoms: C3_4  and  C4_5 
REMARK    4  A    between atoms: C7_8  and  N1_9 
REMARK    5  A    between atoms: N1_9  and  C8_10 
ROOT
HETATM    1  N1  UNL     1      25.278   2.805  52.382  1.00  0.00    -0.320 N 
HETATM    2  H6  UNL     1      25.053   3.613  53.028  1.00  0.00     0.169 HD
ENDROOT
BRANCH   1   3
HETATM    3  C7  UNL     1      24.432   2.678  51.252  1.00  0.00     0.035 A 
HETATM    4  C6  UNL     1      24.702   3.369  50.080  1.00  0.00     0.030 A 
HETATM    5  C5  UNL     1      23.908   3.275  48.960  1.00  0.00     0.009 A 
HETATM    6  C4  UNL     1      22.786   2.480  48.941  1.00  0.00    -0.054 A 
HETATM    7  C16 UNL     1      22.485   1.781  50.083  1.00  0.00     0.009 A 
HETATM    8  C15 UNL     1      23.301   1.897  51.187  1.00  0.00     0.030 A 
BRANCH   6   9
HETATM    9  C3  UNL     1      21.951   2.394  47.731  1.00  0.00     0.070 C 
BRANCH   9  10
HETATM   10  C2  UNL     1      21.947   3.658  46.954  1.00  0.00     0.037 C 
BRANCH  10  11
HETATM   11  C1  UNL     1      21.874   3.671  45.639  1.00  0.00     0.217 C 
HETATM   12  O1  UNL     1      21.522   3.604  44.436  1.00  0.00    -0.284 OA
ENDBRANCH  10  11
ENDBRANCH   9  10
ENDBRANCH   6   9
ENDBRANCH   1   3
BRANCH   1  13
HETATM   13  C8  UNL     1      26.370   1.959  52.705  1.00  0.00     0.252 A 
HETATM   14  N2  UNL     1      27.568   2.242  53.235  1.00  0.00    -0.206 NA
HETATM   15  C9  UNL     1      28.284   1.130  53.368  1.00  0.00     0.096 A 
HETATM   16  C10 UNL     1      29.539   0.783  53.831  1.00  0.00     0.035 A 
HETATM   17  C14 UNL     1      27.471   0.125  52.893  1.00  0.00     0.129 A 
HETATM   18  C11 UNL     1      29.946  -0.532  53.808  1.00  0.00     0.004 A 
HETATM   19  C12 UNL     1      29.121  -1.527  53.329  1.00  0.00     0.027 A 
HETATM   20  C13 UNL     1      27.861  -1.203  52.862  1.00  0.00     0.070 A 
HETATM   21 CL1  UNL     1      26.813  -2.466  52.254  1.00  0.00    -0.081 Cl
HETATM   22  O2  UNL     1      26.362   0.661  52.517  1.00  0.00    -0.274 OA
ENDBRANCH   1  13
TORSDOF 5
ENDMDL
MODEL 4
REMARK VINA RESULT:      -7.4      4.799      7.303
REMARK  5 active torsions:
REMARK  status: ('A' for Active; 'I' for Inactive)
REMARK    1  A    between atoms: C1_2  and  C2_3 
REMARK    2  A    between atoms: C2_3  and  C3_4 
REMARK    3  A    between atoms: C3_4  and  C4_5 
REMARK    4  A    between atoms: C7_8  and  N1_9 
REMARK    5  A    between atoms: N1_9  and  C8_10 
ROOT
HETATM    1  N1  UNL     1      24.302   1.909  51.100  1.00  0.00    -0.320 N 
HETATM    2  H6  UNL     1      24.355   2.601  50.301  1.00  0.00     0.169 HD
ENDROOT
BRANCH   1   3
HETATM    3  C7  UNL     1      23.010   1.398  51.378  1.00  0.00     0.035 A 
HETATM    4  C6  UNL     1      22.083   1.217  50.361  1.00  0.00     0.030 A 
HETATM    5  C5  UNL     1      20.818   0.724  50.586  1.00  0.00     0.009 A 
HETATM    6  C4  UNL     1      20.396   0.380  51.849  1.00  0.00    -0.054 A 
HETATM    7  C16 UNL     1      21.285   0.547  52.881  1.00  0.00     0.009 A 
HETATM    8  C15 UNL     1      22.544   1.042  52.623  1.00  0.00     0.030 A 
BRANCH   6   9
HETATM    9  C3  UNL     1      19.037  -0.145  52.067  1.00  0.00     0.070 C 
BRANCH   9  10
HETATM   10  C2  UNL     1      18.927  -0.928  53.323  1.00  0.00     0.037 C 
BRANCH  10  11
HETATM   11  C1  UNL     1      18.042  -1.891  53.472  1.00  0.00     0.217 C 
HETATM   12  O1  UNL     1      17.438  -2.971  53.681  1.00  0.00    -0.284 OA
ENDBRANCH  10  11
ENDBRANCH   9  10
ENDBRANCH   6   9
ENDBRANCH   1   3
BRANCH   1  13
HETATM   13  C8  UNL     1      25.496   1.575  51.790  1.00  0.00     0.252 A 
HETATM   14  N2  UNL     1      26.415   2.356  52.375  1.00  0.00    -0.206 NA
HETATM   15  C9  UNL     1      27.378   1.610  52.908  1.00  0.00     0.096 A 
HETATM   16  C10 UNL     1      28.548   1.820  53.613  1.00  0.00     0.035 A 
HETATM   17  C14 UNL     1      27.017   0.312  52.627  1.00  0.00     0.129 A 
HETATM   18  C11 UNL     1      29.317   0.749  54.012  1.00  0.00     0.004 A 
HETATM   19  C12 UNL     1      28.942  -0.545  53.723  1.00  0.00     0.027 A 
HETATM   20  C13 UNL     1      27.776  -0.779  53.020  1.00  0.00     0.070 A 
HETATM   21 CL1  UNL     1      27.301  -2.422  52.653  1.00  0.00    -0.081 Cl
HETATM   22  O2  UNL     1      25.910   0.344  51.971  1.00  0.00    -0.274 OA
ENDBRANCH   1  13
TORSDOF 5
ENDMDL
MODEL 5
REMARK VINA RESULT:      -7.3      5.204      7.027
REMARK  5 active torsions:
REMARK  status: ('A' for Active; 'I' for Inactive)
REMARK    1  A    between atoms: C1_2  and  C2_3 
REMARK    2  A    between atoms: C2_3  and  C3_4 
REMARK    3  A    between atoms: C3_4  and  C4_5 
REMARK    4  A    between atoms: C7_8  and  N1_9 
REMARK    5  A    between atoms: N1_9  and  C8_10 
ROOT
HETATM    1  N1  UNL     1      24.025  -1.107  54.503  1.00  0.00    -0.320 N 
HETATM    2  H6  UNL     1      24.035  -1.940  55.156  1.00  0.00     0.169 HD
ENDROOT
BRANCH   1   3
HETATM    3  C7  UNL     1      22.765  -0.796  53.934  1.00  0.00     0.035 A 
HETATM    4  C6  UNL     1      22.677  -0.114  52.729  1.00  0.00     0.030 A 
HETATM    5  C5  UNL     1      21.475   0.207  52.141  1.00  0.00     0.009 A 
HETATM    6  C4  UNL     1      20.277  -0.133  52.725  1.00  0.00    -0.054 A 
HETATM    7  C16 UNL     1      20.324  -0.808  53.919  1.00  0.00     0.009 A 
HETATM    8  C15 UNL     1      21.543  -1.116  54.481  1.00  0.00     0.030 A 
BRANCH   6   9
HETATM    9  C3  UNL     1      19.003   0.221  52.078  1.00  0.00     0.070 C 
BRANCH   9  10
HETATM   10  C2  UNL     1      19.127   1.406  51.193  1.00  0.00     0.037 C 
BRANCH  10  11
HETATM   11  C1  UNL     1      18.588   2.568  51.499  1.00  0.00     0.217 C 
HETATM   12  O1  UNL     1      18.263   3.662  52.019  1.00  0.00    -0.284 OA
ENDBRANCH  10  11
ENDBRANCH   9  10
ENDBRANCH   6   9
ENDBRANCH   1   3
BRANCH   1  13
HETATM   13  C8  UNL     1      25.239  -0.410  54.272  1.00  0.00     0.252 A 
HETATM   14  N2  UNL     1      25.500   0.904  54.239  1.00  0.00    -0.206 NA
HETATM   15  C9  UNL     1      26.789   1.109  53.987  1.00  0.00     0.096 A 
HETATM   16  C10 UNL     1      27.631   2.194  53.836  1.00  0.00     0.035 A 
HETATM   17  C14 UNL     1      27.331  -0.151  53.862  1.00  0.00     0.129 A 
HETATM   18  C11 UNL     1      28.968   2.001  53.568  1.00  0.00     0.004 A 
HETATM   19  C12 UNL     1      29.496   0.734  53.446  1.00  0.00     0.027 A 
HETATM   20  C13 UNL     1      28.672  -0.367  53.593  1.00  0.00     0.070 A 
HETATM   21 CL1  UNL     1      29.342  -1.976  53.438  1.00  0.00    -0.081 Cl
HETATM   22  O2  UNL     1      26.384  -1.005  54.037  1.00  0.00    -0.274 OA
ENDBRANCH   1  13
TORSDOF 5
ENDMDL
MODEL 6
REMARK VINA RESULT:      -7.3      5.577      7.856
REMARK  5 active torsions:
REMARK  status: ('A' for Active; 'I' for Inactive)
REMARK    1  A    between atoms: C1_2  and  C2_3 
REMARK    2  A    between atoms: C2_3  and  C3_4 
REMARK    3  A    between atoms: C3_4  and  C4_5 
REMARK    4  A    between atoms: C7_8  and  N1_9 
REMARK    5  A    between atoms: N1_9  and  C8_10 
ROOT
HETATM    1  N1  UNL     1      23.763  -0.980  54.492  1.00  0.00    -0.320 N 
HETATM    2  H6  UNL     1      23.628  -1.814  55.129  1.00  0.00     0.169 HD
ENDROOT
BRANCH   1   3
HETATM    3  C7  UNL     1      22.602  -0.542  53.809  1.00  0.00     0.035 A 
HETATM    4  C6  UNL     1      21.462  -0.172  54.508  1.00  0.00     0.030 A 
HETATM    5  C5  UNL     1      20.314   0.259  53.885  1.00  0.00     0.009 A 
HETATM    6  C4  UNL     1      20.230   0.347  52.515  1.00  0.00    -0.054 A 
HETATM    7  C16 UNL     1      21.337  -0.012  51.789  1.00  0.00     0.009 A 
HETATM    8  C15 UNL     1      22.472  -0.439  52.443  1.00  0.00     0.030 A 
BRANCH   6   9
HETATM    9  C3  UNL     1      18.990   0.811  51.869  1.00  0.00     0.070 C 
BRANCH   9  10
HETATM   10  C2  UNL     1      18.030  -0.294  51.627  1.00  0.00     0.037 C 
BRANCH  10  11
HETATM   11  C1  UNL     1      16.907  -0.407  52.306  1.00  0.00     0.217 C 
HETATM   12  O1  UNL     1      15.984  -0.351  53.154  1.00  0.00    -0.284 OA
ENDBRANCH  10  11
ENDBRANCH   9  10
ENDBRANCH   6   9
ENDBRANCH   1   3
BRANCH   1  13
HETATM   13  C8  UNL     1      25.057  -0.405  54.391  1.00  0.00     0.252 A 
HETATM   14  N2  UNL     1      26.165  -0.614  55.115  1.00  0.00    -0.206 NA
HETATM   15  C9  UNL     1      27.157   0.148  54.665  1.00  0.00     0.096 A 
HETATM   16  C10 UNL     1      28.483   0.374  54.980  1.00  0.00     0.035 A 
HETATM   17  C14 UNL     1      26.614   0.852  53.614  1.00  0.00     0.129 A 
HETATM   18  C11 UNL     1      29.223   1.281  54.253  1.00  0.00     0.004 A 
HETATM   19  C12 UNL     1      28.665   1.978  53.204  1.00  0.00     0.027 A 
HETATM   20  C13 UNL     1      27.340   1.768  52.870  1.00  0.00     0.070 A 
HETATM   21 CL1  UNL     1      26.632   2.653  51.537  1.00  0.00    -0.081 Cl
HETATM   22  O2  UNL     1      25.383   0.493  53.494  1.00  0.00    -0.274 OA
ENDBRANCH   1  13
TORSDOF 5
ENDMDL
MODEL 7
REMARK VINA RESULT:      -7.2      1.943      2.496
REMARK  5 active torsions:
REMARK  status: ('A' for Active; 'I' for Inactive)
REMARK    1  A    between atoms: C1_2  and  C2_3 
REMARK    2  A    between atoms: C2_3  and  C3_4 
REMARK    3  A    between atoms: C3_4  and  C4_5 
REMARK    4  A    between atoms: C7_8  and  N1_9 
REMARK    5  A    between atoms: N1_9  and  C8_10 
ROOT
HETATM    1  N1  UNL     1      24.854   3.244  49.922  1.00  0.00    -0.320 N 
HETATM    2  H6  UNL     1      23.940   3.068  49.418  1.00  0.00     0.169 HD
ENDROOT
BRANCH   1   3
HETATM    3  C7  UNL     1      25.653   4.283  49.384  1.00  0.00     0.035 A 
HETATM    4  C6  UNL     1      25.100   5.515  49.068  1.00  0.00     0.030 A 
HETATM    5  C5  UNL     1      25.839   6.551  48.544  1.00  0.00     0.009 A 
HETATM    6  C4  UNL     1      27.186   6.420  48.300  1.00  0.00    -0.054 A 
HETATM    7  C16 UNL     1      27.769   5.214  48.600  1.00  0.00     0.009 A 
HETATM    8  C15 UNL     1      27.002   4.198  49.124  1.00  0.00     0.030 A 
BRANCH   6   9
HETATM    9  C3  UNL     1      27.958   7.542  47.739  1.00  0.00     0.070 C 
BRANCH   9  10
HETATM   10  C2  UNL     1      28.645   8.337  48.788  1.00  0.00     0.037 C 
BRANCH  10  11
HETATM   11  C1  UNL     1      27.993   9.168  49.574  1.00  0.00     0.217 C 
HETATM   12  O1  UNL     1      27.238   9.712  50.415  1.00  0.00    -0.284 OA
ENDBRANCH  10  11
ENDBRANCH   9  10
ENDBRANCH   6   9
ENDBRANCH   1   3
BRANCH   1  13
HETATM   13  C8  UNL     1      25.173   2.445  51.050  1.00  0.00     0.252 A 
HETATM   14  N2  UNL     1      24.498   1.444  51.631  1.00  0.00    -0.206 NA
HETATM   15  C9  UNL     1      25.180   0.975  52.672  1.00  0.00     0.096 A 
HETATM   16  C10 UNL     1      25.017  -0.008  53.629  1.00  0.00     0.035 A 
HETATM   17  C14 UNL     1      26.327   1.736  52.716  1.00  0.00     0.129 A 
HETATM   18  C11 UNL     1      25.983  -0.206  54.590  1.00  0.00     0.004 A 
HETATM   19  C12 UNL     1      27.126   0.564  54.622  1.00  0.00     0.027 A 
HETATM   20  C13 UNL     1      27.310   1.553  53.674  1.00  0.00     0.070 A 
HETATM   21 CL1  UNL     1      28.762   2.530  53.713  1.00  0.00    -0.081 Cl
HETATM   22  O2  UNL     1      26.276   2.581  51.747  1.00  0.00    -0.274 OA
ENDBRANCH   1  13
TORSDOF 5
ENDMDL
MODEL 8
REMARK VINA RESULT:      -7.2      1.550      1.722
REMARK  5 active torsions:
REMARK  status: ('A' for Active; 'I' for Inactive)
REMARK    1  A    between atoms: C1_2  and  C2_3 
REMARK    2  A    between atoms: C2_3  and  C3_4 
REMARK    3  A    between atoms: C3_4  and  C4_5 
REMARK    4  A    between atoms: C7_8  and  N1_9 
REMARK    5  A    between atoms: N1_9  and  C8_10 
ROOT
HETATM    1  N1  UNL     1      25.755   3.292  49.765  1.00  0.00    -0.320 N 
HETATM    2  H6  UNL     1      24.979   2.911  49.154  1.00  0.00     0.169 HD
ENDROOT
BRANCH   1   3
HETATM    3  C7  UNL     1      26.337   4.505  49.321  1.00  0.00     0.035 A 
HETATM    4  C6  UNL     1      27.605   4.521  48.756  1.00  0.00     0.030 A 
HETATM    5  C5  UNL     1      28.207   5.675  48.311  1.00  0.00     0.009 A 
HETATM    6  C4  UNL     1      27.578   6.895  48.404  1.00  0.00    -0.054 A 
HETATM    7  C16 UNL     1      26.324   6.919  48.958  1.00  0.00     0.009 A 
HETATM    8  C15 UNL     1      25.748   5.746  49.393  1.00  0.00     0.030 A 
BRANCH   6   9
HETATM    9  C3  UNL     1      28.242   8.117  47.921  1.00  0.00     0.070 C 
BRANCH   9  10
HETATM   10  C2  UNL     1      28.714   8.982  49.032  1.00  0.00     0.037 C 
BRANCH  10  11
HETATM   11  C1  UNL     1      28.163  10.149  49.292  1.00  0.00     0.217 C 
HETATM   12  O1  UNL     1      27.732  11.327  49.267  1.00  0.00    -0.284 OA
ENDBRANCH  10  11
ENDBRANCH   9  10
ENDBRANCH   6   9
ENDBRANCH   1   3
BRANCH   1  13
HETATM   13  C8  UNL     1      26.120   2.569  50.930  1.00  0.00     0.252 A 
HETATM   14  N2  UNL     1      27.261   2.563  51.633  1.00  0.00    -0.206 NA
HETATM   15  C9  UNL     1      27.160   1.728  52.663  1.00  0.00     0.096 A 
HETATM   16  C10 UNL     1      27.963   1.305  53.705  1.00  0.00     0.035 A 
HETATM   17  C14 UNL     1      25.890   1.206  52.572  1.00  0.00     0.129 A 
HETATM   18  C11 UNL     1      27.488   0.386  54.615  1.00  0.00     0.004 A 
HETATM   19  C12 UNL     1      26.214  -0.128  54.511  1.00  0.00     0.027 A 
HETATM   20  C13 UNL     1      25.393   0.281  53.477  1.00  0.00     0.070 A 
HETATM   21 CL1  UNL     1      23.775  -0.371  53.345  1.00  0.00    -0.081 Cl
HETATM   22  O2  UNL     1      25.322   1.729  51.542  1.00  0.00    -0.274 OA
ENDBRANCH   1  13
TORSDOF 5
ENDMDL
MODEL 9
REMARK VINA RESULT:      -7.2      5.332      8.146
REMARK  5 active torsions:
REMARK  status: ('A' for Active; 'I' for Inactive)
REMARK    1  A    between atoms: C1_2  and  C2_3 
REMARK    2  A    between atoms: C2_3  and  C3_4 
REMARK    3  A    between atoms: C3_4  and  C4_5 
REMARK    4  A    between atoms: C7_8  and  N1_9 
REMARK    5  A    between atoms: N1_9  and  C8_10 
ROOT
HETATM    1  N1  UNL     1      23.352   1.547  52.747  1.00  0.00    -0.320 N 
HETATM    2  H6  UNL     1      23.439   2.601  52.693  1.00  0.00     0.169 HD
ENDROOT
BRANCH   1   3
HETATM    3  C7  UNL     1      24.575   0.844  52.878  1.00  0.00     0.035 A 
HETATM    4  C6  UNL     1      25.573   0.968  51.923  1.00  0.00     0.030 A 
HETATM    5  C5  UNL     1      26.775   0.303  52.011  1.00  0.00     0.009 A 
HETATM    6  C4  UNL     1      27.057  -0.534  53.065  1.00  0.00    -0.054 A 
HETATM    7  C16 UNL     1      26.093  -0.682  54.030  1.00  0.00     0.009 A 
HETATM    8  C15 UNL     1      24.900  -0.003  53.913  1.00  0.00     0.030 A 
BRANCH   6   9
HETATM    9  C3  UNL     1      28.350  -1.235  53.140  1.00  0.00     0.070 C 
BRANCH   9  10
HETATM   10  C2  UNL     1      29.472  -0.320  53.465  1.00  0.00     0.037 C 
BRANCH  10  11
HETATM   11  C1  UNL     1      29.329   0.698  54.289  1.00  0.00     0.217 C 
HETATM   12  O1  UNL     1      28.985   1.493  55.196  1.00  0.00    -0.284 OA
ENDBRANCH  10  11
ENDBRANCH   9  10
ENDBRANCH   6   9
ENDBRANCH   1   3
BRANCH   1  13
HETATM   13  C8  UNL     1      22.059   0.968  52.683  1.00  0.00     0.252 A 
HETATM   14  N2  UNL     1      21.430   0.138  53.526  1.00  0.00    -0.206 NA
HETATM   15  C9  UNL     1      20.218  -0.152  53.064  1.00  0.00     0.096 A 
HETATM   16  C10 UNL     1      19.139  -0.919  53.463  1.00  0.00     0.035 A 
HETATM   17  C14 UNL     1      20.114   0.541  51.879  1.00  0.00     0.129 A 
HETATM   18  C11 UNL     1      18.004  -0.975  52.685  1.00  0.00     0.004 A 
HETATM   19  C12 UNL     1      17.915  -0.275  51.501  1.00  0.00     0.027 A 
HETATM   20  C13 UNL     1      18.982   0.498  51.082  1.00  0.00     0.070 A 
HETATM   21 CL1  UNL     1      18.869   1.387  49.579  1.00  0.00    -0.081 Cl
HETATM   22  O2  UNL     1      21.217   1.181  51.700  1.00  0.00    -0.274 OA
ENDBRANCH   1  13
TORSDOF 5
ENDMDL
