MODEL 1
REMARK VINA RESULT:      -7.6      0.000      0.000
REMARK  2 active torsions:
REMARK  status: ('A' for Active; 'I' for Inactive)
REMARK    1  A    between atoms: C3_3  and  C4_4 
REMARK    2  A    between atoms: C6_6  and  S1_7 
ROOT
HETATM    1  C4  UNL     1      22.068   0.710  51.822  1.00  0.00     0.040 A 
HETATM    2  C5  UNL     1      22.631   1.424  50.880  1.00  0.00     0.009 A 
HETATM    3  C6  UNL     1      23.424   1.836  51.537  1.00  0.00     0.044 A 
HETATM    4  S1  UNL     1      24.327   2.311  52.255  1.00  0.00    -0.090 SA
HETATM    5  N1  UNL     1      25.426   2.892  53.088  1.00  0.00    -0.234 NA
HETATM    6  C7  UNL     1      24.964   2.811  51.420  1.00  0.00     0.178 A 
HETATM    7  N2  UNL     1      26.101   3.316  50.786  1.00  0.00    -0.244 NA
HETATM    8  C8  UNL     1      26.686   3.634  49.557  1.00  0.00     0.226 C 
HETATM    9  N3  UNL     1      26.073   4.700  49.180  1.00  0.00    -0.264 NA
HETATM   10  C9  UNL     1      25.027   5.556  49.695  1.00  0.00     0.275 C 
HETATM   11  N4  UNL     1      23.811   4.892  50.073  1.00  0.00    -0.358 N 
HETATM   12  C10 UNL     1      23.230   6.016  50.787  1.00  0.00     0.005 A 
HETATM   13  C11 UNL     1      23.861   7.341  51.024  1.00  0.00     0.068 C 
HETATM   14  C12 UNL     1      21.989   5.880  51.304  1.00  0.00     0.024 A 
HETATM   15  C13 UNL     1      21.167   4.682  51.210  1.00  0.00    -0.000 A 
HETATM   16  C14 UNL     1      21.766   3.702  50.560  1.00  0.00    -0.001 A 
HETATM   17  C15 UNL     1      23.139   3.656  49.927  1.00  0.00     0.119 A 
HETATM   18  C16 UNL     1      23.767   2.418  50.468  1.00  0.00     0.090 A 
HETATM   19  H7  UNL     1      26.294   3.447  53.005  1.00  0.00     0.138 HD
ENDROOT
BRANCH   1  20
HETATM   20  C3  UNL     1      22.224   0.408  53.234  1.00  0.00    -0.024 C 
HETATM   21  C2  UNL     1      22.208  -0.875  53.534  1.00  0.00    -0.034 C 
HETATM   22  C1  UNL     1      22.360  -1.255  54.959  1.00  0.00     0.036 C 
ENDBRANCH   1  20
TORSDOF 2
ENDMDL
MODEL 2
REMARK VINA RESULT:      -7.4      3.100      5.680
REMARK  2 active torsions:
REMARK  status: ('A' for Active; 'I' for Inactive)
REMARK    1  A    between atoms: C3_3  and  C4_4 
REMARK    2  A    between atoms: C6_6  and  S1_7 
ROOT
HETATM    1  C4  UNL     1      23.308   2.984  52.463  1.00  0.00     0.040 A 
HETATM    2  C5  UNL     1      24.293   2.668  53.265  1.00  0.00     0.009 A 
HETATM    3  C6  UNL     1      25.045   2.576  52.455  1.00  0.00     0.044 A 
HETATM    4  S1  UNL     1      25.911   2.470  51.563  1.00  0.00    -0.090 SA
HETATM    5  N1  UNL     1      26.974   2.340  50.517  1.00  0.00    -0.234 NA
HETATM    6  C7  UNL     1      26.848   2.368  52.245  1.00  0.00     0.178 A 
HETATM    7  N2  UNL     1      28.189   2.456  52.626  1.00  0.00    -0.244 NA
HETATM    8  C8  UNL     1      29.075   2.531  53.704  1.00  0.00     0.226 C 
HETATM    9  N3  UNL     1      29.073   1.345  54.200  1.00  0.00    -0.264 NA
HETATM   10  C9  UNL     1      28.429   0.081  53.916  1.00  0.00     0.275 C 
HETATM   11  N4  UNL     1      26.998   0.125  53.803  1.00  0.00    -0.358 N 
HETATM   12  C10 UNL     1      26.842  -1.199  53.225  1.00  0.00     0.005 A 
HETATM   13  C11 UNL     1      27.931  -2.144  52.859  1.00  0.00     0.068 C 
HETATM   14  C12 UNL     1      25.594  -1.653  52.981  1.00  0.00     0.024 A 
HETATM   15  C13 UNL     1      24.365  -0.918  53.246  1.00  0.00    -0.000 A 
HETATM   16  C14 UNL     1      24.587   0.278  53.757  1.00  0.00    -0.001 A 
HETATM   17  C15 UNL     1      25.895   0.963  54.087  1.00  0.00     0.119 A 
HETATM   18  C16 UNL     1      25.804   2.296  53.428  1.00  0.00     0.090 A 
HETATM   19  H7  UNL     1      27.995   2.219  50.416  1.00  0.00     0.138 HD
ENDROOT
BRANCH   1  20
HETATM   20  C3  UNL     1      23.045   3.194  51.051  1.00  0.00    -0.024 C 
HETATM   21  C2  UNL     1      22.300   2.270  50.478  1.00  0.00    -0.034 C 
HETATM   22  C1  UNL     1      21.994   2.421  49.035  1.00  0.00     0.036 C 
ENDBRANCH   1  20
TORSDOF 2
ENDMDL
MODEL 3
REMARK VINA RESULT:      -7.4      3.156      5.339
REMARK  2 active torsions:
REMARK  status: ('A' for Active; 'I' for Inactive)
REMARK    1  A    between atoms: C3_3  and  C4_4 
REMARK    2  A    between atoms: C6_6  and  S1_7 
ROOT
HETATM    1  C4  UNL     1      27.323   2.094  53.581  1.00  0.00     0.040 A 
HETATM    2  C5  UNL     1      26.033   2.172  53.790  1.00  0.00     0.009 A 
HETATM    3  C6  UNL     1      25.821   1.140  53.444  1.00  0.00     0.044 A 
HETATM    4  S1  UNL     1      25.556  -0.018  53.063  1.00  0.00    -0.090 SA
HETATM    5  N1  UNL     1      25.207  -1.404  52.618  1.00  0.00    -0.234 NA
HETATM    6  C7  UNL     1      24.443  -0.060  53.401  1.00  0.00     0.178 A 
HETATM    7  N2  UNL     1      23.239  -0.625  53.826  1.00  0.00    -0.244 NA
HETATM    8  C8  UNL     1      22.033  -0.394  54.492  1.00  0.00     0.226 C 
HETATM    9  N3  UNL     1      21.344   0.311  53.667  1.00  0.00    -0.264 NA
HETATM   10  C9  UNL     1      21.520   0.855  52.337  1.00  0.00     0.275 C 
HETATM   11  N4  UNL     1      22.709   1.635  52.138  1.00  0.00    -0.358 N 
HETATM   12  C10 UNL     1      22.630   1.681  50.688  1.00  0.00     0.005 A 
HETATM   13  C11 UNL     1      21.615   1.013  49.831  1.00  0.00     0.068 C 
HETATM   14  C12 UNL     1      23.558   2.394  50.014  1.00  0.00     0.024 A 
HETATM   15  C13 UNL     1      24.655   3.133  50.622  1.00  0.00    -0.000 A 
HETATM   16  C14 UNL     1      24.669   3.034  51.938  1.00  0.00    -0.001 A 
HETATM   17  C15 UNL     1      23.736   2.282  52.863  1.00  0.00     0.119 A 
HETATM   18  C16 UNL     1      24.635   1.473  53.733  1.00  0.00     0.090 A 
HETATM   19  H7  UNL     1      24.417  -2.069  52.598  1.00  0.00     0.138 HD
ENDROOT
BRANCH   1  20
HETATM   20  C3  UNL     1      28.318   1.153  53.099  1.00  0.00    -0.024 C 
HETATM   21  C2  UNL     1      29.117   0.662  54.024  1.00  0.00    -0.034 C 
HETATM   22  C1  UNL     1      30.159  -0.304  53.600  1.00  0.00     0.036 C 
ENDBRANCH   1  20
TORSDOF 2
ENDMDL
MODEL 4
REMARK VINA RESULT:      -7.4      2.258      6.095
REMARK  2 active torsions:
REMARK  status: ('A' for Active; 'I' for Inactive)
REMARK    1  A    between atoms: C3_3  and  C4_4 
REMARK    2  A    between atoms: C6_6  and  S1_7 
ROOT
HETATM    1  C4  UNL     1      25.283   6.610  48.316  1.00  0.00     0.040 A 
HETATM    2  C5  UNL     1      24.470   5.652  48.681  1.00  0.00     0.009 A 
HETATM    3  C6  UNL     1      24.446   5.952  49.748  1.00  0.00     0.044 A 
HETATM    4  S1  UNL     1      24.401   6.271  50.954  1.00  0.00    -0.090 SA
HETATM    5  N1  UNL     1      24.320   6.631  52.404  1.00  0.00    -0.234 NA
HETATM    6  C7  UNL     1      23.545   5.557  51.287  1.00  0.00     0.178 A 
HETATM    7  N2  UNL     1      22.465   5.093  52.043  1.00  0.00    -0.244 NA
HETATM    8  C8  UNL     1      21.342   4.263  52.052  1.00  0.00     0.226 C 
HETATM    9  N3  UNL     1      21.826   3.074  52.120  1.00  0.00    -0.264 NA
HETATM   10  C9  UNL     1      23.138   2.469  52.189  1.00  0.00     0.275 C 
HETATM   11  N4  UNL     1      24.063   2.875  51.169  1.00  0.00    -0.358 N 
HETATM   12  C10 UNL     1      25.248   2.313  51.795  1.00  0.00     0.005 A 
HETATM   13  C11 UNL     1      25.319   1.631  53.114  1.00  0.00     0.068 C 
HETATM   14  C12 UNL     1      26.427   2.402  51.140  1.00  0.00     0.024 A 
HETATM   15  C13 UNL     1      26.620   3.025  49.839  1.00  0.00    -0.000 A 
HETATM   16  C14 UNL     1      25.504   3.523  49.341  1.00  0.00    -0.001 A 
HETATM   17  C15 UNL     1      24.106   3.535  49.919  1.00  0.00     0.119 A 
HETATM   18  C16 UNL     1      23.670   4.957  49.832  1.00  0.00     0.090 A 
HETATM   19  H7  UNL     1      23.803   6.393  53.266  1.00  0.00     0.138 HD
ENDROOT
BRANCH   1  20
HETATM   20  C3  UNL     1      26.004   7.735  48.883  1.00  0.00    -0.024 C 
HETATM   21  C2  UNL     1      27.306   7.724  48.678  1.00  0.00    -0.034 C 
HETATM   22  C1  UNL     1      28.105   8.843  49.232  1.00  0.00     0.036 C 
ENDBRANCH   1  20
TORSDOF 2
ENDMDL
MODEL 5
REMARK VINA RESULT:      -7.2      2.636      4.041
REMARK  2 active torsions:
REMARK  status: ('A' for Active; 'I' for Inactive)
REMARK    1  A    between atoms: C3_3  and  C4_4 
REMARK    2  A    between atoms: C6_6  and  S1_7 
ROOT
HETATM    1  C4  UNL     1      25.587   1.050  53.458  1.00  0.00     0.040 A 
HETATM    2  C5  UNL     1      24.808   2.085  53.273  1.00  0.00     0.009 A 
HETATM    3  C6  UNL     1      24.019   1.514  52.744  1.00  0.00     0.044 A 
HETATM    4  S1  UNL     1      23.114   0.893  52.149  1.00  0.00    -0.090 SA
HETATM    5  N1  UNL     1      22.009   0.177  51.439  1.00  0.00    -0.234 NA
HETATM    6  C7  UNL     1      22.315   1.739  52.124  1.00  0.00     0.178 A 
HETATM    7  N2  UNL     1      21.046   2.320  52.082  1.00  0.00    -0.244 NA
HETATM    8  C8  UNL     1      20.295   3.462  52.373  1.00  0.00     0.226 C 
HETATM    9  N3  UNL     1      20.651   4.314  51.479  1.00  0.00    -0.264 NA
HETATM   10  C9  UNL     1      21.558   4.346  50.351  1.00  0.00     0.275 C 
HETATM   11  N4  UNL     1      22.909   3.950  50.630  1.00  0.00    -0.358 N 
HETATM   12  C10 UNL     1      23.329   3.826  49.244  1.00  0.00     0.005 A 
HETATM   13  C11 UNL     1      22.480   4.013  48.038  1.00  0.00     0.068 C 
HETATM   14  C12 UNL     1      24.617   3.510  48.986  1.00  0.00     0.024 A 
HETATM   15  C13 UNL     1      25.642   3.273  49.993  1.00  0.00    -0.000 A 
HETATM   16  C14 UNL     1      25.184   3.390  51.224  1.00  0.00    -0.001 A 
HETATM   17  C15 UNL     1      23.790   3.721  51.712  1.00  0.00     0.119 A 
HETATM   18  C16 UNL     1      23.468   2.652  52.699  1.00  0.00     0.090 A 
HETATM   19  H7  UNL     1      21.047   0.321  51.091  1.00  0.00     0.138 HD
ENDROOT
BRANCH   1  20
HETATM   20  C3  UNL     1      25.630  -0.375  53.181  1.00  0.00    -0.024 C 
HETATM   21  C2  UNL     1      26.774  -0.815  52.696  1.00  0.00    -0.034 C 
HETATM   22  C1  UNL     1      26.886  -2.261  52.388  1.00  0.00     0.036 C 
ENDBRANCH   1  20
TORSDOF 2
ENDMDL
MODEL 6
REMARK VINA RESULT:      -7.0      2.032      2.762
REMARK  2 active torsions:
REMARK  status: ('A' for Active; 'I' for Inactive)
REMARK    1  A    between atoms: C3_3  and  C4_4 
REMARK    2  A    between atoms: C6_6  and  S1_7 
ROOT
HETATM    1  C4  UNL     1      23.981   1.587  51.938  1.00  0.00     0.040 A 
HETATM    2  C5  UNL     1      24.542   2.463  51.143  1.00  0.00     0.009 A 
HETATM    3  C6  UNL     1      23.934   3.317  51.501  1.00  0.00     0.044 A 
HETATM    4  S1  UNL     1      23.264   4.296  51.890  1.00  0.00    -0.090 SA
HETATM    5  N1  UNL     1      22.482   5.490  52.338  1.00  0.00    -0.234 NA
HETATM    6  C7  UNL     1      23.853   5.135  51.340  1.00  0.00     0.178 A 
HETATM    7  N2  UNL     1      24.365   6.412  51.096  1.00  0.00    -0.244 NA
HETATM    8  C8  UNL     1      25.367   7.144  50.456  1.00  0.00     0.226 C 
HETATM    9  N3  UNL     1      25.051   7.096  49.211  1.00  0.00    -0.264 NA
HETATM   10  C9  UNL     1      23.995   6.518  48.410  1.00  0.00     0.275 C 
HETATM   11  N4  UNL     1      23.764   5.114  48.607  1.00  0.00    -0.358 N 
HETATM   12  C10 UNL     1      22.496   5.059  47.900  1.00  0.00     0.005 A 
HETATM   13  C11 UNL     1      21.767   6.203  47.289  1.00  0.00     0.068 C 
HETATM   14  C12 UNL     1      21.884   3.862  47.765  1.00  0.00     0.024 A 
HETATM   15  C13 UNL     1      22.391   2.597  48.277  1.00  0.00    -0.000 A 
HETATM   16  C14 UNL     1      23.537   2.729  48.916  1.00  0.00    -0.001 A 
HETATM   17  C15 UNL     1      24.362   3.969  49.182  1.00  0.00     0.119 A 
HETATM   18  C16 UNL     1      24.626   3.944  50.648  1.00  0.00     0.090 A 
HETATM   19  H7  UNL     1      22.448   6.518  52.233  1.00  0.00     0.138 HD
ENDROOT
BRANCH   1  20
HETATM   20  C3  UNL     1      22.957   1.512  52.965  1.00  0.00    -0.024 C 
HETATM   21  C2  UNL     1      22.304   0.368  53.018  1.00  0.00    -0.034 C 
HETATM   22  C1  UNL     1      21.242   0.222  54.042  1.00  0.00     0.036 C 
ENDBRANCH   1  20
TORSDOF 2
ENDMDL
MODEL 7
REMARK VINA RESULT:      -6.7      3.283      5.403
REMARK  2 active torsions:
REMARK  status: ('A' for Active; 'I' for Inactive)
REMARK    1  A    between atoms: C3_3  and  C4_4 
REMARK    2  A    between atoms: C6_6  and  S1_7 
ROOT
HETATM    1  C4  UNL     1      17.988   0.856  51.443  1.00  0.00     0.040 A 
HETATM    2  C5  UNL     1      18.969   1.532  51.986  1.00  0.00     0.009 A 
HETATM    3  C6  UNL     1      19.693   1.313  51.175  1.00  0.00     0.044 A 
HETATM    4  S1  UNL     1      20.525   1.084  50.274  1.00  0.00    -0.090 SA
HETATM    5  N1  UNL     1      21.544   0.833  49.208  1.00  0.00    -0.234 NA
HETATM    6  C7  UNL     1      21.360   1.816  50.623  1.00  0.00     0.178 A 
HETATM    7  N2  UNL     1      22.457   2.674  50.518  1.00  0.00    -0.244 NA
HETATM    8  C8  UNL     1      23.144   3.738  51.107  1.00  0.00     0.226 C 
HETATM    9  N3  UNL     1      23.723   3.216  52.129  1.00  0.00    -0.264 NA
HETATM   10  C9  UNL     1      23.817   1.906  52.736  1.00  0.00     0.275 C 
HETATM   11  N4  UNL     1      22.566   1.259  53.012  1.00  0.00    -0.358 N 
HETATM   12  C10 UNL     1      23.122  -0.056  53.281  1.00  0.00     0.005 A 
HETATM   13  C11 UNL     1      24.551  -0.456  53.183  1.00  0.00     0.068 C 
HETATM   14  C12 UNL     1      22.284  -1.045  53.663  1.00  0.00     0.024 A 
HETATM   15  C13 UNL     1      20.844  -0.909  53.828  1.00  0.00    -0.000 A 
HETATM   16  C14 UNL     1      20.412   0.307  53.554  1.00  0.00    -0.001 A 
HETATM   17  C15 UNL     1      21.181   1.531  53.105  1.00  0.00     0.119 A 
HETATM   18  C16 UNL     1      20.453   2.018  51.900  1.00  0.00     0.090 A 
HETATM   19  H7  UNL     1      22.489   1.126  48.911  1.00  0.00     0.138 HD
ENDROOT
BRANCH   1  20
HETATM   20  C3  UNL     1      17.706   0.056  50.264  1.00  0.00    -0.024 C 
HETATM   21  C2  UNL     1      16.437  -0.258  50.093  1.00  0.00    -0.034 C 
HETATM   22  C1  UNL     1      16.079  -1.075  48.910  1.00  0.00     0.036 C 
ENDBRANCH   1  20
TORSDOF 2
ENDMDL
MODEL 8
REMARK VINA RESULT:      -6.6      2.546      4.072
REMARK  2 active torsions:
REMARK  status: ('A' for Active; 'I' for Inactive)
REMARK    1  A    between atoms: C3_3  and  C4_4 
REMARK    2  A    between atoms: C6_6  and  S1_7 
ROOT
HETATM    1  C4  UNL     1      26.019   2.761  50.012  1.00  0.00     0.040 A 
HETATM    2  C5  UNL     1      25.044   3.480  49.519  1.00  0.00     0.009 A 
HETATM    3  C6  UNL     1      24.732   3.897  50.497  1.00  0.00     0.044 A 
HETATM    4  S1  UNL     1      24.363   4.384  51.586  1.00  0.00    -0.090 SA
HETATM    5  N1  UNL     1      23.902   4.989  52.874  1.00  0.00    -0.234 NA
HETATM    6  C7  UNL     1      23.613   5.172  51.175  1.00  0.00     0.178 A 
HETATM    7  N2  UNL     1      22.858   6.347  51.141  1.00  0.00    -0.244 NA
HETATM    8  C8  UNL     1      22.191   7.260  50.321  1.00  0.00     0.226 C 
HETATM    9  N3  UNL     1      21.130   6.637  49.948  1.00  0.00    -0.264 NA
HETATM   10  C9  UNL     1      20.534   5.338  50.170  1.00  0.00     0.275 C 
HETATM   11  N4  UNL     1      21.386   4.211  49.913  1.00  0.00    -0.358 N 
HETATM   12  C10 UNL     1      20.536   3.218  50.547  1.00  0.00     0.005 A 
HETATM   13  C11 UNL     1      19.255   3.469  51.260  1.00  0.00     0.068 C 
HETATM   14  C12 UNL     1      20.916   1.923  50.506  1.00  0.00     0.024 A 
HETATM   15  C13 UNL     1      22.128   1.423  49.874  1.00  0.00    -0.000 A 
HETATM   16  C14 UNL     1      22.853   2.381  49.332  1.00  0.00    -0.001 A 
HETATM   17  C15 UNL     1      22.607   3.874  49.284  1.00  0.00     0.119 A 
HETATM   18  C16 UNL     1      23.873   4.485  49.778  1.00  0.00     0.090 A 
HETATM   19  H7  UNL     1      23.261   5.711  53.242  1.00  0.00     0.138 HD
ENDROOT
BRANCH   1  20
HETATM   20  C3  UNL     1      26.645   2.458  51.288  1.00  0.00    -0.024 C 
HETATM   21  C2  UNL     1      26.560   1.198  51.665  1.00  0.00    -0.034 C 
HETATM   22  C1  UNL     1      27.176   0.819  52.959  1.00  0.00     0.036 C 
ENDBRANCH   1  20
TORSDOF 2
ENDMDL
MODEL 9
REMARK VINA RESULT:      -6.6      2.325      5.865
REMARK  2 active torsions:
REMARK  status: ('A' for Active; 'I' for Inactive)
REMARK    1  A    between atoms: C3_3  and  C4_4 
REMARK    2  A    between atoms: C6_6  and  S1_7 
ROOT
HETATM    1  C4  UNL     1      25.994   6.983  49.257  1.00  0.00     0.040 A 
HETATM    2  C5  UNL     1      25.124   6.336  49.990  1.00  0.00     0.009 A 
HETATM    3  C6  UNL     1      25.604   5.346  49.852  1.00  0.00     0.044 A 
HETATM    4  S1  UNL     1      26.127   4.221  49.715  1.00  0.00    -0.090 SA
HETATM    5  N1  UNL     1      26.734   2.861  49.575  1.00  0.00    -0.234 NA
HETATM    6  C7  UNL     1      25.493   3.641  50.499  1.00  0.00     0.178 A 
HETATM    7  N2  UNL     1      25.180   2.659  51.441  1.00  0.00    -0.244 NA
HETATM    8  C8  UNL     1      24.379   2.333  52.537  1.00  0.00     0.226 C 
HETATM    9  N3  UNL     1      23.213   2.135  52.032  1.00  0.00    -0.264 NA
HETATM   10  C9  UNL     1      22.612   2.167  50.716  1.00  0.00     0.275 C 
HETATM   11  N4  UNL     1      22.824   3.373  49.966  1.00  0.00    -0.358 N 
HETATM   12  C10 UNL     1      22.364   2.851  48.690  1.00  0.00     0.005 A 
HETATM   13  C11 UNL     1      21.919   1.461  48.406  1.00  0.00     0.068 C 
HETATM   14  C12 UNL     1      22.323   3.685  47.629  1.00  0.00     0.024 A 
HETATM   15  C13 UNL     1      22.710   5.089  47.649  1.00  0.00    -0.000 A 
HETATM   16  C14 UNL     1      23.128   5.486  48.835  1.00  0.00    -0.001 A 
HETATM   17  C15 UNL     1      23.257   4.709  50.127  1.00  0.00     0.119 A 
HETATM   18  C16 UNL     1      24.648   4.972  50.592  1.00  0.00     0.090 A 
HETATM   19  H7  UNL     1      26.655   1.901  49.949  1.00  0.00     0.138 HD
ENDROOT
BRANCH   1  20
HETATM   20  C3  UNL     1      27.191   6.737  48.472  1.00  0.00    -0.024 C 
HETATM   21  C2  UNL     1      27.536   7.715  47.659  1.00  0.00    -0.034 C 
HETATM   22  C1  UNL     1      28.748   7.529  46.826  1.00  0.00     0.036 C 
ENDBRANCH   1  20
TORSDOF 2
ENDMDL
