MODEL 1
REMARK VINA RESULT:      -8.4      0.000      0.000
REMARK  6 active torsions:
REMARK  status: ('A' for Active; 'I' for Inactive)
REMARK    1  A    between atoms: O1_2  and  C2_3 
REMARK    2  A    between atoms: C6_7  and  C7_8 
REMARK    3  A    between atoms: C7_8  and  N1_9 
REMARK    4  A    between atoms: N1_9  and  C8_10 
REMARK    5  A    between atoms: C11_15  and  N4_16 
REMARK    6  A    between atoms: N4_16  and  C12_17 
ROOT
HETATM    1  C8  UNL     1      27.222   1.665  52.988  1.00  0.00     0.092 A 
HETATM    2  C9  UNL     1      28.358   2.159  53.573  1.00  0.00     0.151 A 
HETATM    3  N2  UNL     1      28.994   1.473  54.545  1.00  0.00    -0.252 NA
HETATM    4  C10 UNL     1      28.527   0.275  54.971  1.00  0.00     0.235 A 
HETATM    5  N3  UNL     1      27.424  -0.153  54.368  1.00  0.00    -0.222 NA
HETATM    6  C11 UNL     1      26.728   0.448  53.403  1.00  0.00     0.157 A 
ENDROOT
BRANCH   1   7
HETATM    7  N1  UNL     1      26.672   2.507  52.000  1.00  0.00    -0.381 N 
HETATM    8  H9  UNL     1      26.322   3.407  52.384  1.00  0.00     0.160 HD
BRANCH   7   9
HETATM    9  C7  UNL     1      26.428   2.514  50.572  1.00  0.00     0.158 C 
BRANCH   9  10
HETATM   10  C6  UNL     1      26.124   3.863  50.060  1.00  0.00    -0.038 A 
HETATM   11  C5  UNL     1      27.157   4.270  49.203  1.00  0.00     0.009 A 
HETATM   12  C4  UNL     1      27.126   5.510  48.561  1.00  0.00     0.003 A 
HETATM   13  C3  UNL     1      26.071   6.383  48.750  1.00  0.00     0.037 A 
HETATM   14  C2  UNL     1      25.067   5.956  49.600  1.00  0.00     0.068 A 
HETATM   15  C18 UNL     1      25.085   4.745  50.235  1.00  0.00     0.045 A 
BRANCH  14  16
HETATM   16  O1  UNL     1      23.988   6.784  49.828  1.00  0.00    -0.356 OA
HETATM   17  C1  UNL     1      23.989   7.785  50.801  1.00  0.00     0.210 C 
ENDBRANCH  14  16
ENDBRANCH   9  10
ENDBRANCH   7   9
ENDBRANCH   1   7
BRANCH   6  18
HETATM   18  N4  UNL     1      25.558  -0.065  52.803  1.00  0.00    -0.339 N 
HETATM   19  H12 UNL     1      25.580  -0.475  51.856  1.00  0.00     0.167 HD
BRANCH  18  20
HETATM   20  C12 UNL     1      24.248  -0.112  53.339  1.00  0.00     0.035 A 
HETATM   21  C13 UNL     1      23.859  -0.944  54.362  1.00  0.00     0.029 A 
HETATM   22  C14 UNL     1      22.597  -1.008  54.900  1.00  0.00     0.004 A 
HETATM   23  C15 UNL     1      21.623  -0.182  54.390  1.00  0.00     0.019 A 
HETATM   24  C16 UNL     1      21.935   0.672  53.371  1.00  0.00     0.013 A 
HETATM   25 BR1  UNL     1      20.613   1.819  52.652  1.00  0.00    -0.051 Br
HETATM   26  C17 UNL     1      23.218   0.680  52.885  1.00  0.00     0.048 A 
ENDBRANCH  18  20
ENDBRANCH   6  18
TORSDOF 6
ENDMDL
MODEL 2
REMARK VINA RESULT:      -8.3      2.143      2.916
REMARK  6 active torsions:
REMARK  status: ('A' for Active; 'I' for Inactive)
REMARK    1  A    between atoms: O1_2  and  C2_3 
REMARK    2  A    between atoms: C6_7  and  C7_8 
REMARK    3  A    between atoms: C7_8  and  N1_9 
REMARK    4  A    between atoms: N1_9  and  C8_10 
REMARK    5  A    between atoms: C11_15  and  N4_16 
REMARK    6  A    between atoms: N4_16  and  C12_17 
ROOT
HETATM    1  C8  UNL     1      27.160   1.717  53.188  1.00  0.00     0.092 A 
HETATM    2  C9  UNL     1      28.302   2.236  53.741  1.00  0.00     0.151 A 
HETATM    3  N2  UNL     1      29.067   1.498  54.573  1.00  0.00    -0.252 NA
HETATM    4  C10 UNL     1      28.729   0.225  54.884  1.00  0.00     0.235 A 
HETATM    5  N3  UNL     1      27.615  -0.224  54.319  1.00  0.00    -0.222 NA
HETATM    6  C11 UNL     1      26.796   0.423  53.489  1.00  0.00     0.157 A 
ENDROOT
BRANCH   1   7
HETATM    7  N1  UNL     1      26.466   2.617  52.353  1.00  0.00    -0.381 N 
HETATM    8  H9  UNL     1      26.252   3.519  52.822  1.00  0.00     0.160 HD
BRANCH   7   9
HETATM    9  C7  UNL     1      25.937   2.684  51.006  1.00  0.00     0.158 C 
BRANCH   9  10
HETATM   10  C6  UNL     1      24.477   2.886  50.985  1.00  0.00    -0.038 A 
HETATM   11  C5  UNL     1      24.102   3.618  52.121  1.00  0.00     0.009 A 
HETATM   12  C4  UNL     1      22.770   3.969  52.355  1.00  0.00     0.003 A 
HETATM   13  C3  UNL     1      21.772   3.604  51.470  1.00  0.00     0.037 A 
HETATM   14  C2  UNL     1      22.171   2.883  50.360  1.00  0.00     0.068 A 
HETATM   15  C18 UNL     1      23.472   2.533  50.118  1.00  0.00     0.045 A 
BRANCH  14  16
HETATM   16  O1  UNL     1      21.220   2.491  49.442  1.00  0.00    -0.356 OA
HETATM   17  C1  UNL     1      21.253   1.256  48.792  1.00  0.00     0.210 C 
ENDBRANCH  14  16
ENDBRANCH   9  10
ENDBRANCH   7   9
ENDBRANCH   1   7
BRANCH   6  18
HETATM   18  N4  UNL     1      25.622  -0.115  52.920  1.00  0.00    -0.339 N 
HETATM   19  H12 UNL     1      25.588  -0.391  51.926  1.00  0.00     0.167 HD
BRANCH  18  20
HETATM   20  C12 UNL     1      24.377  -0.359  53.550  1.00  0.00     0.035 A 
HETATM   21  C13 UNL     1      24.232  -1.008  54.754  1.00  0.00     0.029 A 
HETATM   22  C14 UNL     1      23.038  -1.255  55.386  1.00  0.00     0.004 A 
HETATM   23  C15 UNL     1      21.876  -0.831  54.785  1.00  0.00     0.019 A 
HETATM   24  C16 UNL     1      21.942  -0.179  53.587  1.00  0.00     0.013 A 
HETATM   25 BR1  UNL     1      20.358   0.417  52.740  1.00  0.00    -0.051 Br
HETATM   26  C17 UNL     1      23.171   0.033  53.016  1.00  0.00     0.048 A 
ENDBRANCH  18  20
ENDBRANCH   6  18
TORSDOF 6
ENDMDL
MODEL 3
REMARK VINA RESULT:      -8.3      1.561      2.403
REMARK  6 active torsions:
REMARK  status: ('A' for Active; 'I' for Inactive)
REMARK    1  A    between atoms: O1_2  and  C2_3 
REMARK    2  A    between atoms: C6_7  and  C7_8 
REMARK    3  A    between atoms: C7_8  and  N1_9 
REMARK    4  A    between atoms: N1_9  and  C8_10 
REMARK    5  A    between atoms: C11_15  and  N4_16 
REMARK    6  A    between atoms: N4_16  and  C12_17 
ROOT
HETATM    1  C8  UNL     1      27.447   1.997  52.716  1.00  0.00     0.092 A 
HETATM    2  C9  UNL     1      28.531   2.465  53.412  1.00  0.00     0.151 A 
HETATM    3  N2  UNL     1      29.053   1.762  54.439  1.00  0.00    -0.252 NA
HETATM    4  C10 UNL     1      28.522   0.573  54.810  1.00  0.00     0.235 A 
HETATM    5  N3  UNL     1      27.475   0.170  54.100  1.00  0.00    -0.222 NA
HETATM    6  C11 UNL     1      26.889   0.789  53.075  1.00  0.00     0.157 A 
ENDROOT
BRANCH   1   7
HETATM    7  N1  UNL     1      27.014   2.854  51.684  1.00  0.00    -0.381 N 
HETATM    8  H9  UNL     1      27.001   3.853  51.967  1.00  0.00     0.160 HD
BRANCH   7   9
HETATM    9  C7  UNL     1      26.563   2.780  50.309  1.00  0.00     0.158 C 
BRANCH   9  10
HETATM   10  C6  UNL     1      26.647   4.080  49.619  1.00  0.00    -0.038 A 
HETATM   11  C5  UNL     1      25.449   4.781  49.819  1.00  0.00     0.009 A 
HETATM   12  C4  UNL     1      25.254   6.058  49.286  1.00  0.00     0.003 A 
HETATM   13  C3  UNL     1      26.240   6.675  48.538  1.00  0.00     0.037 A 
HETATM   14  C2  UNL     1      27.410   5.961  48.357  1.00  0.00     0.068 A 
HETATM   15  C18 UNL     1      27.614   4.710  48.874  1.00  0.00     0.045 A 
BRANCH  14  16
HETATM   16  O1  UNL     1      28.430   6.525  47.621  1.00  0.00    -0.356 OA
HETATM   17  C1  UNL     1      29.739   6.636  48.094  1.00  0.00     0.210 C 
ENDBRANCH  14  16
ENDBRANCH   9  10
ENDBRANCH   7   9
ENDBRANCH   1   7
BRANCH   6  18
HETATM   18  N4  UNL     1      25.774   0.303  52.360  1.00  0.00    -0.339 N 
HETATM   19  H12 UNL     1      25.893  -0.293  51.526  1.00  0.00     0.167 HD
BRANCH  18  20
HETATM   20  C12 UNL     1      24.400   0.521  52.627  1.00  0.00     0.035 A 
HETATM   21  C13 UNL     1      23.719   1.667  52.293  1.00  0.00     0.029 A 
HETATM   22  C14 UNL     1      22.388   1.903  52.540  1.00  0.00     0.004 A 
HETATM   23  C15 UNL     1      21.655   0.928  53.175  1.00  0.00     0.019 A 
HETATM   24  C16 UNL     1      22.265  -0.239  53.537  1.00  0.00     0.013 A 
HETATM   25 BR1  UNL     1      21.278  -1.597  54.411  1.00  0.00    -0.051 Br
HETATM   26  C17 UNL     1      23.598  -0.403  53.257  1.00  0.00     0.048 A 
ENDBRANCH  18  20
ENDBRANCH   6  18
TORSDOF 6
ENDMDL
MODEL 4
REMARK VINA RESULT:      -8.3      1.832      5.808
REMARK  6 active torsions:
REMARK  status: ('A' for Active; 'I' for Inactive)
REMARK    1  A    between atoms: O1_2  and  C2_3 
REMARK    2  A    between atoms: C6_7  and  C7_8 
REMARK    3  A    between atoms: C7_8  and  N1_9 
REMARK    4  A    between atoms: N1_9  and  C8_10 
REMARK    5  A    between atoms: C11_15  and  N4_16 
REMARK    6  A    between atoms: N4_16  and  C12_17 
ROOT
HETATM    1  C8  UNL     1      26.956   0.653  53.368  1.00  0.00     0.092 A 
HETATM    2  C9  UNL     1      27.734   0.498  54.486  1.00  0.00     0.151 A 
HETATM    3  N2  UNL     1      28.768   1.329  54.732  1.00  0.00    -0.252 NA
HETATM    4  C10 UNL     1      29.066   2.340  53.882  1.00  0.00     0.235 A 
HETATM    5  N3  UNL     1      28.277   2.442  52.819  1.00  0.00    -0.222 NA
HETATM    6  C11 UNL     1      27.238   1.675  52.489  1.00  0.00     0.157 A 
ENDROOT
BRANCH   1   7
HETATM    7  N1  UNL     1      25.926  -0.304  53.249  1.00  0.00    -0.381 N 
HETATM    8  H9  UNL     1      25.891  -0.745  52.310  1.00  0.00     0.160 HD
BRANCH   7   9
HETATM    9  C7  UNL     1      24.865  -0.882  54.048  1.00  0.00     0.158 C 
BRANCH   9  10
HETATM   10  C6  UNL     1      23.556  -0.259  53.780  1.00  0.00    -0.038 A 
HETATM   11  C5  UNL     1      22.588  -0.860  54.597  1.00  0.00     0.009 A 
HETATM   12  C4  UNL     1      21.251  -0.455  54.562  1.00  0.00     0.003 A 
HETATM   13  C3  UNL     1      20.836   0.557  53.717  1.00  0.00     0.037 A 
HETATM   14  C2  UNL     1      21.812   1.132  52.923  1.00  0.00     0.068 A 
HETATM   15  C18 UNL     1      23.124   0.745  52.947  1.00  0.00     0.045 A 
BRANCH  14  16
HETATM   16  O1  UNL     1      21.458   2.147  52.060  1.00  0.00    -0.356 OA
HETATM   17  C1  UNL     1      20.515   3.126  52.381  1.00  0.00     0.210 C 
ENDBRANCH  14  16
ENDBRANCH   9  10
ENDBRANCH   7   9
ENDBRANCH   1   7
BRANCH   6  18
HETATM   18  N4  UNL     1      26.438   1.838  51.339  1.00  0.00    -0.339 N 
HETATM   19  H12 UNL     1      26.043   1.023  50.843  1.00  0.00     0.167 HD
BRANCH  18  20
HETATM   20  C12 UNL     1      26.056   3.044  50.703  1.00  0.00     0.035 A 
HETATM   21  C13 UNL     1      26.761   3.641  49.685  1.00  0.00     0.029 A 
HETATM   22  C14 UNL     1      26.412   4.808  49.051  1.00  0.00     0.004 A 
HETATM   23  C15 UNL     1      25.266   5.455  49.450  1.00  0.00     0.019 A 
HETATM   24  C16 UNL     1      24.513   4.922  50.457  1.00  0.00     0.013 A 
HETATM   25 BR1  UNL     1      22.931   5.792  51.024  1.00  0.00    -0.051 Br
HETATM   26  C17 UNL     1      24.925   3.752  51.042  1.00  0.00     0.048 A 
ENDBRANCH  18  20
ENDBRANCH   6  18
TORSDOF 6
ENDMDL
MODEL 5
REMARK VINA RESULT:      -7.6      2.973      4.673
REMARK  6 active torsions:
REMARK  status: ('A' for Active; 'I' for Inactive)
REMARK    1  A    between atoms: O1_2  and  C2_3 
REMARK    2  A    between atoms: C6_7  and  C7_8 
REMARK    3  A    between atoms: C7_8  and  N1_9 
REMARK    4  A    between atoms: N1_9  and  C8_10 
REMARK    5  A    between atoms: C11_15  and  N4_16 
REMARK    6  A    between atoms: N4_16  and  C12_17 
ROOT
HETATM    1  C8  UNL     1      24.309   4.305  51.084  1.00  0.00     0.092 A 
HETATM    2  C9  UNL     1      23.414   4.778  50.161  1.00  0.00     0.151 A 
HETATM    3  N2  UNL     1      22.086   4.750  50.404  1.00  0.00    -0.252 NA
HETATM    4  C10 UNL     1      21.602   4.254  51.567  1.00  0.00     0.235 A 
HETATM    5  N3  UNL     1      22.515   3.813  52.422  1.00  0.00    -0.222 NA
HETATM    6  C11 UNL     1      23.840   3.797  52.276  1.00  0.00     0.157 A 
ENDROOT
BRANCH   1   7
HETATM    7  N1  UNL     1      25.656   4.392  50.674  1.00  0.00    -0.381 N 
HETATM    8  H9  UNL     1      26.280   4.772  51.413  1.00  0.00     0.160 HD
BRANCH   7   9
HETATM    9  C7  UNL     1      26.471   4.113  49.509  1.00  0.00     0.158 C 
BRANCH   9  10
HETATM   10  C6  UNL     1      26.911   5.342  48.825  1.00  0.00    -0.038 A 
HETATM   11  C5  UNL     1      28.270   5.222  48.500  1.00  0.00     0.009 A 
HETATM   12  C4  UNL     1      28.952   6.241  47.829  1.00  0.00     0.003 A 
HETATM   13  C3  UNL     1      28.307   7.407  47.462  1.00  0.00     0.037 A 
HETATM   14  C2  UNL     1      26.968   7.498  47.794  1.00  0.00     0.068 A 
HETATM   15  C18 UNL     1      26.287   6.508  48.451  1.00  0.00     0.045 A 
BRANCH  14  16
HETATM   16  O1  UNL     1      26.271   8.637  47.453  1.00  0.00    -0.356 OA
HETATM   17  C1  UNL     1      24.881   8.734  47.539  1.00  0.00     0.210 C 
ENDBRANCH  14  16
ENDBRANCH   9  10
ENDBRANCH   7   9
ENDBRANCH   1   7
BRANCH   6  18
HETATM   18  N4  UNL     1      24.760   3.311  53.230  1.00  0.00    -0.339 N 
HETATM   19  H12 UNL     1      25.118   3.918  53.984  1.00  0.00     0.167 HD
BRANCH  18  20
HETATM   20  C12 UNL     1      25.315   2.012  53.326  1.00  0.00     0.035 A 
HETATM   21  C13 UNL     1      24.593   0.849  53.195  1.00  0.00     0.029 A 
HETATM   22  C14 UNL     1      25.108  -0.421  53.282  1.00  0.00     0.004 A 
HETATM   23  C15 UNL     1      26.453  -0.571  53.522  1.00  0.00     0.019 A 
HETATM   24  C16 UNL     1      27.235   0.540  53.664  1.00  0.00     0.013 A 
HETATM   25 BR1  UNL     1      29.090   0.363  53.994  1.00  0.00    -0.051 Br
HETATM   26  C17 UNL     1      26.650   1.777  53.563  1.00  0.00     0.048 A 
ENDBRANCH  18  20
ENDBRANCH   6  18
TORSDOF 6
ENDMDL
MODEL 6
REMARK VINA RESULT:      -7.6      3.775      6.339
REMARK  6 active torsions:
REMARK  status: ('A' for Active; 'I' for Inactive)
REMARK    1  A    between atoms: O1_2  and  C2_3 
REMARK    2  A    between atoms: C6_7  and  C7_8 
REMARK    3  A    between atoms: C7_8  and  N1_9 
REMARK    4  A    between atoms: N1_9  and  C8_10 
REMARK    5  A    between atoms: C11_15  and  N4_16 
REMARK    6  A    between atoms: N4_16  and  C12_17 
ROOT
HETATM    1  C8  UNL     1      22.972   0.270  53.518  1.00  0.00     0.092 A 
HETATM    2  C9  UNL     1      23.269  -0.804  54.316  1.00  0.00     0.151 A 
HETATM    3  N2  UNL     1      22.294  -1.615  54.780  1.00  0.00    -0.252 NA
HETATM    4  C10 UNL     1      20.995  -1.389  54.470  1.00  0.00     0.235 A 
HETATM    5  N3  UNL     1      20.769  -0.335  53.694  1.00  0.00    -0.222 NA
HETATM    6  C11 UNL     1      21.658   0.520  53.188  1.00  0.00     0.157 A 
ENDROOT
BRANCH   1   7
HETATM    7  N1  UNL     1      24.098   1.024  53.129  1.00  0.00    -0.381 N 
HETATM    8  H9  UNL     1      24.266   1.846  53.740  1.00  0.00     0.160 HD
BRANCH   7   9
HETATM    9  C7  UNL     1      25.128   1.016  52.109  1.00  0.00     0.158 C 
BRANCH   9  10
HETATM   10  C6  UNL     1      26.472   0.785  52.671  1.00  0.00    -0.038 A 
HETATM   11  C5  UNL     1      27.074   2.024  52.935  1.00  0.00     0.009 A 
HETATM   12  C4  UNL     1      28.355   2.108  53.487  1.00  0.00     0.003 A 
HETATM   13  C3  UNL     1      29.075   0.968  53.792  1.00  0.00     0.037 A 
HETATM   14  C2  UNL     1      28.457  -0.238  53.521  1.00  0.00     0.068 A 
HETATM   15  C18 UNL     1      27.203  -0.336  52.981  1.00  0.00     0.045 A 
BRANCH  14  16
HETATM   16  O1  UNL     1      29.126  -1.410  53.804  1.00  0.00    -0.356 OA
HETATM   17  C1  UNL     1      28.861  -2.615  53.150  1.00  0.00     0.210 C 
ENDBRANCH  14  16
ENDBRANCH   9  10
ENDBRANCH   7   9
ENDBRANCH   1   7
BRANCH   6  18
HETATM   18  N4  UNL     1      21.349   1.624  52.367  1.00  0.00    -0.339 N 
HETATM   19  H12 UNL     1      20.847   2.444  52.741  1.00  0.00     0.167 HD
BRANCH  18  20
HETATM   20  C12 UNL     1      21.645   1.803  50.993  1.00  0.00     0.035 A 
HETATM   21  C13 UNL     1      21.330   0.897  50.009  1.00  0.00     0.029 A 
HETATM   22  C14 UNL     1      21.604   1.046  48.671  1.00  0.00     0.004 A 
HETATM   23  C15 UNL     1      22.248   2.188  48.256  1.00  0.00     0.019 A 
HETATM   24  C16 UNL     1      22.593   3.134  49.179  1.00  0.00     0.013 A 
HETATM   25 BR1  UNL     1      23.480   4.715  48.634  1.00  0.00    -0.051 Br
HETATM   26  C17 UNL     1      22.286   2.915  50.497  1.00  0.00     0.048 A 
ENDBRANCH  18  20
ENDBRANCH   6  18
TORSDOF 6
ENDMDL
MODEL 7
REMARK VINA RESULT:      -7.5      3.495      6.876
REMARK  6 active torsions:
REMARK  status: ('A' for Active; 'I' for Inactive)
REMARK    1  A    between atoms: O1_2  and  C2_3 
REMARK    2  A    between atoms: C6_7  and  C7_8 
REMARK    3  A    between atoms: C7_8  and  N1_9 
REMARK    4  A    between atoms: N1_9  and  C8_10 
REMARK    5  A    between atoms: C11_15  and  N4_16 
REMARK    6  A    between atoms: N4_16  and  C12_17 
ROOT
HETATM    1  C8  UNL     1      24.510   2.576  50.814  1.00  0.00     0.092 A 
HETATM    2  C9  UNL     1      24.253   3.280  49.666  1.00  0.00     0.151 A 
HETATM    3  N2  UNL     1      25.216   4.015  49.072  1.00  0.00    -0.252 NA
HETATM    4  C10 UNL     1      26.464   4.079  49.593  1.00  0.00     0.235 A 
HETATM    5  N3  UNL     1      26.654   3.377  50.704  1.00  0.00    -0.222 NA
HETATM    6  C11 UNL     1      25.773   2.625  51.363  1.00  0.00     0.157 A 
ENDROOT
BRANCH   1   7
HETATM    7  N1  UNL     1      23.397   1.871  51.317  1.00  0.00    -0.381 N 
HETATM    8  H9  UNL     1      23.392   0.871  51.037  1.00  0.00     0.160 HD
BRANCH   7   9
HETATM    9  C7  UNL     1      22.218   2.109  52.124  1.00  0.00     0.158 C 
BRANCH   9  10
HETATM   10  C6  UNL     1      21.853   0.939  52.944  1.00  0.00    -0.038 A 
HETATM   11  C5  UNL     1      20.522   0.590  52.674  1.00  0.00     0.009 A 
HETATM   12  C4  UNL     1      19.911  -0.498  53.304  1.00  0.00     0.003 A 
HETATM   13  C3  UNL     1      20.603  -1.270  54.219  1.00  0.00     0.037 A 
HETATM   14  C2  UNL     1      21.913  -0.903  54.465  1.00  0.00     0.068 A 
HETATM   15  C18 UNL     1      22.523   0.160  53.856  1.00  0.00     0.045 A 
BRANCH  14  16
HETATM   16  O1  UNL     1      22.653  -1.635  55.369  1.00  0.00    -0.356 OA
HETATM   17  C1  UNL     1      23.991  -1.359  55.659  1.00  0.00     0.210 C 
ENDBRANCH  14  16
ENDBRANCH   9  10
ENDBRANCH   7   9
ENDBRANCH   1   7
BRANCH   6  18
HETATM   18  N4  UNL     1      26.042   1.901  52.544  1.00  0.00    -0.339 N 
HETATM   19  H12 UNL     1      25.809   2.289  53.472  1.00  0.00     0.167 HD
BRANCH  18  20
HETATM   20  C12 UNL     1      26.629   0.618  52.669  1.00  0.00     0.035 A 
HETATM   21  C13 UNL     1      25.990  -0.559  52.361  1.00  0.00     0.029 A 
HETATM   22  C14 UNL     1      26.536  -1.814  52.472  1.00  0.00     0.004 A 
HETATM   23  C15 UNL     1      27.828  -1.931  52.929  1.00  0.00     0.019 A 
HETATM   24  C16 UNL     1      28.526  -0.804  53.256  1.00  0.00     0.013 A 
HETATM   25 BR1  UNL     1      30.305  -0.936  53.887  1.00  0.00    -0.051 Br
HETATM   26  C17 UNL     1      27.914   0.416  53.118  1.00  0.00     0.048 A 
ENDBRANCH  18  20
ENDBRANCH   6  18
TORSDOF 6
ENDMDL
MODEL 8
REMARK VINA RESULT:      -7.4      1.678      2.315
REMARK  6 active torsions:
REMARK  status: ('A' for Active; 'I' for Inactive)
REMARK    1  A    between atoms: O1_2  and  C2_3 
REMARK    2  A    between atoms: C6_7  and  C7_8 
REMARK    3  A    between atoms: C7_8  and  N1_9 
REMARK    4  A    between atoms: N1_9  and  C8_10 
REMARK    5  A    between atoms: C11_15  and  N4_16 
REMARK    6  A    between atoms: N4_16  and  C12_17 
ROOT
HETATM    1  C8  UNL     1      26.592   2.311  52.234  1.00  0.00     0.092 A 
HETATM    2  C9  UNL     1      27.799   1.777  52.605  1.00  0.00     0.151 A 
HETATM    3  N2  UNL     1      27.887   0.914  53.639  1.00  0.00    -0.252 NA
HETATM    4  C10 UNL     1      26.786   0.551  54.339  1.00  0.00     0.235 A 
HETATM    5  N3  UNL     1      25.647   1.099  53.933  1.00  0.00    -0.222 NA
HETATM    6  C11 UNL     1      25.458   1.956  52.930  1.00  0.00     0.157 A 
ENDROOT
BRANCH   1   7
HETATM    7  N1  UNL     1      26.671   3.205  51.146  1.00  0.00    -0.381 N 
HETATM    8  H9  UNL     1      26.980   4.156  51.425  1.00  0.00     0.160 HD
BRANCH   7   9
HETATM    9  C7  UNL     1      26.448   3.217  49.714  1.00  0.00     0.158 C 
BRANCH   9  10
HETATM   10  C6  UNL     1      26.396   4.585  49.166  1.00  0.00    -0.038 A 
HETATM   11  C5  UNL     1      27.673   4.941  48.708  1.00  0.00     0.009 A 
HETATM   12  C4  UNL     1      27.917   6.186  48.124  1.00  0.00     0.003 A 
HETATM   13  C3  UNL     1      26.903   7.114  47.976  1.00  0.00     0.037 A 
HETATM   14  C2  UNL     1      25.654   6.736  48.435  1.00  0.00     0.068 A 
HETATM   15  C18 UNL     1      25.402   5.520  49.010  1.00  0.00     0.045 A 
BRANCH  14  16
HETATM   16  O1  UNL     1      24.603   7.619  48.315  1.00  0.00    -0.356 OA
HETATM   17  C1  UNL     1      24.384   8.669  49.209  1.00  0.00     0.210 C 
ENDBRANCH  14  16
ENDBRANCH   9  10
ENDBRANCH   7   9
ENDBRANCH   1   7
BRANCH   6  18
HETATM   18  N4  UNL     1      24.214   2.503  52.549  1.00  0.00    -0.339 N 
HETATM   19  H12 UNL     1      23.998   3.500  52.709  1.00  0.00     0.167 HD
BRANCH  18  20
HETATM   20  C12 UNL     1      23.123   1.848  51.929  1.00  0.00     0.035 A 
HETATM   21  C13 UNL     1      22.936   1.772  50.569  1.00  0.00     0.029 A 
HETATM   22  C14 UNL     1      21.888   1.141  49.944  1.00  0.00     0.004 A 
HETATM   23  C15 UNL     1      20.932   0.529  50.719  1.00  0.00     0.019 A 
HETATM   24  C16 UNL     1      21.051   0.563  52.079  1.00  0.00     0.013 A 
HETATM   25 BR1  UNL     1      19.749  -0.273  53.169  1.00  0.00    -0.051 Br
HETATM   26  C17 UNL     1      22.126   1.211  52.633  1.00  0.00     0.048 A 
ENDBRANCH  18  20
ENDBRANCH   6  18
TORSDOF 6
ENDMDL
MODEL 9
REMARK VINA RESULT:      -7.3      3.692      7.138
REMARK  6 active torsions:
REMARK  status: ('A' for Active; 'I' for Inactive)
REMARK    1  A    between atoms: O1_2  and  C2_3 
REMARK    2  A    between atoms: C6_7  and  C7_8 
REMARK    3  A    between atoms: C7_8  and  N1_9 
REMARK    4  A    between atoms: N1_9  and  C8_10 
REMARK    5  A    between atoms: C11_15  and  N4_16 
REMARK    6  A    between atoms: N4_16  and  C12_17 
ROOT
HETATM    1  C8  UNL     1      21.652   2.005  51.490  1.00  0.00     0.092 A 
HETATM    2  C9  UNL     1      20.649   2.107  52.419  1.00  0.00     0.151 A 
HETATM    3  N2  UNL     1      19.742   3.105  52.355  1.00  0.00    -0.252 NA
HETATM    4  C10 UNL     1      19.798   4.034  51.371  1.00  0.00     0.235 A 
HETATM    5  N3  UNL     1      20.789   3.883  50.500  1.00  0.00    -0.222 NA
HETATM    6  C11 UNL     1      21.728   2.938  50.478  1.00  0.00     0.157 A 
ENDROOT
BRANCH   1   7
HETATM    7  N1  UNL     1      22.523   0.918  51.704  1.00  0.00    -0.381 N 
HETATM    8  H9  UNL     1      22.800   0.441  50.823  1.00  0.00     0.160 HD
BRANCH   7   9
HETATM    9  C7  UNL     1      23.174   0.229  52.800  1.00  0.00     0.158 C 
BRANCH   9  10
HETATM   10  C6  UNL     1      24.593   0.604  52.936  1.00  0.00    -0.038 A 
HETATM   11  C5  UNL     1      24.674   1.941  53.353  1.00  0.00     0.009 A 
HETATM   12  C4  UNL     1      25.905   2.562  53.576  1.00  0.00     0.003 A 
HETATM   13  C3  UNL     1      27.092   1.876  53.392  1.00  0.00     0.037 A 
HETATM   14  C2  UNL     1      26.982   0.561  52.982  1.00  0.00     0.068 A 
HETATM   15  C18 UNL     1      25.783  -0.060  52.759  1.00  0.00     0.045 A 
BRANCH  14  16
HETATM   16  O1  UNL     1      28.131  -0.174  52.782  1.00  0.00    -0.356 OA
HETATM   17  C1  UNL     1      28.858  -0.749  53.826  1.00  0.00     0.210 C 
ENDBRANCH  14  16
ENDBRANCH   9  10
ENDBRANCH   7   9
ENDBRANCH   1   7
BRANCH   6  18
HETATM   18  N4  UNL     1      22.758   2.835  49.520  1.00  0.00    -0.339 N 
HETATM   19  H12 UNL     1      22.697   2.161  48.740  1.00  0.00     0.167 HD
BRANCH  18  20
HETATM   20  C12 UNL     1      23.965   3.573  49.450  1.00  0.00     0.035 A 
HETATM   21  C13 UNL     1      25.179   3.118  49.908  1.00  0.00     0.029 A 
HETATM   22  C14 UNL     1      26.362   3.812  49.851  1.00  0.00     0.004 A 
HETATM   23  C15 UNL     1      26.360   5.070  49.296  1.00  0.00     0.019 A 
HETATM   24  C16 UNL     1      25.190   5.590  48.820  1.00  0.00     0.013 A 
HETATM   25 BR1  UNL     1      25.160   7.318  48.051  1.00  0.00    -0.051 Br
HETATM   26  C17 UNL     1      24.047   4.836  48.911  1.00  0.00     0.048 A 
ENDBRANCH  18  20
ENDBRANCH   6  18
TORSDOF 6
ENDMDL
