MODEL 1
REMARK VINA RESULT:      -7.5      0.000      0.000
REMARK  8 active torsions:
REMARK  status: ('A' for Active; 'I' for Inactive)
REMARK    1  A    between atoms: C2_2  and  C3_3 
REMARK    2  A    between atoms: C3_3  and  C4_4 
REMARK    3  A    between atoms: C4_4  and  C5_5 
REMARK    4  A    between atoms: C5_5  and  C6_6 
REMARK    5  A    between atoms: C6_6  and  N1_7 
REMARK    6  A    between atoms: N1_7  and  C7_8 
REMARK    7  A    between atoms: C12_15  and  N4_16 
REMARK       I    between atoms: N4_16  and  C13_17 
REMARK    8  A    between atoms: C13_17  and  C14_19 
ROOT
HETATM    1  C14 UNL     1      26.389   5.090  49.248  1.00  0.00    -0.006 C 
HETATM    2  C15 UNL     1      26.568   6.099  48.612  1.00  0.00    -0.101 C 
HETATM    3  C16 UNL     1      26.777   7.326  47.838  1.00  0.00     0.112 C 
ENDROOT
BRANCH   1   4
HETATM    4  C13 UNL     1      26.197   3.896  50.016  1.00  0.00     0.300 C 
HETATM    5  N4  UNL     1      25.373   3.789  51.156  1.00  0.00    -0.316 N 
HETATM    6  H12 UNL     1      24.922   4.707  51.360  1.00  0.00     0.170 HD
HETATM    7  O1  UNL     1      26.827   2.887  49.614  1.00  0.00    -0.258 OA
BRANCH   5   8
HETATM    8  C12 UNL     1      25.124   2.659  51.973  1.00  0.00     0.036 A 
HETATM    9  C11 UNL     1      23.914   2.024  51.794  1.00  0.00     0.032 A 
HETATM   10  C10 UNL     1      23.562   0.916  52.531  1.00  0.00     0.035 A 
HETATM   11  C9  UNL     1      24.404   0.388  53.484  1.00  0.00     0.072 A 
HETATM   12  N3  UNL     1      24.012  -0.695  54.178  1.00  0.00    -0.241 NA
HETATM   13  C18 UNL     1      25.618   1.009  53.678  1.00  0.00     0.041 A 
HETATM   14  C8  UNL     1      24.895  -1.156  55.098  1.00  0.00     0.235 A 
HETATM   15  N2  UNL     1      26.067  -0.560  55.287  1.00  0.00    -0.224 NA
HETATM   16  C7  UNL     1      26.480   0.507  54.622  1.00  0.00     0.137 A 
HETATM   17  C17 UNL     1      25.938   2.115  52.923  1.00  0.00     0.047 A 
BRANCH  16  18
HETATM   18  N1  UNL     1      27.754   1.075  54.897  1.00  0.00    -0.371 N 
HETATM   19  H8  UNL     1      28.184   1.252  55.827  1.00  0.00     0.161 HD
BRANCH  18  20
HETATM   20  C6  UNL     1      28.594   1.473  53.809  1.00  0.00     0.148 C 
BRANCH  20  21
HETATM   21  C5  UNL     1      29.275   0.359  53.118  1.00  0.00    -0.007 C 
BRANCH  21  22
HETATM   22  C4  UNL     1      29.809  -0.741  53.638  1.00  0.00     0.005 C 
BRANCH  22  23
HETATM   23  C3  UNL     1      29.208  -2.026  53.511  1.00  0.00     0.050 C 
BRANCH  23  24
HETATM   24  C2  UNL     1      28.143  -2.192  52.769  1.00  0.00    -0.155 C 
HETATM   25  C1  UNL     1      26.947  -2.249  52.206  1.00  0.00     0.096 C 
ENDBRANCH  23  24
ENDBRANCH  22  23
ENDBRANCH  21  22
ENDBRANCH  20  21
ENDBRANCH  18  20
ENDBRANCH  16  18
ENDBRANCH   5   8
ENDBRANCH   1   4
TORSDOF 8
ENDMDL
MODEL 2
REMARK VINA RESULT:      -7.4      1.252      2.172
REMARK  8 active torsions:
REMARK  status: ('A' for Active; 'I' for Inactive)
REMARK    1  A    between atoms: C2_2  and  C3_3 
REMARK    2  A    between atoms: C3_3  and  C4_4 
REMARK    3  A    between atoms: C4_4  and  C5_5 
REMARK    4  A    between atoms: C5_5  and  C6_6 
REMARK    5  A    between atoms: C6_6  and  N1_7 
REMARK    6  A    between atoms: N1_7  and  C7_8 
REMARK    7  A    between atoms: C12_15  and  N4_16 
REMARK       I    between atoms: N4_16  and  C13_17 
REMARK    8  A    between atoms: C13_17  and  C14_19 
ROOT
HETATM    1  C14 UNL     1      27.223   4.654  49.026  1.00  0.00    -0.006 C 
HETATM    2  C15 UNL     1      28.051   5.363  48.509  1.00  0.00    -0.101 C 
HETATM    3  C16 UNL     1      29.052   6.224  47.874  1.00  0.00     0.112 C 
ENDROOT
BRANCH   1   4
HETATM    4  C13 UNL     1      26.245   3.822  49.662  1.00  0.00     0.300 C 
HETATM    5  N4  UNL     1      26.331   3.331  50.981  1.00  0.00    -0.316 N 
HETATM    6  H12 UNL     1      27.213   3.662  51.430  1.00  0.00     0.170 HD
HETATM    7  O1  UNL     1      25.247   3.527  48.958  1.00  0.00    -0.258 OA
BRANCH   5   8
HETATM    8  C12 UNL     1      25.420   2.509  51.688  1.00  0.00     0.036 A 
HETATM    9  C11 UNL     1      24.093   2.876  51.640  1.00  0.00     0.032 A 
HETATM   10  C10 UNL     1      23.118   2.152  52.288  1.00  0.00     0.035 A 
HETATM   11  C9  UNL     1      23.423   1.025  53.018  1.00  0.00     0.072 A 
HETATM   12  N3  UNL     1      22.433   0.354  53.634  1.00  0.00    -0.241 NA
HETATM   13  C18 UNL     1      24.745   0.642  53.078  1.00  0.00     0.041 A 
HETATM   14  C8  UNL     1      22.812  -0.745  54.332  1.00  0.00     0.235 A 
HETATM   15  N2  UNL     1      24.086  -1.117  54.392  1.00  0.00    -0.224 NA
HETATM   16  C7  UNL     1      25.082  -0.478  53.798  1.00  0.00     0.137 A 
HETATM   17  C17 UNL     1      25.694   1.389  52.417  1.00  0.00     0.047 A 
BRANCH  16  18
HETATM   18  N1  UNL     1      26.415  -0.955  53.921  1.00  0.00    -0.371 N 
HETATM   19  H8  UNL     1      27.044  -0.879  54.746  1.00  0.00     0.161 HD
BRANCH  18  20
HETATM   20  C6  UNL     1      27.023  -1.629  52.815  1.00  0.00     0.148 C 
BRANCH  20  21
HETATM   21  C5  UNL     1      28.427  -2.032  53.037  1.00  0.00    -0.007 C 
BRANCH  21  22
HETATM   22  C4  UNL     1      29.391  -1.377  53.676  1.00  0.00     0.005 C 
BRANCH  22  23
HETATM   23  C3  UNL     1      29.903  -0.127  53.226  1.00  0.00     0.050 C 
BRANCH  23  24
HETATM   24  C2  UNL     1      29.413   0.997  53.683  1.00  0.00    -0.155 C 
HETATM   25  C1  UNL     1      28.837   2.166  53.911  1.00  0.00     0.096 C 
ENDBRANCH  23  24
ENDBRANCH  22  23
ENDBRANCH  21  22
ENDBRANCH  20  21
ENDBRANCH  18  20
ENDBRANCH  16  18
ENDBRANCH   5   8
ENDBRANCH   1   4
TORSDOF 8
ENDMDL
MODEL 3
REMARK VINA RESULT:      -7.2      2.411      6.394
REMARK  8 active torsions:
REMARK  status: ('A' for Active; 'I' for Inactive)
REMARK    1  A    between atoms: C2_2  and  C3_3 
REMARK    2  A    between atoms: C3_3  and  C4_4 
REMARK    3  A    between atoms: C4_4  and  C5_5 
REMARK    4  A    between atoms: C5_5  and  C6_6 
REMARK    5  A    between atoms: C6_6  and  N1_7 
REMARK    6  A    between atoms: N1_7  and  C7_8 
REMARK    7  A    between atoms: C12_15  and  N4_16 
REMARK       I    between atoms: N4_16  and  C13_17 
REMARK    8  A    between atoms: C13_17  and  C14_19 
ROOT
HETATM    1  C14 UNL     1      27.850  -0.022  53.757  1.00  0.00    -0.006 C 
HETATM    2  C15 UNL     1      28.911  -0.593  53.804  1.00  0.00    -0.101 C 
HETATM    3  C16 UNL     1      30.198  -1.293  53.867  1.00  0.00     0.112 C 
ENDROOT
BRANCH   1   4
HETATM    4  C13 UNL     1      26.593   0.661  53.679  1.00  0.00     0.300 C 
HETATM    5  N4  UNL     1      25.478   0.224  52.934  1.00  0.00    -0.316 N 
HETATM    6  H12 UNL     1      25.701  -0.671  52.447  1.00  0.00     0.170 HD
HETATM    7  O1  UNL     1      26.515   1.728  54.337  1.00  0.00    -0.258 OA
BRANCH   5   8
HETATM    8  C12 UNL     1      24.204   0.828  52.798  1.00  0.00     0.036 A 
HETATM    9  C11 UNL     1      23.115   0.049  53.121  1.00  0.00     0.032 A 
HETATM   10  C10 UNL     1      21.828   0.529  53.028  1.00  0.00     0.035 A 
HETATM   11  C9  UNL     1      21.568   1.814  52.605  1.00  0.00     0.072 A 
HETATM   12  N3  UNL     1      20.292   2.234  52.531  1.00  0.00    -0.241 NA
HETATM   13  C18 UNL     1      22.644   2.608  52.277  1.00  0.00     0.041 A 
HETATM   14  C8  UNL     1      20.116   3.510  52.107  1.00  0.00     0.235 A 
HETATM   15  N2  UNL     1      21.152   4.279  51.790  1.00  0.00    -0.224 NA
HETATM   16  C7  UNL     1      22.418   3.894  51.852  1.00  0.00     0.137 A 
HETATM   17  C17 UNL     1      23.917   2.096  52.383  1.00  0.00     0.047 A 
BRANCH  16  18
HETATM   18  N1  UNL     1      23.458   4.792  51.491  1.00  0.00    -0.371 N 
HETATM   19  H8  UNL     1      24.199   5.187  52.104  1.00  0.00     0.161 HD
BRANCH  18  20
HETATM   20  C6  UNL     1      23.553   5.247  50.137  1.00  0.00     0.148 C 
BRANCH  20  21
HETATM   21  C5  UNL     1      24.245   4.315  49.223  1.00  0.00    -0.007 C 
BRANCH  21  22
HETATM   22  C4  UNL     1      25.219   3.452  49.493  1.00  0.00     0.005 C 
BRANCH  22  23
HETATM   23  C3  UNL     1      26.580   3.845  49.639  1.00  0.00     0.050 C 
BRANCH  23  24
HETATM   24  C2  UNL     1      27.083   4.793  48.890  1.00  0.00    -0.155 C 
HETATM   25  C1  UNL     1      27.664   5.852  48.350  1.00  0.00     0.096 C 
ENDBRANCH  23  24
ENDBRANCH  22  23
ENDBRANCH  21  22
ENDBRANCH  20  21
ENDBRANCH  18  20
ENDBRANCH  16  18
ENDBRANCH   5   8
ENDBRANCH   1   4
TORSDOF 8
ENDMDL
MODEL 4
REMARK VINA RESULT:      -7.1      2.831      6.895
REMARK  8 active torsions:
REMARK  status: ('A' for Active; 'I' for Inactive)
REMARK    1  A    between atoms: C2_2  and  C3_3 
REMARK    2  A    between atoms: C3_3  and  C4_4 
REMARK    3  A    between atoms: C4_4  and  C5_5 
REMARK    4  A    between atoms: C5_5  and  C6_6 
REMARK    5  A    between atoms: C6_6  and  N1_7 
REMARK    6  A    between atoms: N1_7  and  C7_8 
REMARK    7  A    between atoms: C12_15  and  N4_16 
REMARK       I    between atoms: N4_16  and  C13_17 
REMARK    8  A    between atoms: C13_17  and  C14_19 
ROOT
HETATM    1  C14 UNL     1      20.058  -0.476  53.394  1.00  0.00    -0.006 C 
HETATM    2  C15 UNL     1      18.908  -0.668  53.086  1.00  0.00    -0.101 C 
HETATM    3  C16 UNL     1      17.507  -0.894  52.716  1.00  0.00     0.112 C 
ENDROOT
BRANCH   1   4
HETATM    4  C13 UNL     1      21.432  -0.261  53.740  1.00  0.00     0.300 C 
HETATM    5  N4  UNL     1      22.493  -0.150  52.818  1.00  0.00    -0.316 N 
HETATM    6  H12 UNL     1      22.133  -0.248  51.844  1.00  0.00     0.170 HD
HETATM    7  O1  UNL     1      21.671  -0.169  54.970  1.00  0.00    -0.258 OA
BRANCH   5   8
HETATM    8  C12 UNL     1      23.871   0.061  53.066  1.00  0.00     0.036 A 
HETATM    9  C11 UNL     1      24.490  -0.834  53.911  1.00  0.00     0.032 A 
HETATM   10  C10 UNL     1      25.826  -0.729  54.224  1.00  0.00     0.035 A 
HETATM   11  C9  UNL     1      26.610   0.278  53.706  1.00  0.00     0.072 A 
HETATM   12  N3  UNL     1      27.911   0.337  54.044  1.00  0.00    -0.241 NA
HETATM   13  C18 UNL     1      26.009   1.183  52.858  1.00  0.00     0.041 A 
HETATM   14  C8  UNL     1      28.617   1.355  53.494  1.00  0.00     0.235 A 
HETATM   15  N2  UNL     1      28.040   2.229  52.676  1.00  0.00    -0.224 NA
HETATM   16  C7  UNL     1      26.764   2.198  52.325  1.00  0.00     0.137 A 
HETATM   17  C17 UNL     1      24.671   1.047  52.567  1.00  0.00     0.047 A 
BRANCH  16  18
HETATM   18  N1  UNL     1      26.239   3.181  51.443  1.00  0.00    -0.371 N 
HETATM   19  H8  UNL     1      25.766   4.073  51.692  1.00  0.00     0.161 HD
BRANCH  18  20
HETATM   20  C6  UNL     1      26.341   2.979  50.029  1.00  0.00     0.148 C 
BRANCH  20  21
HETATM   21  C5  UNL     1      26.840   4.147  49.275  1.00  0.00    -0.007 C 
BRANCH  21  22
HETATM   22  C4  UNL     1      26.344   5.379  49.223  1.00  0.00     0.005 C 
BRANCH  22  23
HETATM   23  C3  UNL     1      26.779   6.347  48.272  1.00  0.00     0.050 C 
BRANCH  23  24
HETATM   24  C2  UNL     1      28.051   6.612  48.128  1.00  0.00    -0.155 C 
HETATM   25  C1  UNL     1      29.347   6.661  47.864  1.00  0.00     0.096 C 
ENDBRANCH  23  24
ENDBRANCH  22  23
ENDBRANCH  21  22
ENDBRANCH  20  21
ENDBRANCH  18  20
ENDBRANCH  16  18
ENDBRANCH   5   8
ENDBRANCH   1   4
TORSDOF 8
ENDMDL
MODEL 5
REMARK VINA RESULT:      -7.0      2.861      6.507
REMARK  8 active torsions:
REMARK  status: ('A' for Active; 'I' for Inactive)
REMARK    1  A    between atoms: C2_2  and  C3_3 
REMARK    2  A    between atoms: C3_3  and  C4_4 
REMARK    3  A    between atoms: C4_4  and  C5_5 
REMARK    4  A    between atoms: C5_5  and  C6_6 
REMARK    5  A    between atoms: C6_6  and  N1_7 
REMARK    6  A    between atoms: N1_7  and  C7_8 
REMARK    7  A    between atoms: C12_15  and  N4_16 
REMARK       I    between atoms: N4_16  and  C13_17 
REMARK    8  A    between atoms: C13_17  and  C14_19 
ROOT
HETATM    1  C14 UNL     1      27.657  -0.337  53.020  1.00  0.00    -0.006 C 
HETATM    2  C15 UNL     1      28.745  -0.729  53.361  1.00  0.00    -0.101 C 
HETATM    3  C16 UNL     1      30.068  -1.212  53.770  1.00  0.00     0.112 C 
ENDROOT
BRANCH   1   4
HETATM    4  C13 UNL     1      26.371   0.152  52.622  1.00  0.00     0.300 C 
HETATM    5  N4  UNL     1      25.203   0.101  53.412  1.00  0.00    -0.316 N 
HETATM    6  H12 UNL     1      25.413  -0.346  54.332  1.00  0.00     0.170 HD
HETATM    7  O1  UNL     1      26.316   0.659  51.474  1.00  0.00    -0.258 OA
BRANCH   5   8
HETATM    8  C12 UNL     1      23.898   0.555  53.105  1.00  0.00     0.036 A 
HETATM    9  C11 UNL     1      22.897  -0.393  53.114  1.00  0.00     0.032 A 
HETATM   10  C10 UNL     1      21.590  -0.069  52.832  1.00  0.00     0.035 A 
HETATM   11  C9  UNL     1      21.219   1.222  52.526  1.00  0.00     0.072 A 
HETATM   12  N3  UNL     1      19.928   1.487  52.257  1.00  0.00    -0.241 NA
HETATM   13  C18 UNL     1      22.205   2.184  52.512  1.00  0.00     0.041 A 
HETATM   14  C8  UNL     1      19.640   2.779  51.965  1.00  0.00     0.235 A 
HETATM   15  N2  UNL     1      20.588   3.709  51.950  1.00  0.00    -0.224 NA
HETATM   16  C7  UNL     1      21.866   3.480  52.210  1.00  0.00     0.137 A 
HETATM   17  C17 UNL     1      23.502   1.824  52.799  1.00  0.00     0.047 A 
BRANCH  16  18
HETATM   18  N1  UNL     1      22.808   4.544  52.169  1.00  0.00    -0.371 N 
HETATM   19  H8  UNL     1      23.563   4.751  52.852  1.00  0.00     0.161 HD
BRANCH  18  20
HETATM   20  C6  UNL     1      22.764   5.476  51.084  1.00  0.00     0.148 C 
BRANCH  20  21
HETATM   21  C5  UNL     1      23.534   5.068  49.891  1.00  0.00    -0.007 C 
BRANCH  21  22
HETATM   22  C4  UNL     1      23.163   4.274  48.892  1.00  0.00     0.005 C 
BRANCH  22  23
HETATM   23  C3  UNL     1      23.363   2.864  48.911  1.00  0.00     0.050 C 
BRANCH  23  24
HETATM   24  C2  UNL     1      22.352   2.047  48.766  1.00  0.00    -0.155 C 
HETATM   25  C1  UNL     1      21.291   1.261  48.863  1.00  0.00     0.096 C 
ENDBRANCH  23  24
ENDBRANCH  22  23
ENDBRANCH  21  22
ENDBRANCH  20  21
ENDBRANCH  18  20
ENDBRANCH  16  18
ENDBRANCH   5   8
ENDBRANCH   1   4
TORSDOF 8
ENDMDL
MODEL 6
REMARK VINA RESULT:      -7.0      3.102      6.524
REMARK  8 active torsions:
REMARK  status: ('A' for Active; 'I' for Inactive)
REMARK    1  A    between atoms: C2_2  and  C3_3 
REMARK    2  A    between atoms: C3_3  and  C4_4 
REMARK    3  A    between atoms: C4_4  and  C5_5 
REMARK    4  A    between atoms: C5_5  and  C6_6 
REMARK    5  A    between atoms: C6_6  and  N1_7 
REMARK    6  A    between atoms: N1_7  and  C7_8 
REMARK    7  A    between atoms: C12_15  and  N4_16 
REMARK       I    between atoms: N4_16  and  C13_17 
REMARK    8  A    between atoms: C13_17  and  C14_19 
ROOT
HETATM    1  C14 UNL     1      19.693  -0.412  53.211  1.00  0.00    -0.006 C 
HETATM    2  C15 UNL     1      18.579  -0.641  52.812  1.00  0.00    -0.101 C 
HETATM    3  C16 UNL     1      17.226  -0.928  52.325  1.00  0.00     0.112 C 
ENDROOT
BRANCH   1   4
HETATM    4  C13 UNL     1      21.009  -0.125  53.702  1.00  0.00     0.300 C 
HETATM    5  N4  UNL     1      22.203  -0.297  52.972  1.00  0.00    -0.316 N 
HETATM    6  H12 UNL     1      21.990  -0.665  52.019  1.00  0.00     0.170 HD
HETATM    7  O1  UNL     1      21.063   0.312  54.878  1.00  0.00    -0.258 OA
BRANCH   5   8
HETATM    8  C12 UNL     1      23.537  -0.043  53.371  1.00  0.00     0.036 A 
HETATM    9  C11 UNL     1      24.064  -0.880  54.331  1.00  0.00     0.032 A 
HETATM   10  C10 UNL     1      25.351  -0.729  54.796  1.00  0.00     0.035 A 
HETATM   11  C9  UNL     1      26.175   0.268  54.323  1.00  0.00     0.072 A 
HETATM   12  N3  UNL     1      27.424   0.374  54.811  1.00  0.00    -0.241 NA
HETATM   13  C18 UNL     1      25.666   1.115  53.363  1.00  0.00     0.041 A 
HETATM   14  C8  UNL     1      28.174   1.379  54.297  1.00  0.00     0.235 A 
HETATM   15  N2  UNL     1      27.687   2.198  53.371  1.00  0.00    -0.224 NA
HETATM   16  C7  UNL     1      26.463   2.120  52.872  1.00  0.00     0.137 A 
HETATM   17  C17 UNL     1      24.375   0.935  52.921  1.00  0.00     0.047 A 
BRANCH  16  18
HETATM   18  N1  UNL     1      26.033   3.045  51.882  1.00  0.00    -0.371 N 
HETATM   19  H8  UNL     1      25.523   3.940  52.026  1.00  0.00     0.161 HD
BRANCH  18  20
HETATM   20  C6  UNL     1      26.299   2.769  50.503  1.00  0.00     0.148 C 
BRANCH  20  21
HETATM   21  C5  UNL     1      25.294   3.306  49.563  1.00  0.00    -0.007 C 
BRANCH  21  22
HETATM   22  C4  UNL     1      23.969   3.301  49.667  1.00  0.00     0.005 C 
BRANCH  22  23
HETATM   23  C3  UNL     1      23.120   2.695  48.696  1.00  0.00     0.050 C 
BRANCH  23  24
HETATM   24  C2  UNL     1      22.214   1.824  49.056  1.00  0.00    -0.155 C 
HETATM   25  C1  UNL     1      21.462   0.877  49.594  1.00  0.00     0.096 C 
ENDBRANCH  23  24
ENDBRANCH  22  23
ENDBRANCH  21  22
ENDBRANCH  20  21
ENDBRANCH  18  20
ENDBRANCH  16  18
ENDBRANCH   5   8
ENDBRANCH   1   4
TORSDOF 8
ENDMDL
MODEL 7
REMARK VINA RESULT:      -7.0      2.017      3.209
REMARK  8 active torsions:
REMARK  status: ('A' for Active; 'I' for Inactive)
REMARK    1  A    between atoms: C2_2  and  C3_3 
REMARK    2  A    between atoms: C3_3  and  C4_4 
REMARK    3  A    between atoms: C4_4  and  C5_5 
REMARK    4  A    between atoms: C5_5  and  C6_6 
REMARK    5  A    between atoms: C6_6  and  N1_7 
REMARK    6  A    between atoms: N1_7  and  C7_8 
REMARK    7  A    between atoms: C12_15  and  N4_16 
REMARK       I    between atoms: N4_16  and  C13_17 
REMARK    8  A    between atoms: C13_17  and  C14_19 
ROOT
HETATM    1  C14 UNL     1      28.227   5.233  48.513  1.00  0.00    -0.006 C 
HETATM    2  C15 UNL     1      29.299   5.582  48.085  1.00  0.00    -0.101 C 
HETATM    3  C16 UNL     1      30.600   6.014  47.566  1.00  0.00     0.112 C 
ENDROOT
BRANCH   1   4
HETATM    4  C13 UNL     1      26.964   4.796  49.028  1.00  0.00     0.300 C 
HETATM    5  N4  UNL     1      26.688   3.500  49.511  1.00  0.00    -0.316 N 
HETATM    6  H12 UNL     1      27.541   2.902  49.440  1.00  0.00     0.170 HD
HETATM    7  O1  UNL     1      26.054   5.662  49.034  1.00  0.00    -0.258 OA
BRANCH   5   8
HETATM    8  C12 UNL     1      25.479   2.982  50.035  1.00  0.00     0.036 A 
HETATM    9  C11 UNL     1      24.330   3.262  49.328  1.00  0.00     0.032 A 
HETATM   10  C10 UNL     1      23.097   2.810  49.740  1.00  0.00     0.035 A 
HETATM   11  C9  UNL     1      22.953   2.055  50.883  1.00  0.00     0.072 A 
HETATM   12  N3  UNL     1      21.726   1.639  51.243  1.00  0.00    -0.241 NA
HETATM   13  C18 UNL     1      24.090   1.764  51.604  1.00  0.00     0.041 A 
HETATM   14  C8  UNL     1      21.664   0.900  52.379  1.00  0.00     0.235 A 
HETATM   15  N2  UNL     1      22.759   0.618  53.076  1.00  0.00    -0.224 NA
HETATM   16  C7  UNL     1      23.979   1.013  52.748  1.00  0.00     0.137 A 
HETATM   17  C17 UNL     1      25.307   2.232  51.162  1.00  0.00     0.047 A 
BRANCH  16  18
HETATM   18  N1  UNL     1      25.090   0.660  53.561  1.00  0.00    -0.371 N 
HETATM   19  H8  UNL     1      25.633   1.276  54.200  1.00  0.00     0.161 HD
BRANCH  18  20
HETATM   20  C6  UNL     1      25.569  -0.689  53.544  1.00  0.00     0.148 C 
BRANCH  20  21
HETATM   21  C5  UNL     1      26.759  -0.908  52.696  1.00  0.00    -0.007 C 
BRANCH  21  22
HETATM   22  C4  UNL     1      28.029  -1.044  53.061  1.00  0.00     0.005 C 
BRANCH  22  23
HETATM   23  C3  UNL     1      28.690  -0.118  53.919  1.00  0.00     0.050 C 
BRANCH  23  24
HETATM   24  C2  UNL     1      28.596   1.170  53.706  1.00  0.00    -0.155 C 
HETATM   25  C1  UNL     1      28.718   2.484  53.614  1.00  0.00     0.096 C 
ENDBRANCH  23  24
ENDBRANCH  22  23
ENDBRANCH  21  22
ENDBRANCH  20  21
ENDBRANCH  18  20
ENDBRANCH  16  18
ENDBRANCH   5   8
ENDBRANCH   1   4
TORSDOF 8
ENDMDL
MODEL 8
REMARK VINA RESULT:      -7.0      2.810      6.431
REMARK  8 active torsions:
REMARK  status: ('A' for Active; 'I' for Inactive)
REMARK    1  A    between atoms: C2_2  and  C3_3 
REMARK    2  A    between atoms: C3_3  and  C4_4 
REMARK    3  A    between atoms: C4_4  and  C5_5 
REMARK    4  A    between atoms: C5_5  and  C6_6 
REMARK    5  A    between atoms: C6_6  and  N1_7 
REMARK    6  A    between atoms: N1_7  and  C7_8 
REMARK    7  A    between atoms: C12_15  and  N4_16 
REMARK       I    between atoms: N4_16  and  C13_17 
REMARK    8  A    between atoms: C13_17  and  C14_19 
ROOT
HETATM    1  C14 UNL     1      27.723  -0.757  53.286  1.00  0.00    -0.006 C 
HETATM    2  C15 UNL     1      28.907  -0.654  53.485  1.00  0.00    -0.101 C 
HETATM    3  C16 UNL     1      30.346  -0.525  53.736  1.00  0.00     0.112 C 
ENDROOT
BRANCH   1   4
HETATM    4  C13 UNL     1      26.319  -0.900  53.035  1.00  0.00     0.300 C 
HETATM    5  N4  UNL     1      25.305  -0.122  53.631  1.00  0.00    -0.316 N 
HETATM    6  H12 UNL     1      25.726   0.576  54.284  1.00  0.00     0.170 HD
HETATM    7  O1  UNL     1      26.005  -1.798  52.215  1.00  0.00    -0.258 OA
BRANCH   5   8
HETATM    8  C12 UNL     1      23.903  -0.190  53.446  1.00  0.00     0.036 A 
HETATM    9  C11 UNL     1      23.169  -0.714  54.488  1.00  0.00     0.032 A 
HETATM   10  C10 UNL     1      21.799  -0.829  54.422  1.00  0.00     0.035 A 
HETATM   11  C9  UNL     1      21.095  -0.426  53.309  1.00  0.00     0.072 A 
HETATM   12  N3  UNL     1      19.757  -0.561  53.294  1.00  0.00    -0.241 NA
HETATM   13  C18 UNL     1      21.812   0.101  52.257  1.00  0.00     0.041 A 
HETATM   14  C8  UNL     1      19.135  -0.141  52.165  1.00  0.00     0.235 A 
HETATM   15  N2  UNL     1      19.823   0.367  51.149  1.00  0.00    -0.224 NA
HETATM   16  C7  UNL     1      21.139   0.512  51.133  1.00  0.00     0.137 A 
HETATM   17  C17 UNL     1      23.181   0.201  52.357  1.00  0.00     0.047 A 
BRANCH  16  18
HETATM   18  N1  UNL     1      21.785   1.067  49.995  1.00  0.00    -0.371 N 
HETATM   19  H8  UNL     1      22.120   0.568  49.147  1.00  0.00     0.161 HD
BRANCH  18  20
HETATM   20  C6  UNL     1      22.036   2.476  49.950  1.00  0.00     0.148 C 
BRANCH  20  21
HETATM   21  C5  UNL     1      23.382   2.845  49.464  1.00  0.00    -0.007 C 
BRANCH  21  22
HETATM   22  C4  UNL     1      24.343   3.510  50.096  1.00  0.00     0.005 C 
BRANCH  22  23
HETATM   23  C3  UNL     1      25.716   3.139  50.021  1.00  0.00     0.050 C 
BRANCH  23  24
HETATM   24  C2  UNL     1      26.601   3.960  49.518  1.00  0.00    -0.155 C 
HETATM   25  C1  UNL     1      27.425   4.697  48.790  1.00  0.00     0.096 C 
ENDBRANCH  23  24
ENDBRANCH  22  23
ENDBRANCH  21  22
ENDBRANCH  20  21
ENDBRANCH  18  20
ENDBRANCH  16  18
ENDBRANCH   5   8
ENDBRANCH   1   4
TORSDOF 8
ENDMDL
MODEL 9
REMARK VINA RESULT:      -7.0      2.984      3.426
REMARK  8 active torsions:
REMARK  status: ('A' for Active; 'I' for Inactive)
REMARK    1  A    between atoms: C2_2  and  C3_3 
REMARK    2  A    between atoms: C3_3  and  C4_4 
REMARK    3  A    between atoms: C4_4  and  C5_5 
REMARK    4  A    between atoms: C5_5  and  C6_6 
REMARK    5  A    between atoms: C6_6  and  N1_7 
REMARK    6  A    between atoms: N1_7  and  C7_8 
REMARK    7  A    between atoms: C12_15  and  N4_16 
REMARK       I    between atoms: N4_16  and  C13_17 
REMARK    8  A    between atoms: C13_17  and  C14_19 
ROOT
HETATM    1  C14 UNL     1      21.889   2.651  47.653  1.00  0.00    -0.006 C 
HETATM    2  C15 UNL     1      21.924   3.378  46.692  1.00  0.00    -0.101 C 
HETATM    3  C16 UNL     1      21.958   4.265  45.525  1.00  0.00     0.112 C 
ENDROOT
BRANCH   1   4
HETATM    4  C13 UNL     1      21.870   1.790  48.798  1.00  0.00     0.300 C 
HETATM    5  N4  UNL     1      22.220   2.175  50.108  1.00  0.00    -0.316 N 
HETATM    6  H12 UNL     1      22.494   3.182  50.125  1.00  0.00     0.170 HD
HETATM    7  O1  UNL     1      21.510   0.606  48.579  1.00  0.00    -0.258 OA
BRANCH   5   8
HETATM    8  C12 UNL     1      22.232   1.400  51.293  1.00  0.00     0.036 A 
HETATM    9  C11 UNL     1      21.006   1.099  51.846  1.00  0.00     0.032 A 
HETATM   10  C10 UNL     1      20.895   0.351  52.996  1.00  0.00     0.035 A 
HETATM   11  C9  UNL     1      22.006  -0.132  53.651  1.00  0.00     0.072 A 
HETATM   12  N3  UNL     1      21.843  -0.856  54.773  1.00  0.00    -0.241 NA
HETATM   13  C18 UNL     1      23.240   0.159  53.114  1.00  0.00     0.041 A 
HETATM   14  C8  UNL     1      22.982  -1.297  55.360  1.00  0.00     0.235 A 
HETATM   15  N2  UNL     1      24.175  -1.018  54.845  1.00  0.00    -0.224 NA
HETATM   16  C7  UNL     1      24.368  -0.308  53.744  1.00  0.00     0.137 A 
HETATM   17  C17 UNL     1      23.315   0.909  51.962  1.00  0.00     0.047 A 
BRANCH  16  18
HETATM   18  N1  UNL     1      25.685  -0.063  53.271  1.00  0.00    -0.371 N 
HETATM   19  H8  UNL     1      26.157  -0.494  52.450  1.00  0.00     0.161 HD
BRANCH  18  20
HETATM   20  C6  UNL     1      26.515   0.875  53.963  1.00  0.00     0.148 C 
BRANCH  20  21
HETATM   21  C5  UNL     1      27.562   0.264  54.807  1.00  0.00    -0.007 C 
BRANCH  21  22
HETATM   22  C4  UNL     1      28.883   0.340  54.682  1.00  0.00     0.005 C 
BRANCH  22  23
HETATM   23  C3  UNL     1      29.610  -0.404  53.708  1.00  0.00     0.050 C 
BRANCH  23  24
HETATM   24  C2  UNL     1      29.177  -1.570  53.303  1.00  0.00    -0.155 C 
HETATM   25  C1  UNL     1      28.519  -2.671  52.976  1.00  0.00     0.096 C 
ENDBRANCH  23  24
ENDBRANCH  22  23
ENDBRANCH  21  22
ENDBRANCH  20  21
ENDBRANCH  18  20
ENDBRANCH  16  18
ENDBRANCH   5   8
ENDBRANCH   1   4
TORSDOF 8
ENDMDL
