MODEL 1
REMARK VINA RESULT:      -9.7      0.000      0.000
REMARK  0 active torsions:
REMARK  status: ('A' for Active; 'I' for Inactive)
ROOT
HETATM    1  C1  UNL     1      19.528   1.175  49.689  1.00  0.00     0.000 C 
HETATM    2  O1  UNL     1      20.244   1.522  50.900  1.00  0.00     0.000 OA
HETATM    3  C2  UNL     1      20.920   0.538  51.508  1.00  0.00     0.006 A 
HETATM    4  C3  UNL     1      21.050   1.859  51.852  1.00  0.00     0.010 A 
HETATM    5  C4  UNL     1      20.729   3.292  51.698  1.00  0.00     0.045 C 
HETATM    6  C5  UNL     1      21.920   4.173  51.534  1.00  0.00    -0.049 A 
HETATM    7  C6  UNL     1      21.508   5.468  51.402  1.00  0.00     0.007 A 
HETATM    8  C7  UNL     1      22.345   6.546  51.258  1.00  0.00     0.001 A 
HETATM    9  C8  UNL     1      23.726   6.286  51.249  1.00  0.00     0.001 A 
HETATM   10  C9  UNL     1      24.116   4.941  51.386  1.00  0.00     0.010 A 
HETATM   11  C10 UNL     1      23.277   3.853  51.530  1.00  0.00    -0.028 A 
HETATM   12  C11 UNL     1      24.043   2.595  51.631  1.00  0.00     0.129 C 
HETATM   13  C12 UNL     1      25.303   2.630  50.771  1.00  0.00     0.039 C 
HETATM   14  N1  UNL     1      24.470   2.270  52.974  1.00  0.00    -0.319 N 
HETATM   15  N2  UNL     1      25.179   1.229  53.650  1.00  0.00    -0.245 N 
HETATM   16  C13 UNL     1      24.853   0.026  54.163  1.00  0.00     0.040 A 
HETATM   17  C14 UNL     1      26.047  -0.468  54.651  1.00  0.00     0.044 A 
HETATM   18  C15 UNL     1      27.113   0.372  54.468  1.00  0.00     0.031 A 
HETATM   19  C16 UNL     1      28.443   0.273  54.804  1.00  0.00     0.133 A 
HETATM   20  N3  UNL     1      29.264   1.305  54.492  1.00  0.00    -0.253 NA
HETATM   21  C17 UNL     1      28.698   2.355  53.870  1.00  0.00     0.235 A 
HETATM   22  N4  UNL     1      27.402   2.462  53.537  1.00  0.00    -0.222 NA
HETATM   23  C18 UNL     1      26.521   1.450  53.825  1.00  0.00     0.161 A 
HETATM   24  C19 UNL     1      23.580  -0.683  54.261  1.00  0.00     0.086 C 
HETATM   25  C20 UNL     1      22.608  -0.348  53.242  1.00  0.00    -0.024 C 
HETATM   26  C21 UNL     1      21.785  -0.146  52.368  1.00  0.00    -0.018 C 
HETATM   27  H15 UNL     1      24.236   2.975  53.709  1.00  0.00     0.181 HD
ENDROOT
TORSDOF 0
ENDMDL
MODEL 2
REMARK VINA RESULT:      -9.5      2.357      2.908
REMARK  0 active torsions:
REMARK  status: ('A' for Active; 'I' for Inactive)
ROOT
HETATM    1  C1  UNL     1      21.359   3.193  46.791  1.00  0.00     0.000 C 
HETATM    2  O1  UNL     1      21.858   3.583  48.094  1.00  0.00     0.000 OA
HETATM    3  C2  UNL     1      21.860   2.643  49.049  1.00  0.00     0.006 A 
HETATM    4  C3  UNL     1      22.489   3.854  49.189  1.00  0.00     0.010 A 
HETATM    5  C4  UNL     1      22.892   5.187  48.697  1.00  0.00     0.045 C 
HETATM    6  C5  UNL     1      24.355   5.459  48.792  1.00  0.00    -0.049 A 
HETATM    7  C6  UNL     1      24.613   6.711  48.314  1.00  0.00     0.007 A 
HETATM    8  C7  UNL     1      25.854   7.296  48.277  1.00  0.00     0.001 A 
HETATM    9  C8  UNL     1      26.931   6.541  48.772  1.00  0.00     0.001 A 
HETATM   10  C9  UNL     1      26.630   5.254  49.256  1.00  0.00     0.010 A 
HETATM   11  C10 UNL     1      25.383   4.661  49.294  1.00  0.00    -0.028 A 
HETATM   12  C11 UNL     1      25.454   3.297  49.855  1.00  0.00     0.129 C 
HETATM   13  C12 UNL     1      26.754   2.596  49.471  1.00  0.00     0.039 C 
HETATM   14  N1  UNL     1      25.371   3.248  51.298  1.00  0.00    -0.319 N 
HETATM   15  N2  UNL     1      25.360   2.266  52.337  1.00  0.00    -0.245 N 
HETATM   16  C13 UNL     1      24.419   1.486  52.907  1.00  0.00     0.040 A 
HETATM   17  C14 UNL     1      25.116   0.744  53.841  1.00  0.00     0.044 A 
HETATM   18  C15 UNL     1      26.458   1.022  53.884  1.00  0.00     0.031 A 
HETATM   19  C16 UNL     1      27.484   0.529  54.654  1.00  0.00     0.133 A 
HETATM   20  N3  UNL     1      28.729   1.030  54.464  1.00  0.00    -0.253 NA
HETATM   21  C17 UNL     1      28.855   1.982  53.522  1.00  0.00     0.235 A 
HETATM   22  N4  UNL     1      27.861   2.469  52.764  1.00  0.00    -0.222 NA
HETATM   23  C18 UNL     1      26.578   2.002  52.908  1.00  0.00     0.161 A 
HETATM   24  C19 UNL     1      22.979   1.378  52.695  1.00  0.00     0.086 C 
HETATM   25  C20 UNL     1      22.523   1.738  51.369  1.00  0.00    -0.024 C 
HETATM   26  C21 UNL     1      22.102   1.969  50.250  1.00  0.00    -0.018 C 
HETATM   27  H15 UNL     1      25.319   4.172  51.783  1.00  0.00     0.181 HD
ENDROOT
TORSDOF 0
ENDMDL
MODEL 3
REMARK VINA RESULT:      -9.4      2.917      6.781
REMARK  0 active torsions:
REMARK  status: ('A' for Active; 'I' for Inactive)
ROOT
HETATM    1  C1  UNL     1      26.774  -2.018  52.368  1.00  0.00     0.000 C 
HETATM    2  O1  UNL     1      26.203  -0.714  52.637  1.00  0.00     0.000 OA
HETATM    3  C2  UNL     1      26.555   0.283  51.814  1.00  0.00     0.006 A 
HETATM    4  C3  UNL     1      25.546   0.394  52.736  1.00  0.00     0.010 A 
HETATM    5  C4  UNL     1      24.690  -0.141  53.814  1.00  0.00     0.045 C 
HETATM    6  C5  UNL     1      23.227   0.007  53.565  1.00  0.00    -0.049 A 
HETATM    7  C6  UNL     1      22.535  -0.517  54.618  1.00  0.00     0.007 A 
HETATM    8  C7  UNL     1      21.168  -0.526  54.732  1.00  0.00     0.001 A 
HETATM    9  C8  UNL     1      20.435   0.051  53.680  1.00  0.00     0.001 A 
HETATM   10  C9  UNL     1      21.180   0.581  52.610  1.00  0.00     0.010 A 
HETATM   11  C10 UNL     1      22.556   0.591  52.491  1.00  0.00    -0.028 A 
HETATM   12  C11 UNL     1      22.980   1.218  51.224  1.00  0.00     0.129 C 
HETATM   13  C12 UNL     1      21.999   0.926  50.093  1.00  0.00     0.039 C 
HETATM   14  N1  UNL     1      23.113   2.656  51.292  1.00  0.00    -0.319 N 
HETATM   15  N2  UNL     1      23.493   3.739  50.439  1.00  0.00    -0.245 N 
HETATM   16  C13 UNL     1      24.661   4.303  50.071  1.00  0.00     0.040 A 
HETATM   17  C14 UNL     1      24.292   5.300  49.190  1.00  0.00     0.044 A 
HETATM   18  C15 UNL     1      22.940   5.390  48.986  1.00  0.00     0.031 A 
HETATM   19  C16 UNL     1      22.171   6.228  48.214  1.00  0.00     0.133 A 
HETATM   20  N3  UNL     1      20.825   6.071  48.238  1.00  0.00    -0.253 NA
HETATM   21  C17 UNL     1      20.350   5.091  49.028  1.00  0.00     0.235 A 
HETATM   22  N4  UNL     1      21.091   4.267  49.785  1.00  0.00    -0.222 NA
HETATM   23  C18 UNL     1      22.459   4.376  49.803  1.00  0.00     0.161 A 
HETATM   24  C19 UNL     1      26.042   4.031  50.458  1.00  0.00     0.086 C 
HETATM   25  C20 UNL     1      26.310   2.671  50.875  1.00  0.00    -0.024 C 
HETATM   26  C21 UNL     1      26.594   1.524  51.171  1.00  0.00    -0.018 C 
HETATM   27  H15 UNL     1      22.850   3.095  52.204  1.00  0.00     0.181 HD
ENDROOT
TORSDOF 0
ENDMDL
MODEL 4
REMARK VINA RESULT:      -9.3      2.512      5.833
REMARK  0 active torsions:
REMARK  status: ('A' for Active; 'I' for Inactive)
ROOT
HETATM    1  C1  UNL     1      21.127  -1.216  54.587  1.00  0.00     0.000 C 
HETATM    2  O1  UNL     1      21.981  -0.878  53.466  1.00  0.00     0.000 OA
HETATM    3  C2  UNL     1      21.402  -0.261  52.428  1.00  0.00     0.006 A 
HETATM    4  C3  UNL     1      22.760  -0.388  52.561  1.00  0.00     0.010 A 
HETATM    5  C4  UNL     1      23.972  -0.836  53.277  1.00  0.00     0.045 C 
HETATM    6  C5  UNL     1      24.979   0.239  53.510  1.00  0.00    -0.049 A 
HETATM    7  C6  UNL     1      26.051  -0.283  54.174  1.00  0.00     0.007 A 
HETATM    8  C7  UNL     1      27.174   0.422  54.528  1.00  0.00     0.001 A 
HETATM    9  C8  UNL     1      27.212   1.782  54.175  1.00  0.00     0.001 A 
HETATM   10  C9  UNL     1      26.090   2.288  53.492  1.00  0.00     0.010 A 
HETATM   11  C10 UNL     1      24.957   1.582  53.135  1.00  0.00    -0.028 A 
HETATM   12  C11 UNL     1      23.982   2.448  52.444  1.00  0.00     0.129 C 
HETATM   13  C12 UNL     1      23.997   3.870  52.996  1.00  0.00     0.039 C 
HETATM   14  N1  UNL     1      24.197   2.558  51.018  1.00  0.00    -0.319 N 
HETATM   15  N2  UNL     1      23.594   3.196  49.889  1.00  0.00    -0.245 N 
HETATM   16  C13 UNL     1      22.577   2.903  49.054  1.00  0.00     0.040 A 
HETATM   17  C14 UNL     1      22.519   3.986  48.199  1.00  0.00     0.044 A 
HETATM   18  C15 UNL     1      23.456   4.952  48.459  1.00  0.00     0.031 A 
HETATM   19  C16 UNL     1      23.743   6.155  47.859  1.00  0.00     0.133 A 
HETATM   20  N3  UNL     1      24.766   6.893  48.353  1.00  0.00    -0.253 NA
HETATM   21  C17 UNL     1      25.424   6.378  49.406  1.00  0.00     0.235 A 
HETATM   22  N4  UNL     1      25.152   5.205  50.001  1.00  0.00    -0.222 NA
HETATM   23  C18 UNL     1      24.128   4.412  49.548  1.00  0.00     0.161 A 
HETATM   24  C19 UNL     1      21.693   1.745  48.958  1.00  0.00     0.086 C 
HETATM   25  C20 UNL     1      21.479   1.029  50.198  1.00  0.00    -0.024 C 
HETATM   26  C21 UNL     1      21.219   0.436  51.229  1.00  0.00    -0.018 C 
HETATM   27  H15 UNL     1      25.036   2.060  50.644  1.00  0.00     0.181 HD
ENDROOT
TORSDOF 0
ENDMDL
MODEL 5
REMARK VINA RESULT:      -8.9      1.480      2.107
REMARK  0 active torsions:
REMARK  status: ('A' for Active; 'I' for Inactive)
ROOT
HETATM    1  C1  UNL     1      19.888   3.232  47.116  1.00  0.00     0.000 C 
HETATM    2  O1  UNL     1      20.180   3.239  48.535  1.00  0.00     0.000 OA
HETATM    3  C2  UNL     1      20.454   2.057  49.103  1.00  0.00     0.006 A 
HETATM    4  C3  UNL     1      20.643   3.257  49.741  1.00  0.00     0.010 A 
HETATM    5  C4  UNL     1      20.604   4.732  49.798  1.00  0.00     0.045 C 
HETATM    6  C5  UNL     1      21.890   5.364  50.207  1.00  0.00    -0.049 A 
HETATM    7  C6  UNL     1      21.740   6.721  50.227  1.00  0.00     0.007 A 
HETATM    8  C7  UNL     1      22.719   7.614  50.585  1.00  0.00     0.001 A 
HETATM    9  C8  UNL     1      23.965   7.080  50.957  1.00  0.00     0.001 A 
HETATM   10  C9  UNL     1      24.086   5.678  50.924  1.00  0.00     0.010 A 
HETATM   11  C10 UNL     1      23.103   4.776  50.564  1.00  0.00    -0.028 A 
HETATM   12  C11 UNL     1      23.599   3.387  50.634  1.00  0.00     0.129 C 
HETATM   13  C12 UNL     1      25.070   3.292  50.243  1.00  0.00     0.039 C 
HETATM   14  N1  UNL     1      23.481   2.784  51.943  1.00  0.00    -0.319 N 
HETATM   15  N2  UNL     1      23.753   1.530  52.574  1.00  0.00    -0.245 N 
HETATM   16  C13 UNL     1      23.101   0.357  52.692  1.00  0.00     0.040 A 
HETATM   17  C14 UNL     1      23.967  -0.439  53.416  1.00  0.00     0.044 A 
HETATM   18  C15 UNL     1      25.139   0.182  53.760  1.00  0.00     0.031 A 
HETATM   19  C16 UNL     1      26.240  -0.238  54.468  1.00  0.00     0.133 A 
HETATM   20  N3  UNL     1      27.256   0.638  54.656  1.00  0.00    -0.253 NA
HETATM   21  C17 UNL     1      27.099   1.864  54.123  1.00  0.00     0.235 A 
HETATM   22  N4  UNL     1      26.029   2.283  53.429  1.00  0.00    -0.222 NA
HETATM   23  C18 UNL     1      24.967   1.443  53.205  1.00  0.00     0.161 A 
HETATM   24  C19 UNL     1      21.786  -0.082  52.233  1.00  0.00     0.086 C 
HETATM   25  C20 UNL     1      21.288   0.594  51.054  1.00  0.00    -0.024 C 
HETATM   26  C21 UNL     1      20.859   1.089  50.028  1.00  0.00    -0.018 C 
HETATM   27  H15 UNL     1      23.108   3.404  52.698  1.00  0.00     0.181 HD
ENDROOT
TORSDOF 0
ENDMDL
MODEL 6
REMARK VINA RESULT:      -8.6      2.721      5.008
REMARK  0 active torsions:
REMARK  status: ('A' for Active; 'I' for Inactive)
ROOT
HETATM    1  C1  UNL     1      24.056   6.876  48.661  1.00  0.00     0.000 C 
HETATM    2  O1  UNL     1      23.977   5.431  48.732  1.00  0.00     0.000 OA
HETATM    3  C2  UNL     1      24.771   4.823  49.624  1.00  0.00     0.006 A 
HETATM    4  C3  UNL     1      23.767   4.175  48.951  1.00  0.00     0.010 A 
HETATM    5  C4  UNL     1      22.647   4.133  47.990  1.00  0.00     0.045 C 
HETATM    6  C5  UNL     1      21.385   3.564  48.543  1.00  0.00    -0.049 A 
HETATM    7  C6  UNL     1      20.423   3.573  47.574  1.00  0.00     0.007 A 
HETATM    8  C7  UNL     1      19.145   3.098  47.733  1.00  0.00     0.001 A 
HETATM    9  C8  UNL     1      18.814   2.562  48.990  1.00  0.00     0.001 A 
HETATM   10  C9  UNL     1      19.829   2.570  49.966  1.00  0.00     0.010 A 
HETATM   11  C10 UNL     1      21.116   3.049  49.811  1.00  0.00    -0.028 A 
HETATM   12  C11 UNL     1      21.895   2.905  51.056  1.00  0.00     0.129 C 
HETATM   13  C12 UNL     1      21.024   3.100  52.293  1.00  0.00     0.039 C 
HETATM   14  N1  UNL     1      22.538   1.618  51.204  1.00  0.00    -0.319 N 
HETATM   15  N2  UNL     1      23.394   0.949  52.133  1.00  0.00    -0.245 N 
HETATM   16  C13 UNL     1      24.723   0.908  52.353  1.00  0.00     0.040 A 
HETATM   17  C14 UNL     1      24.860   0.071  53.443  1.00  0.00     0.044 A 
HETATM   18  C15 UNL     1      23.673  -0.418  53.923  1.00  0.00     0.031 A 
HETATM   19  C16 UNL     1      23.369  -1.266  54.960  1.00  0.00     0.133 A 
HETATM   20  N3  UNL     1      22.069  -1.579  55.176  1.00  0.00    -0.253 NA
HETATM   21  C17 UNL     1      21.171  -1.021  54.343  1.00  0.00     0.235 A 
HETATM   22  N4  UNL     1      21.457  -0.191  53.328  1.00  0.00    -0.222 NA
HETATM   23  C18 UNL     1      22.755   0.164  53.059  1.00  0.00     0.161 A 
HETATM   24  C19 UNL     1      25.848   1.531  51.661  1.00  0.00     0.086 C 
HETATM   25  C20 UNL     1      25.541   2.770  50.978  1.00  0.00    -0.024 C 
HETATM   26  C21 UNL     1      25.344   3.847  50.445  1.00  0.00    -0.018 C 
HETATM   27  H15 UNL     1      22.345   0.922  50.448  1.00  0.00     0.181 HD
ENDROOT
TORSDOF 0
ENDMDL
MODEL 7
REMARK VINA RESULT:      -8.5      2.127      4.411
REMARK  0 active torsions:
REMARK  status: ('A' for Active; 'I' for Inactive)
ROOT
HETATM    1  C1  UNL     1      21.412   6.534  48.388  1.00  0.00     0.000 C 
HETATM    2  O1  UNL     1      22.032   5.226  48.445  1.00  0.00     0.000 OA
HETATM    3  C2  UNL     1      23.315   5.179  48.826  1.00  0.00     0.006 A 
HETATM    4  C3  UNL     1      22.530   4.062  48.702  1.00  0.00     0.010 A 
HETATM    5  C4  UNL     1      21.254   3.383  48.400  1.00  0.00     0.045 C 
HETATM    6  C5  UNL     1      20.776   2.469  49.476  1.00  0.00    -0.049 A 
HETATM    7  C6  UNL     1      19.597   1.898  49.093  1.00  0.00     0.007 A 
HETATM    8  C7  UNL     1      18.890   0.985  49.834  1.00  0.00     0.001 A 
HETATM    9  C8  UNL     1      19.429   0.617  51.079  1.00  0.00     0.001 A 
HETATM   10  C9  UNL     1      20.645   1.226  51.444  1.00  0.00     0.010 A 
HETATM   11  C10 UNL     1      21.359   2.146  50.701  1.00  0.00    -0.028 A 
HETATM   12  C11 UNL     1      22.580   2.577  51.411  1.00  0.00     0.129 C 
HETATM   13  C12 UNL     1      22.364   2.637  52.920  1.00  0.00     0.039 C 
HETATM   14  N1  UNL     1      23.723   1.718  51.194  1.00  0.00    -0.319 N 
HETATM   15  N2  UNL     1      25.099   1.649  51.576  1.00  0.00    -0.245 N 
HETATM   16  C13 UNL     1      26.246   2.196  51.125  1.00  0.00     0.040 A 
HETATM   17  C14 UNL     1      27.211   1.716  51.990  1.00  0.00     0.044 A 
HETATM   18  C15 UNL     1      26.721   0.891  52.968  1.00  0.00     0.031 A 
HETATM   19  C16 UNL     1      27.326   0.211  53.998  1.00  0.00     0.133 A 
HETATM   20  N3  UNL     1      26.553  -0.554  54.806  1.00  0.00    -0.253 NA
HETATM   21  C17 UNL     1      25.237  -0.584  54.525  1.00  0.00     0.235 A 
HETATM   22  N4  UNL     1      24.636   0.077  53.523  1.00  0.00    -0.222 NA
HETATM   23  C18 UNL     1      25.365   0.869  52.671  1.00  0.00     0.161 A 
HETATM   24  C19 UNL     1      26.532   3.075  49.996  1.00  0.00     0.086 C 
HETATM   25  C20 UNL     1      25.435   3.923  49.581  1.00  0.00    -0.024 C 
HETATM   26  C21 UNL     1      24.562   4.701  49.240  1.00  0.00    -0.018 C 
HETATM   27  H15 UNL     1      23.551   0.871  50.605  1.00  0.00     0.181 HD
ENDROOT
TORSDOF 0
ENDMDL
MODEL 8
REMARK VINA RESULT:      -8.4      3.688      7.547
REMARK  0 active torsions:
REMARK  status: ('A' for Active; 'I' for Inactive)
ROOT
HETATM    1  C1  UNL     1      26.691   0.083  52.189  1.00  0.00     0.000 C 
HETATM    2  O1  UNL     1      25.719   1.156  52.125  1.00  0.00     0.000 OA
HETATM    3  C2  UNL     1      25.882   2.064  51.153  1.00  0.00     0.006 A 
HETATM    4  C3  UNL     1      24.752   1.990  51.926  1.00  0.00     0.010 A 
HETATM    5  C4  UNL     1      23.935   1.389  53.000  1.00  0.00     0.045 C 
HETATM    6  C5  UNL     1      22.556   1.010  52.582  1.00  0.00    -0.049 A 
HETATM    7  C6  UNL     1      21.894   0.469  53.647  1.00  0.00     0.007 A 
HETATM    8  C7  UNL     1      20.593   0.034  53.623  1.00  0.00     0.001 A 
HETATM    9  C8  UNL     1      19.899   0.161  52.406  1.00  0.00     0.001 A 
HETATM   10  C9  UNL     1      20.611   0.721  51.329  1.00  0.00     0.010 A 
HETATM   11  C10 UNL     1      21.921   1.159  51.349  1.00  0.00    -0.028 A 
HETATM   12  C11 UNL     1      22.335   1.672  50.028  1.00  0.00     0.129 C 
HETATM   13  C12 UNL     1      21.681   0.895  48.890  1.00  0.00     0.039 C 
HETATM   14  N1  UNL     1      22.016   3.066  49.810  1.00  0.00    -0.319 N 
HETATM   15  N2  UNL     1      22.185   4.058  48.795  1.00  0.00    -0.245 N 
HETATM   16  C13 UNL     1      23.172   4.902  48.436  1.00  0.00     0.040 A 
HETATM   17  C14 UNL     1      22.666   5.566  47.336  1.00  0.00     0.044 A 
HETATM   18  C15 UNL     1      21.401   5.176  46.984  1.00  0.00     0.031 A 
HETATM   19  C16 UNL     1      20.550   5.579  45.982  1.00  0.00     0.133 A 
HETATM   20  N3  UNL     1      19.328   4.998  45.904  1.00  0.00    -0.253 NA
HETATM   21  C17 UNL     1      19.049   4.061  46.828  1.00  0.00     0.235 A 
HETATM   22  N4  UNL     1      19.872   3.660  47.809  1.00  0.00    -0.222 NA
HETATM   23  C18 UNL     1      21.123   4.209  47.940  1.00  0.00     0.161 A 
HETATM   24  C19 UNL     1      24.491   5.163  49.007  1.00  0.00     0.086 C 
HETATM   25  C20 UNL     1      25.084   4.053  49.721  1.00  0.00    -0.024 C 
HETATM   26  C21 UNL     1      25.649   3.126  50.274  1.00  0.00    -0.018 C 
HETATM   27  H15 UNL     1      21.491   3.539  50.581  1.00  0.00     0.181 HD
ENDROOT
TORSDOF 0
ENDMDL
MODEL 9
REMARK VINA RESULT:      -8.2      2.682      5.081
REMARK  0 active torsions:
REMARK  status: ('A' for Active; 'I' for Inactive)
ROOT
HETATM    1  C1  UNL     1      23.948   8.881  48.533  1.00  0.00     0.000 C 
HETATM    2  O1  UNL     1      23.885   7.440  48.394  1.00  0.00     0.000 OA
HETATM    3  C2  UNL     1      24.962   6.746  48.786  1.00  0.00     0.006 A 
HETATM    4  C3  UNL     1      23.764   6.156  48.473  1.00  0.00     0.010 A 
HETATM    5  C4  UNL     1      22.352   6.203  48.044  1.00  0.00     0.045 C 
HETATM    6  C5  UNL     1      21.411   5.490  48.954  1.00  0.00    -0.049 A 
HETATM    7  C6  UNL     1      20.141   5.596  48.464  1.00  0.00     0.007 A 
HETATM    8  C7  UNL     1      19.029   5.034  49.039  1.00  0.00     0.001 A 
HETATM    9  C8  UNL     1      19.223   4.296  50.219  1.00  0.00     0.001 A 
HETATM   10  C9  UNL     1      20.544   4.208  50.698  1.00  0.00     0.010 A 
HETATM   11  C10 UNL     1      21.666   4.772  50.123  1.00  0.00    -0.028 A 
HETATM   12  C11 UNL     1      22.878   4.481  50.914  1.00  0.00     0.129 C 
HETATM   13  C12 UNL     1      22.580   4.437  52.409  1.00  0.00     0.039 C 
HETATM   14  N1  UNL     1      23.510   3.223  50.584  1.00  0.00    -0.319 N 
HETATM   15  N2  UNL     1      24.657   2.465  50.974  1.00  0.00    -0.245 N 
HETATM   16  C13 UNL     1      25.963   2.462  50.636  1.00  0.00     0.040 A 
HETATM   17  C14 UNL     1      26.515   1.477  51.431  1.00  0.00     0.044 A 
HETATM   18  C15 UNL     1      25.614   0.858  52.258  1.00  0.00     0.031 A 
HETATM   19  C16 UNL     1      25.741  -0.155  53.178  1.00  0.00     0.133 A 
HETATM   20  N3  UNL     1      24.632  -0.565  53.841  1.00  0.00    -0.253 NA
HETATM   21  C17 UNL     1      23.483   0.065  53.536  1.00  0.00     0.235 A 
HETATM   22  N4  UNL     1      23.348   1.055  52.639  1.00  0.00    -0.222 NA
HETATM   23  C18 UNL     1      24.434   1.515  51.937  1.00  0.00     0.161 A 
HETATM   24  C19 UNL     1      26.723   3.243  49.665  1.00  0.00     0.086 C 
HETATM   25  C20 UNL     1      26.184   4.554  49.370  1.00  0.00    -0.024 C 
HETATM   26  C21 UNL     1      25.804   5.687  49.141  1.00  0.00    -0.018 C 
HETATM   27  H15 UNL     1      23.020   2.641  49.866  1.00  0.00     0.181 HD
ENDROOT
TORSDOF 0
ENDMDL
