MODEL 1
REMARK VINA RESULT:      -8.6      0.000      0.000
REMARK  5 active torsions:
REMARK  status: ('A' for Active; 'I' for Inactive)
REMARK    1  A    between atoms: O1_2  and  C2_3 
REMARK    2  A    between atoms: C3_4  and  C4_5 
REMARK    3  A    between atoms: C10_14  and  N4_15 
REMARK    4  A    between atoms: N4_15  and  C11_16 
REMARK    5  A    between atoms: C11_16  and  C13_18 
ROOT
HETATM    1  C4  UNL     1      27.902   1.130  53.500  1.00  0.00     0.005 C 
HETATM    2  C5  UNL     1      26.675   1.302  53.952  1.00  0.00    -0.074 C 
HETATM    3  C6  UNL     1      26.243   0.408  55.030  1.00  0.00     0.054 C 
HETATM    4  C7  UNL     1      25.418  -0.740  54.621  1.00  0.00     0.125 C 
HETATM    5  N1  UNL     1      24.575  -0.555  53.487  1.00  0.00    -0.374 N 
HETATM    6  C8  UNL     1      24.010   0.619  52.912  1.00  0.00     0.135 A 
HETATM    7  N2  UNL     1      22.766   0.403  52.428  1.00  0.00    -0.224 NA
HETATM    8  C9  UNL     1      22.083   1.406  51.855  1.00  0.00     0.237 A 
HETATM    9  N3  UNL     1      22.629   2.629  51.757  1.00  0.00    -0.224 NA
HETATM   10  C10 UNL     1      23.870   2.868  52.233  1.00  0.00     0.135 A 
HETATM   11  C19 UNL     1      24.633   1.864  52.841  1.00  0.00     0.037 A 
HETATM   12  C20 UNL     1      25.948   2.398  53.265  1.00  0.00     0.080 C 
HETATM   13  H11 UNL     1      24.306  -1.443  52.960  1.00  0.00     0.161 HD
ENDROOT
BRANCH  10  14
HETATM   14  N4  UNL     1      24.392   4.196  52.098  1.00  0.00    -0.366 N 
HETATM   15  H13 UNL     1      24.962   4.647  52.844  1.00  0.00     0.161 HD
BRANCH  14  16
HETATM   16  C11 UNL     1      24.152   4.985  50.905  1.00  0.00     0.112 C 
HETATM   17  C12 UNL     1      23.479   6.318  51.232  1.00  0.00     0.037 C 
BRANCH  16  18
HETATM   18  C13 UNL     1      25.358   5.162  50.064  1.00  0.00    -0.036 A 
HETATM   19  C14 UNL     1      25.721   6.415  49.554  1.00  0.00     0.009 A 
HETATM   20  C15 UNL     1      26.854   6.602  48.759  1.00  0.00     0.001 A 
HETATM   21  C16 UNL     1      27.613   5.480  48.495  1.00  0.00     0.000 A 
HETATM   22  C17 UNL     1      27.309   4.222  48.968  1.00  0.00     0.001 A 
HETATM   23  C18 UNL     1      26.183   4.083  49.747  1.00  0.00     0.009 A 
ENDBRANCH  16  18
ENDBRANCH  14  16
ENDBRANCH  10  14
BRANCH   1  24
HETATM   24  C3  UNL     1      29.161   0.440  53.529  1.00  0.00     0.024 C 
HETATM   25  C2  UNL     1      29.864  -0.672  53.605  1.00  0.00     0.134 C 
BRANCH  25  26
HETATM   26  O1  UNL     1      28.791  -1.548  53.699  1.00  0.00    -0.368 OA
HETATM   27  C1  UNL     1      28.694  -2.794  53.078  1.00  0.00     0.208 C 
ENDBRANCH  25  26
ENDBRANCH   1  24
TORSDOF 5
ENDMDL
MODEL 2
REMARK VINA RESULT:      -8.3      1.376      2.029
REMARK  5 active torsions:
REMARK  status: ('A' for Active; 'I' for Inactive)
REMARK    1  A    between atoms: O1_2  and  C2_3 
REMARK    2  A    between atoms: C3_4  and  C4_5 
REMARK    3  A    between atoms: C10_14  and  N4_15 
REMARK    4  A    between atoms: N4_15  and  C11_16 
REMARK    5  A    between atoms: C11_16  and  C13_18 
ROOT
HETATM    1  C4  UNL     1      26.417  -1.061  52.552  1.00  0.00     0.005 C 
HETATM    2  C5  UNL     1      25.647  -0.195  53.181  1.00  0.00    -0.074 C 
HETATM    3  C6  UNL     1      25.630  -0.276  54.645  1.00  0.00     0.054 C 
HETATM    4  C7  UNL     1      24.488  -0.992  55.235  1.00  0.00     0.125 C 
HETATM    5  N1  UNL     1      23.254  -0.934  54.524  1.00  0.00    -0.374 N 
HETATM    6  C8  UNL     1      22.743   0.018  53.596  1.00  0.00     0.135 A 
HETATM    7  N2  UNL     1      21.411   0.200  53.734  1.00  0.00    -0.224 NA
HETATM    8  C9  UNL     1      20.764   1.068  52.941  1.00  0.00     0.237 A 
HETATM    9  N3  UNL     1      21.435   1.761  52.006  1.00  0.00    -0.224 NA
HETATM   10  C10 UNL     1      22.766   1.596  51.851  1.00  0.00     0.135 A 
HETATM   11  C19 UNL     1      23.496   0.705  52.646  1.00  0.00     0.037 A 
HETATM   12  C20 UNL     1      24.927   0.721  52.262  1.00  0.00     0.080 C 
HETATM   13  H11 UNL     1      22.578  -1.738  54.706  1.00  0.00     0.161 HD
ENDROOT
BRANCH  10  14
HETATM   14  N4  UNL     1      23.420   2.368  50.836  1.00  0.00    -0.366 N 
HETATM   15  H13 UNL     1      23.808   1.934  49.972  1.00  0.00     0.161 HD
BRANCH  14  16
HETATM   16  C11 UNL     1      23.577   3.804  50.962  1.00  0.00     0.112 C 
HETATM   17  C12 UNL     1      23.605   4.246  52.425  1.00  0.00     0.037 C 
BRANCH  16  18
HETATM   18  C13 UNL     1      24.726   4.340  50.197  1.00  0.00    -0.036 A 
HETATM   19  C14 UNL     1      25.863   3.564  49.938  1.00  0.00     0.009 A 
HETATM   20  C15 UNL     1      26.957   4.051  49.218  1.00  0.00     0.001 A 
HETATM   21  C16 UNL     1      26.865   5.351  48.765  1.00  0.00     0.000 A 
HETATM   22  C17 UNL     1      25.775   6.164  48.987  1.00  0.00     0.001 A 
HETATM   23  C18 UNL     1      24.719   5.643  49.701  1.00  0.00     0.009 A 
ENDBRANCH  16  18
ENDBRANCH  14  16
ENDBRANCH  10  14
BRANCH   1  24
HETATM   24  C3  UNL     1      27.343  -2.158  52.573  1.00  0.00     0.024 C 
HETATM   25  C2  UNL     1      28.462  -2.713  52.995  1.00  0.00     0.134 C 
BRANCH  25  26
HETATM   26  O1  UNL     1      28.880  -1.665  53.803  1.00  0.00    -0.368 OA
HETATM   27  C1  UNL     1      29.968  -0.826  53.559  1.00  0.00     0.208 C 
ENDBRANCH  25  26
ENDBRANCH   1  24
TORSDOF 5
ENDMDL
MODEL 3
REMARK VINA RESULT:      -8.3      1.405      2.026
REMARK  5 active torsions:
REMARK  status: ('A' for Active; 'I' for Inactive)
REMARK    1  A    between atoms: O1_2  and  C2_3 
REMARK    2  A    between atoms: C3_4  and  C4_5 
REMARK    3  A    between atoms: C10_14  and  N4_15 
REMARK    4  A    between atoms: N4_15  and  C11_16 
REMARK    5  A    between atoms: C11_16  and  C13_18 
ROOT
HETATM    1  C4  UNL     1      25.796   0.467  52.449  1.00  0.00     0.005 C 
HETATM    2  C5  UNL     1      24.680   1.016  52.888  1.00  0.00    -0.074 C 
HETATM    3  C6  UNL     1      23.832   0.180  53.743  1.00  0.00     0.054 C 
HETATM    4  C7  UNL     1      22.689  -0.467  53.079  1.00  0.00     0.125 C 
HETATM    5  N1  UNL     1      22.104   0.228  51.982  1.00  0.00    -0.374 N 
HETATM    6  C8  UNL     1      22.082   1.612  51.645  1.00  0.00     0.135 A 
HETATM    7  N2  UNL     1      20.908   1.983  51.088  1.00  0.00    -0.224 NA
HETATM    8  C9  UNL     1      20.713   3.256  50.713  1.00  0.00     0.237 A 
HETATM    9  N3  UNL     1      21.681   4.171  50.888  1.00  0.00    -0.224 NA
HETATM   10  C10 UNL     1      22.862   3.823  51.442  1.00  0.00     0.135 A 
HETATM   11  C19 UNL     1      23.126   2.511  51.853  1.00  0.00     0.037 A 
HETATM   12  C20 UNL     1      24.492   2.411  52.420  1.00  0.00     0.080 C 
HETATM   13  H11 UNL     1      21.584  -0.377  51.275  1.00  0.00     0.161 HD
ENDROOT
BRANCH  10  14
HETATM   14  N4  UNL     1      23.852   4.848  51.601  1.00  0.00    -0.366 N 
HETATM   15  H13 UNL     1      24.405   4.953  52.478  1.00  0.00     0.161 HD
BRANCH  14  16
HETATM   16  C11 UNL     1      24.136   5.796  50.542  1.00  0.00     0.112 C 
HETATM   17  C12 UNL     1      24.038   7.241  51.032  1.00  0.00     0.037 C 
BRANCH  16  18
HETATM   18  C13 UNL     1      25.413   5.531  49.841  1.00  0.00    -0.036 A 
HETATM   19  C14 UNL     1      26.121   6.551  49.193  1.00  0.00     0.009 A 
HETATM   20  C15 UNL     1      27.327   6.322  48.527  1.00  0.00     0.001 A 
HETATM   21  C16 UNL     1      27.799   5.026  48.538  1.00  0.00     0.000 A 
HETATM   22  C17 UNL     1      27.150   3.980  49.158  1.00  0.00     0.001 A 
HETATM   23  C18 UNL     1      25.964   4.250  49.802  1.00  0.00     0.009 A 
ENDBRANCH  16  18
ENDBRANCH  14  16
ENDBRANCH  10  14
BRANCH   1  24
HETATM   24  C3  UNL     1      26.698  -0.648  52.375  1.00  0.00     0.024 C 
HETATM   25  C2  UNL     1      27.602  -1.436  52.920  1.00  0.00     0.134 C 
BRANCH  25  26
HETATM   26  O1  UNL     1      27.640  -0.821  54.164  1.00  0.00    -0.368 OA
HETATM   27  C1  UNL     1      28.664  -0.004  54.644  1.00  0.00     0.208 C 
ENDBRANCH  25  26
ENDBRANCH   1  24
TORSDOF 5
ENDMDL
MODEL 4
REMARK VINA RESULT:      -7.9      2.804      6.411
REMARK  5 active torsions:
REMARK  status: ('A' for Active; 'I' for Inactive)
REMARK    1  A    between atoms: O1_2  and  C2_3 
REMARK    2  A    between atoms: C3_4  and  C4_5 
REMARK    3  A    between atoms: C10_14  and  N4_15 
REMARK    4  A    between atoms: N4_15  and  C11_16 
REMARK    5  A    between atoms: C11_16  and  C13_18 
ROOT
HETATM    1  C4  UNL     1      25.458   0.441  53.595  1.00  0.00     0.005 C 
HETATM    2  C5  UNL     1      24.900   0.979  52.528  1.00  0.00    -0.074 C 
HETATM    3  C6  UNL     1      25.798   1.319  51.420  1.00  0.00     0.054 C 
HETATM    4  C7  UNL     1      26.203   2.731  51.331  1.00  0.00     0.125 C 
HETATM    5  N1  UNL     1      25.265   3.700  51.792  1.00  0.00    -0.374 N 
HETATM    6  C8  UNL     1      23.847   3.656  51.917  1.00  0.00     0.135 A 
HETATM    7  N2  UNL     1      23.272   4.845  51.627  1.00  0.00    -0.224 NA
HETATM    8  C9  UNL     1      21.939   4.981  51.689  1.00  0.00     0.237 A 
HETATM    9  N3  UNL     1      21.166   3.940  52.040  1.00  0.00    -0.224 NA
HETATM   10  C10 UNL     1      21.718   2.743  52.334  1.00  0.00     0.135 A 
HETATM   11  C19 UNL     1      23.102   2.538  52.288  1.00  0.00     0.037 A 
HETATM   12  C20 UNL     1      23.431   1.141  52.657  1.00  0.00     0.080 C 
HETATM   13  H11 UNL     1      25.678   4.632  52.103  1.00  0.00     0.161 HD
ENDROOT
BRANCH  10  14
HETATM   14  N4  UNL     1      20.836   1.673  52.699  1.00  0.00    -0.366 N 
HETATM   15  H13 UNL     1      20.858   1.235  53.644  1.00  0.00     0.161 HD
BRANCH  14  16
HETATM   16  C11 UNL     1      19.863   1.144  51.764  1.00  0.00     0.112 C 
HETATM   17  C12 UNL     1      20.500   0.793  50.419  1.00  0.00     0.037 C 
BRANCH  16  18
HETATM   18  C13 UNL     1      19.069   0.021  52.314  1.00  0.00    -0.036 A 
HETATM   19  C14 UNL     1      17.781  -0.266  51.846  1.00  0.00     0.009 A 
HETATM   20  C15 UNL     1      17.016  -1.321  52.351  1.00  0.00     0.001 A 
HETATM   21  C16 UNL     1      17.596  -2.079  53.347  1.00  0.00     0.000 A 
HETATM   22  C17 UNL     1      18.858  -1.847  53.849  1.00  0.00     0.001 A 
HETATM   23  C18 UNL     1      19.577  -0.797  53.322  1.00  0.00     0.009 A 
ENDBRANCH  16  18
ENDBRANCH  14  16
ENDBRANCH  10  14
BRANCH   1  24
HETATM   24  C3  UNL     1      26.619  -0.031  54.297  1.00  0.00     0.024 C 
HETATM   25  C2  UNL     1      27.799   0.180  54.844  1.00  0.00     0.134 C 
BRANCH  25  26
HETATM   26  O1  UNL     1      27.881   1.536  54.559  1.00  0.00    -0.368 OA
HETATM   27  C1  UNL     1      28.881   2.157  53.810  1.00  0.00     0.208 C 
ENDBRANCH  25  26
ENDBRANCH   1  24
TORSDOF 5
ENDMDL
MODEL 5
REMARK VINA RESULT:      -7.9      1.962      2.888
REMARK  5 active torsions:
REMARK  status: ('A' for Active; 'I' for Inactive)
REMARK    1  A    between atoms: O1_2  and  C2_3 
REMARK    2  A    between atoms: C3_4  and  C4_5 
REMARK    3  A    between atoms: C10_14  and  N4_15 
REMARK    4  A    between atoms: N4_15  and  C11_16 
REMARK    5  A    between atoms: C11_16  and  C13_18 
ROOT
HETATM    1  C4  UNL     1      26.273   0.391  51.947  1.00  0.00     0.005 C 
HETATM    2  C5  UNL     1      25.409   1.382  52.054  1.00  0.00    -0.074 C 
HETATM    3  C6  UNL     1      24.372   1.240  53.079  1.00  0.00     0.054 C 
HETATM    4  C7  UNL     1      23.057   0.781  52.604  1.00  0.00     0.125 C 
HETATM    5  N1  UNL     1      22.684   1.156  51.280  1.00  0.00    -0.374 N 
HETATM    6  C8  UNL     1      23.095   2.243  50.456  1.00  0.00     0.135 A 
HETATM    7  N2  UNL     1      22.081   2.722  49.701  1.00  0.00    -0.224 NA
HETATM    8  C9  UNL     1      22.291   3.752  48.868  1.00  0.00     0.237 A 
HETATM    9  N3  UNL     1      23.508   4.313  48.777  1.00  0.00    -0.224 NA
HETATM   10  C10 UNL     1      24.535   3.852  49.521  1.00  0.00     0.135 A 
HETATM   11  C19 UNL     1      24.380   2.780  50.408  1.00  0.00     0.037 A 
HETATM   12  C20 UNL     1      25.662   2.481  51.089  1.00  0.00     0.080 C 
HETATM   13  H11 UNL     1      21.970   0.523  50.804  1.00  0.00     0.161 HD
ENDROOT
BRANCH  10  14
HETATM   14  N4  UNL     1      25.807   4.497  49.377  1.00  0.00    -0.366 N 
HETATM   15  H13 UNL     1      26.705   3.994  49.534  1.00  0.00     0.161 HD
BRANCH  14  16
HETATM   16  C11 UNL     1      25.907   5.894  49.001  1.00  0.00     0.112 C 
HETATM   17  C12 UNL     1      25.540   6.821  50.160  1.00  0.00     0.037 C 
BRANCH  16  18
HETATM   18  C13 UNL     1      27.211   6.249  48.397  1.00  0.00    -0.036 A 
HETATM   19  C14 UNL     1      27.395   7.448  47.697  1.00  0.00     0.009 A 
HETATM   20  C15 UNL     1      28.618   7.802  47.120  1.00  0.00     0.001 A 
HETATM   21  C16 UNL     1      29.653   6.902  47.274  1.00  0.00     0.000 A 
HETATM   22  C17 UNL     1      29.535   5.707  47.950  1.00  0.00     0.001 A 
HETATM   23  C18 UNL     1      28.312   5.399  48.503  1.00  0.00     0.009 A 
ENDBRANCH  16  18
ENDBRANCH  14  16
ENDBRANCH  10  14
BRANCH   1  24
HETATM   24  C3  UNL     1      26.765  -0.891  52.368  1.00  0.00     0.024 C 
HETATM   25  C2  UNL     1      27.363  -1.660  53.256  1.00  0.00     0.134 C 
BRANCH  25  26
HETATM   26  O1  UNL     1      27.591  -0.678  54.209  1.00  0.00    -0.368 OA
HETATM   27  C1  UNL     1      28.836  -0.162  54.573  1.00  0.00     0.208 C 
ENDBRANCH  25  26
ENDBRANCH   1  24
TORSDOF 5
ENDMDL
MODEL 6
REMARK VINA RESULT:      -7.8      2.929      6.935
REMARK  5 active torsions:
REMARK  status: ('A' for Active; 'I' for Inactive)
REMARK    1  A    between atoms: O1_2  and  C2_3 
REMARK    2  A    between atoms: C3_4  and  C4_5 
REMARK    3  A    between atoms: C10_14  and  N4_15 
REMARK    4  A    between atoms: N4_15  and  C11_16 
REMARK    5  A    between atoms: C11_16  and  C13_18 
ROOT
HETATM    1  C4  UNL     1      21.720   0.869  52.354  1.00  0.00     0.005 C 
HETATM    2  C5  UNL     1      22.362   2.020  52.286  1.00  0.00    -0.074 C 
HETATM    3  C6  UNL     1      21.551   3.206  51.997  1.00  0.00     0.054 C 
HETATM    4  C7  UNL     1      21.561   3.665  50.599  1.00  0.00     0.125 C 
HETATM    5  N1  UNL     1      22.755   3.437  49.855  1.00  0.00    -0.374 N 
HETATM    6  C8  UNL     1      24.106   3.260  50.270  1.00  0.00     0.135 A 
HETATM    7  N2  UNL     1      24.982   3.825  49.409  1.00  0.00    -0.224 NA
HETATM    8  C9  UNL     1      26.300   3.757  49.648  1.00  0.00     0.237 A 
HETATM    9  N3  UNL     1      26.759   3.127  50.742  1.00  0.00    -0.224 NA
HETATM   10  C10 UNL     1      25.903   2.556  51.616  1.00  0.00     0.135 A 
HETATM   11  C19 UNL     1      24.517   2.592  51.421  1.00  0.00     0.037 A 
HETATM   12  C20 UNL     1      23.820   1.889  52.524  1.00  0.00     0.080 C 
HETATM   13  H11 UNL     1      22.637   3.387  48.796  1.00  0.00     0.161 HD
ENDROOT
BRANCH  10  14
HETATM   14  N4  UNL     1      26.458   1.901  52.764  1.00  0.00    -0.366 N 
HETATM   15  H13 UNL     1      25.887   1.678  53.606  1.00  0.00     0.161 HD
BRANCH  14  16
HETATM   16  C11 UNL     1      27.855   1.514  52.811  1.00  0.00     0.112 C 
HETATM   17  C12 UNL     1      28.615   2.262  53.907  1.00  0.00     0.037 C 
BRANCH  16  18
HETATM   18  C13 UNL     1      28.057   0.050  52.894  1.00  0.00    -0.036 A 
HETATM   19  C14 UNL     1      29.268  -0.501  53.333  1.00  0.00     0.009 A 
HETATM   20  C15 UNL     1      29.478  -1.880  53.419  1.00  0.00     0.001 A 
HETATM   21  C16 UNL     1      28.423  -2.687  53.048  1.00  0.00     0.000 A 
HETATM   22  C17 UNL     1      27.208  -2.206  52.609  1.00  0.00     0.001 A 
HETATM   23  C18 UNL     1      27.044  -0.841  52.540  1.00  0.00     0.009 A 
ENDBRANCH  16  18
ENDBRANCH  14  16
ENDBRANCH  10  14
BRANCH   1  24
HETATM   24  C3  UNL     1      20.505   0.108  52.280  1.00  0.00     0.024 C 
HETATM   25  C2  UNL     1      19.197   0.037  52.135  1.00  0.00     0.134 C 
BRANCH  25  26
HETATM   26  O1  UNL     1      18.966   1.397  51.986  1.00  0.00    -0.368 OA
HETATM   27  C1  UNL     1      18.194   1.994  50.989  1.00  0.00     0.208 C 
ENDBRANCH  25  26
ENDBRANCH   1  24
TORSDOF 5
ENDMDL
MODEL 7
REMARK VINA RESULT:      -7.7      3.157      7.147
REMARK  5 active torsions:
REMARK  status: ('A' for Active; 'I' for Inactive)
REMARK    1  A    between atoms: O1_2  and  C2_3 
REMARK    2  A    between atoms: C3_4  and  C4_5 
REMARK    3  A    between atoms: C10_14  and  N4_15 
REMARK    4  A    between atoms: N4_15  and  C11_16 
REMARK    5  A    between atoms: C11_16  and  C13_18 
ROOT
HETATM    1  C4  UNL     1      29.242   5.496  48.394  1.00  0.00     0.005 C 
HETATM    2  C5  UNL     1      28.049   6.021  48.194  1.00  0.00    -0.074 C 
HETATM    3  C6  UNL     1      28.010   7.321  47.520  1.00  0.00     0.054 C 
HETATM    4  C7  UNL     1      27.852   8.494  48.394  1.00  0.00     0.125 C 
HETATM    5  N1  UNL     1      27.106   8.307  49.594  1.00  0.00    -0.374 N 
HETATM    6  C8  UNL     1      26.100   7.360  49.941  1.00  0.00     0.135 A 
HETATM    7  N2  UNL     1      25.141   7.900  50.727  1.00  0.00    -0.224 NA
HETATM    8  C9  UNL     1      24.111   7.149  51.146  1.00  0.00     0.237 A 
HETATM    9  N3  UNL     1      24.025   5.857  50.788  1.00  0.00    -0.224 NA
HETATM   10  C10 UNL     1      24.970   5.296  50.004  1.00  0.00     0.135 A 
HETATM   11  C19 UNL     1      26.069   6.028  49.536  1.00  0.00     0.037 A 
HETATM   12  C20 UNL     1      26.945   5.170  48.704  1.00  0.00     0.080 C 
HETATM   13  H11 UNL     1      27.324   8.987  50.385  1.00  0.00     0.161 HD
ENDROOT
BRANCH  10  14
HETATM   14  N4  UNL     1      24.817   3.914  49.658  1.00  0.00    -0.366 N 
HETATM   15  H13 UNL     1      25.328   3.482  48.860  1.00  0.00     0.161 HD
BRANCH  14  16
HETATM   16  C11 UNL     1      23.936   3.041  50.408  1.00  0.00     0.112 C 
HETATM   17  C12 UNL     1      22.911   2.355  49.504  1.00  0.00     0.037 C 
BRANCH  16  18
HETATM   18  C13 UNL     1      24.657   2.072  51.266  1.00  0.00    -0.036 A 
HETATM   19  C14 UNL     1      26.055   1.986  51.262  1.00  0.00     0.009 A 
HETATM   20  C15 UNL     1      26.754   1.080  52.064  1.00  0.00     0.001 A 
HETATM   21  C16 UNL     1      25.993   0.261  52.873  1.00  0.00     0.000 A 
HETATM   22  C17 UNL     1      24.616   0.299  52.922  1.00  0.00     0.001 A 
HETATM   23  C18 UNL     1      23.968   1.207  52.115  1.00  0.00     0.009 A 
ENDBRANCH  16  18
ENDBRANCH  14  16
ENDBRANCH  10  14
BRANCH   1  24
HETATM   24  C3  UNL     1      30.672   5.556  48.274  1.00  0.00     0.024 C 
HETATM   25  C2  UNL     1      31.832   6.098  48.585  1.00  0.00     0.134 C 
BRANCH  25  26
HETATM   26  O1  UNL     1      31.343   7.068  49.450  1.00  0.00    -0.368 OA
HETATM   27  C1  UNL     1      31.539   8.444  49.334  1.00  0.00     0.208 C 
ENDBRANCH  25  26
ENDBRANCH   1  24
TORSDOF 5
ENDMDL
MODEL 8
REMARK VINA RESULT:      -7.6      2.170      5.969
REMARK  5 active torsions:
REMARK  status: ('A' for Active; 'I' for Inactive)
REMARK    1  A    between atoms: O1_2  and  C2_3 
REMARK    2  A    between atoms: C3_4  and  C4_5 
REMARK    3  A    between atoms: C10_14  and  N4_15 
REMARK    4  A    between atoms: N4_15  and  C11_16 
REMARK    5  A    between atoms: C11_16  and  C13_18 
ROOT
HETATM    1  C4  UNL     1      26.129   2.270  51.749  1.00  0.00     0.005 C 
HETATM    2  C5  UNL     1      25.351   2.757  50.801  1.00  0.00    -0.074 C 
HETATM    3  C6  UNL     1      25.986   3.647  49.826  1.00  0.00     0.054 C 
HETATM    4  C7  UNL     1      25.799   5.089  50.055  1.00  0.00     0.125 C 
HETATM    5  N1  UNL     1      24.582   5.490  50.678  1.00  0.00    -0.374 N 
HETATM    6  C8  UNL     1      23.303   4.866  50.738  1.00  0.00     0.135 A 
HETATM    7  N2  UNL     1      22.294   5.765  50.688  1.00  0.00    -0.224 NA
HETATM    8  C9  UNL     1      21.019   5.350  50.728  1.00  0.00     0.237 A 
HETATM    9  N3  UNL     1      20.736   4.040  50.820  1.00  0.00    -0.224 NA
HETATM   10  C10 UNL     1      21.726   3.124  50.871  1.00  0.00     0.135 A 
HETATM   11  C19 UNL     1      23.076   3.495  50.834  1.00  0.00     0.037 A 
HETATM   12  C20 UNL     1      23.944   2.296  50.908  1.00  0.00     0.080 C 
HETATM   13  H11 UNL     1      24.613   6.421  51.196  1.00  0.00     0.161 HD
ENDROOT
BRANCH  10  14
HETATM   14  N4  UNL     1      21.354   1.743  50.967  1.00  0.00    -0.366 N 
HETATM   15  H13 UNL     1      21.689   1.030  50.285  1.00  0.00     0.161 HD
BRANCH  14  16
HETATM   16  C11 UNL     1      20.487   1.265  52.026  1.00  0.00     0.112 C 
HETATM   17  C12 UNL     1      19.179   0.696  51.476  1.00  0.00     0.037 C 
BRANCH  16  18
HETATM   18  C13 UNL     1      21.156   0.326  52.955  1.00  0.00    -0.036 A 
HETATM   19  C14 UNL     1      22.531   0.399  53.211  1.00  0.00     0.009 A 
HETATM   20  C15 UNL     1      23.180  -0.477  54.084  1.00  0.00     0.001 A 
HETATM   21  C16 UNL     1      22.393  -1.432  54.695  1.00  0.00     0.000 A 
HETATM   22  C17 UNL     1      21.037  -1.554  54.485  1.00  0.00     0.001 A 
HETATM   23  C18 UNL     1      20.438  -0.670  53.617  1.00  0.00     0.009 A 
ENDBRANCH  16  18
ENDBRANCH  14  16
ENDBRANCH  10  14
BRANCH   1  24
HETATM   24  C3  UNL     1      27.415   2.156  52.376  1.00  0.00     0.024 C 
HETATM   25  C2  UNL     1      28.168   1.850  53.413  1.00  0.00     0.134 C 
BRANCH  25  26
HETATM   26  O1  UNL     1      27.142   1.456  54.261  1.00  0.00    -0.368 OA
HETATM   27  C1  UNL     1      27.046   0.227  54.915  1.00  0.00     0.208 C 
ENDBRANCH  25  26
ENDBRANCH   1  24
TORSDOF 5
ENDMDL
MODEL 9
REMARK VINA RESULT:      -7.6      2.388      6.208
REMARK  5 active torsions:
REMARK  status: ('A' for Active; 'I' for Inactive)
REMARK    1  A    between atoms: O1_2  and  C2_3 
REMARK    2  A    between atoms: C3_4  and  C4_5 
REMARK    3  A    between atoms: C10_14  and  N4_15 
REMARK    4  A    between atoms: N4_15  and  C11_16 
REMARK    5  A    between atoms: C11_16  and  C13_18 
ROOT
HETATM    1  C4  UNL     1      25.316   4.620  49.857  1.00  0.00     0.005 C 
HETATM    2  C5  UNL     1      24.434   3.645  49.746  1.00  0.00    -0.074 C 
HETATM    3  C6  UNL     1      23.453   3.770  48.664  1.00  0.00     0.054 C 
HETATM    4  C7  UNL     1      22.129   4.279  49.054  1.00  0.00     0.125 C 
HETATM    5  N1  UNL     1      21.680   3.967  50.370  1.00  0.00    -0.374 N 
HETATM    6  C8  UNL     1      22.022   2.906  51.256  1.00  0.00     0.135 A 
HETATM    7  N2  UNL     1      20.960   2.482  51.977  1.00  0.00    -0.224 NA
HETATM    8  C9  UNL     1      21.101   1.482  52.860  1.00  0.00     0.237 A 
HETATM    9  N3  UNL     1      22.297   0.896  53.035  1.00  0.00    -0.224 NA
HETATM   10  C10 UNL     1      23.372   1.303  52.327  1.00  0.00     0.135 A 
HETATM   11  C19 UNL     1      23.288   2.341  51.391  1.00  0.00     0.037 A 
HETATM   12  C20 UNL     1      24.610   2.581  50.765  1.00  0.00     0.080 C 
HETATM   13  H11 UNL     1      20.960   4.635  50.784  1.00  0.00     0.161 HD
ENDROOT
BRANCH  10  14
HETATM   14  N4  UNL     1      24.618   0.634  52.561  1.00  0.00    -0.366 N 
HETATM   15  H13 UNL     1      25.176   0.215  51.788  1.00  0.00     0.161 HD
BRANCH  14  16
HETATM   16  C11 UNL     1      25.168   0.507  53.896  1.00  0.00     0.112 C 
HETATM   17  C12 UNL     1      24.891  -0.873  54.495  1.00  0.00     0.037 C 
BRANCH  16  18
HETATM   18  C13 UNL     1      26.601   0.873  53.980  1.00  0.00    -0.036 A 
HETATM   19  C14 UNL     1      27.540   0.029  54.587  1.00  0.00     0.009 A 
HETATM   20  C15 UNL     1      28.896   0.356  54.676  1.00  0.00     0.001 A 
HETATM   21  C16 UNL     1      29.274   1.566  54.129  1.00  0.00     0.000 A 
HETATM   22  C17 UNL     1      28.398   2.437  53.519  1.00  0.00     0.001 A 
HETATM   23  C18 UNL     1      27.071   2.075  53.453  1.00  0.00     0.009 A 
ENDBRANCH  16  18
ENDBRANCH  14  16
ENDBRANCH  10  14
BRANCH   1  24
HETATM   24  C3  UNL     1      25.862   5.871  49.411  1.00  0.00     0.024 C 
HETATM   25  C2  UNL     1      26.778   6.563  48.764  1.00  0.00     0.134 C 
BRANCH  25  26
HETATM   26  O1  UNL     1      27.543   5.485  48.342  1.00  0.00    -0.368 OA
HETATM   27  C1  UNL     1      28.936   5.436  48.297  1.00  0.00     0.208 C 
ENDBRANCH  25  26
ENDBRANCH   1  24
TORSDOF 5
ENDMDL
