MODEL 1
REMARK VINA RESULT:      -7.1      0.000      0.000
REMARK  6 active torsions:
REMARK  status: ('A' for Active; 'I' for Inactive)
REMARK    1  A    between atoms: O1_2  and  C2_3 
REMARK    2  A    between atoms: C5_6  and  S1_7 
REMARK    3  A    between atoms: S1_7  and  N1_8 
REMARK    4  A    between atoms: N1_8  and  C6_9 
REMARK    5  A    between atoms: C6_9  and  C7_10 
REMARK    6  A    between atoms: C8_11  and  C9_13 
ROOT
HETATM    1  C2  UNL     1      24.352  -0.037  53.160  1.00  0.00     0.069 C 
HETATM    2  C3  UNL     1      23.786   1.026  52.540  1.00  0.00     0.035 C 
HETATM    3  C4  UNL     1      24.074   2.146  51.653  1.00  0.00     0.020 C 
HETATM    4  C5  UNL     1      25.088   2.728  51.041  1.00  0.00     0.023 C 
HETATM    5  C10 UNL     1      26.583   2.808  51.230  1.00  0.00     0.215 C 
HETATM    6  O2  UNL     1      26.855   2.090  52.399  1.00  0.00    -0.385 OA
HETATM    7  C11 UNL     1      28.233   2.183  52.714  1.00  0.00     0.187 C 
HETATM    8  C12 UNL     1      28.305   1.726  54.184  1.00  0.00     0.144 C 
HETATM    9  N2  UNL     1      27.759   0.444  54.255  1.00  0.00    -0.395 N 
HETATM   10  C13 UNL     1      28.548  -0.571  53.705  1.00  0.00     0.145 C 
HETATM   11  C14 UNL     1      26.656   0.184  55.085  1.00  0.00     0.287 C 
HETATM   12  O3  UNL     1      26.004  -1.014  54.685  1.00  0.00    -0.366 OA
HETATM   13  C15 UNL     1      25.514  -0.884  53.423  1.00  0.00     0.234 C 
ENDROOT
BRANCH   4  14
HETATM   14  S1  UNL     1      24.804   4.147  49.966  1.00  0.00    -0.022 SA
BRANCH  14  15
HETATM   15  N1  UNL     1      26.088   5.293  50.043  1.00  0.00    -0.357 N 
HETATM   16  H6  UNL     1      26.144   5.928  50.829  1.00  0.00     0.168 HD
BRANCH  15  17
HETATM   17  C6  UNL     1      26.450   5.846  48.783  1.00  0.00     0.156 C 
BRANCH  17  18
HETATM   18  C7  UNL     1      27.857   5.460  48.449  1.00  0.00     0.015 C 
HETATM   19  C8  UNL     1      29.112   5.852  48.164  1.00  0.00     0.038 C 
HETATM   20 CL1  UNL     1      30.618   5.004  47.798  1.00  0.00    -0.087 Cl
BRANCH  19  21
HETATM   21  C9  UNL     1      29.449   7.305  48.110  1.00  0.00     0.273 C 
HETATM   22  F1  UNL     1      28.890   7.922  47.019  1.00  0.00    -0.250 F 
ENDBRANCH  19  21
ENDBRANCH  17  18
ENDBRANCH  15  17
ENDBRANCH  14  15
ENDBRANCH   4  14
BRANCH   1  23
HETATM   23  O1  UNL     1      23.472  -0.785  53.962  1.00  0.00    -0.358 OA
HETATM   24  C1  UNL     1      22.083  -0.820  53.660  1.00  0.00     0.209 C 
ENDBRANCH   1  23
TORSDOF 6
ENDMDL
MODEL 2
REMARK VINA RESULT:      -6.9      1.357      1.567
REMARK  6 active torsions:
REMARK  status: ('A' for Active; 'I' for Inactive)
REMARK    1  A    between atoms: O1_2  and  C2_3 
REMARK    2  A    between atoms: C5_6  and  S1_7 
REMARK    3  A    between atoms: S1_7  and  N1_8 
REMARK    4  A    between atoms: N1_8  and  C6_9 
REMARK    5  A    between atoms: C6_9  and  C7_10 
REMARK    6  A    between atoms: C8_11  and  C9_13 
ROOT
HETATM    1  C2  UNL     1      23.863  -0.004  53.522  1.00  0.00     0.069 C 
HETATM    2  C3  UNL     1      23.200   1.091  53.081  1.00  0.00     0.035 C 
HETATM    3  C4  UNL     1      23.320   2.253  52.210  1.00  0.00     0.020 C 
HETATM    4  C5  UNL     1      24.200   2.862  51.437  1.00  0.00     0.023 C 
HETATM    5  C10 UNL     1      25.703   2.928  51.328  1.00  0.00     0.215 C 
HETATM    6  O2  UNL     1      26.193   2.150  52.383  1.00  0.00    -0.385 OA
HETATM    7  C11 UNL     1      27.607   2.223  52.421  1.00  0.00     0.187 C 
HETATM    8  C12 UNL     1      27.964   1.692  53.823  1.00  0.00     0.144 C 
HETATM    9  N2  UNL     1      27.426   0.410  53.938  1.00  0.00    -0.395 N 
HETATM   10  C13 UNL     1      28.076  -0.578  53.194  1.00  0.00     0.145 C 
HETATM   11  C14 UNL     1      26.507   0.112  54.958  1.00  0.00     0.287 C 
HETATM   12  O3  UNL     1      25.772  -1.062  54.638  1.00  0.00    -0.366 OA
HETATM   13  C15 UNL     1      25.043  -0.867  53.507  1.00  0.00     0.234 C 
ENDROOT
BRANCH   4  14
HETATM   14  S1  UNL     1      23.726   4.334  50.511  1.00  0.00    -0.022 SA
BRANCH  14  15
HETATM   15  N1  UNL     1      24.822   5.641  50.754  1.00  0.00    -0.357 N 
HETATM   16  H6  UNL     1      25.038   5.943  51.696  1.00  0.00     0.168 HD
BRANCH  15  17
HETATM   17  C6  UNL     1      24.713   6.679  49.789  1.00  0.00     0.156 C 
BRANCH  17  18
HETATM   18  C7  UNL     1      26.048   6.920  49.154  1.00  0.00     0.015 C 
HETATM   19  C8  UNL     1      27.186   6.403  48.659  1.00  0.00     0.038 C 
HETATM   20 CL1  UNL     1      28.645   7.092  47.939  1.00  0.00    -0.087 Cl
BRANCH  19  21
HETATM   21  C9  UNL     1      27.400   4.926  48.656  1.00  0.00     0.273 C 
HETATM   22  F1  UNL     1      28.633   4.587  48.156  1.00  0.00    -0.250 F 
ENDBRANCH  19  21
ENDBRANCH  17  18
ENDBRANCH  15  17
ENDBRANCH  14  15
ENDBRANCH   4  14
BRANCH   1  23
HETATM   23  O1  UNL     1      23.151  -0.788  54.446  1.00  0.00    -0.358 OA
HETATM   24  C1  UNL     1      21.729  -0.763  54.461  1.00  0.00     0.209 C 
ENDBRANCH   1  23
TORSDOF 6
ENDMDL
MODEL 3
REMARK VINA RESULT:      -6.8      4.425      6.577
REMARK  6 active torsions:
REMARK  status: ('A' for Active; 'I' for Inactive)
REMARK    1  A    between atoms: O1_2  and  C2_3 
REMARK    2  A    between atoms: C5_6  and  S1_7 
REMARK    3  A    between atoms: S1_7  and  N1_8 
REMARK    4  A    between atoms: N1_8  and  C6_9 
REMARK    5  A    between atoms: C6_9  and  C7_10 
REMARK    6  A    between atoms: C8_11  and  C9_13 
ROOT
HETATM    1  C2  UNL     1      21.740   0.511  53.104  1.00  0.00     0.069 C 
HETATM    2  C3  UNL     1      23.060   0.248  52.947  1.00  0.00     0.035 C 
HETATM    3  C4  UNL     1      24.326   0.845  52.541  1.00  0.00     0.020 C 
HETATM    4  C5  UNL     1      24.813   1.970  52.051  1.00  0.00     0.023 C 
HETATM    5  C10 UNL     1      24.286   3.138  51.255  1.00  0.00     0.215 C 
HETATM    6  O2  UNL     1      22.948   2.834  50.980  1.00  0.00    -0.385 OA
HETATM    7  C11 UNL     1      22.385   3.837  50.153  1.00  0.00     0.187 C 
HETATM    8  C12 UNL     1      21.101   3.184  49.606  1.00  0.00     0.144 C 
HETATM    9  N2  UNL     1      20.323   2.804  50.700  1.00  0.00    -0.395 N 
HETATM   10  C13 UNL     1      19.717   3.854  51.395  1.00  0.00     0.145 C 
HETATM   11  C14 UNL     1      19.950   1.460  50.877  1.00  0.00     0.287 C 
HETATM   12  O3  UNL     1      19.566   1.224  52.225  1.00  0.00    -0.366 OA
HETATM   13  C15 UNL     1      20.617   1.445  53.059  1.00  0.00     0.234 C 
ENDROOT
BRANCH   4  14
HETATM   14  S1  UNL     1      26.587   2.148  51.784  1.00  0.00    -0.022 SA
BRANCH  14  15
HETATM   15  N1  UNL     1      27.422   2.613  53.217  1.00  0.00    -0.357 N 
HETATM   16  H6  UNL     1      27.713   3.575  53.335  1.00  0.00     0.168 HD
BRANCH  15  17
HETATM   17  C6  UNL     1      28.330   1.633  53.705  1.00  0.00     0.156 C 
BRANCH  17  18
HETATM   18  C7  UNL     1      27.867   0.269  53.298  1.00  0.00     0.015 C 
HETATM   19  C8  UNL     1      28.159  -1.034  53.135  1.00  0.00     0.038 C 
HETATM   20 CL1  UNL     1      27.249  -2.443  52.581  1.00  0.00    -0.087 Cl
BRANCH  19  21
HETATM   21  C9  UNL     1      29.525  -1.543  53.457  1.00  0.00     0.273 C 
HETATM   22  F1  UNL     1      30.472  -0.552  53.385  1.00  0.00    -0.250 F 
ENDBRANCH  19  21
ENDBRANCH  17  18
ENDBRANCH  15  17
ENDBRANCH  14  15
ENDBRANCH   4  14
BRANCH   1  23
HETATM   23  O1  UNL     1      20.973  -0.581  53.545  1.00  0.00    -0.358 OA
HETATM   24  C1  UNL     1      21.502  -1.486  54.507  1.00  0.00     0.209 C 
ENDBRANCH   1  23
TORSDOF 6
ENDMDL
MODEL 4
REMARK VINA RESULT:      -6.8      3.405      3.951
REMARK  6 active torsions:
REMARK  status: ('A' for Active; 'I' for Inactive)
REMARK    1  A    between atoms: O1_2  and  C2_3 
REMARK    2  A    between atoms: C5_6  and  S1_7 
REMARK    3  A    between atoms: S1_7  and  N1_8 
REMARK    4  A    between atoms: N1_8  and  C6_9 
REMARK    5  A    between atoms: C6_9  and  C7_10 
REMARK    6  A    between atoms: C8_11  and  C9_13 
ROOT
HETATM    1  C2  UNL     1      24.414  -0.053  52.983  1.00  0.00     0.069 C 
HETATM    2  C3  UNL     1      23.878   0.994  52.310  1.00  0.00     0.035 C 
HETATM    3  C4  UNL     1      24.211   2.105  51.428  1.00  0.00     0.020 C 
HETATM    4  C5  UNL     1      25.256   2.692  50.877  1.00  0.00     0.023 C 
HETATM    5  C10 UNL     1      26.734   2.797  51.166  1.00  0.00     0.215 C 
HETATM    6  O2  UNL     1      26.934   2.099  52.362  1.00  0.00    -0.385 OA
HETATM    7  C11 UNL     1      28.286   2.216  52.769  1.00  0.00     0.187 C 
HETATM    8  C12 UNL     1      28.264   1.782  54.247  1.00  0.00     0.144 C 
HETATM    9  N2  UNL     1      27.732   0.493  54.300  1.00  0.00    -0.395 N 
HETATM   10  C13 UNL     1      28.570  -0.518  53.820  1.00  0.00     0.145 C 
HETATM   11  C14 UNL     1      26.578   0.229  55.057  1.00  0.00     0.287 C 
HETATM   12  O3  UNL     1      25.971  -0.984  54.632  1.00  0.00    -0.366 OA
HETATM   13  C15 UNL     1      25.567  -0.878  53.338  1.00  0.00     0.234 C 
ENDROOT
BRANCH   4  14
HETATM   14  S1  UNL     1      25.027   4.092  49.764  1.00  0.00    -0.022 SA
BRANCH  14  15
HETATM   15  N1  UNL     1      25.576   5.572  50.453  1.00  0.00    -0.357 N 
HETATM   16  H6  UNL     1      26.399   5.574  51.041  1.00  0.00     0.168 HD
BRANCH  15  17
HETATM   17  C6  UNL     1      24.531   6.448  50.859  1.00  0.00     0.156 C 
BRANCH  17  18
HETATM   18  C7  UNL     1      23.348   5.647  51.307  1.00  0.00     0.015 C 
HETATM   19  C8  UNL     1      22.014   5.480  51.298  1.00  0.00     0.038 C 
HETATM   20 CL1  UNL     1      20.912   4.301  52.019  1.00  0.00    -0.087 Cl
BRANCH  19  21
HETATM   21  C9  UNL     1      21.143   6.434  50.550  1.00  0.00     0.273 C 
HETATM   22  F1  UNL     1      21.342   7.732  50.950  1.00  0.00    -0.250 F 
ENDBRANCH  19  21
ENDBRANCH  17  18
ENDBRANCH  15  17
ENDBRANCH  14  15
ENDBRANCH   4  14
BRANCH   1  23
HETATM   23  O1  UNL     1      23.492  -0.801  53.735  1.00  0.00    -0.358 OA
HETATM   24  C1  UNL     1      22.158  -0.969  53.271  1.00  0.00     0.209 C 
ENDBRANCH   1  23
TORSDOF 6
ENDMDL
MODEL 5
REMARK VINA RESULT:      -6.7      4.335      5.268
REMARK  6 active torsions:
REMARK  status: ('A' for Active; 'I' for Inactive)
REMARK    1  A    between atoms: O1_2  and  C2_3 
REMARK    2  A    between atoms: C5_6  and  S1_7 
REMARK    3  A    between atoms: S1_7  and  N1_8 
REMARK    4  A    between atoms: N1_8  and  C6_9 
REMARK    5  A    between atoms: C6_9  and  C7_10 
REMARK    6  A    between atoms: C8_11  and  C9_13 
ROOT
HETATM    1  C2  UNL     1      23.752  -0.108  53.604  1.00  0.00     0.069 C 
HETATM    2  C3  UNL     1      23.010   0.924  53.135  1.00  0.00     0.035 C 
HETATM    3  C4  UNL     1      23.036   2.053  52.213  1.00  0.00     0.020 C 
HETATM    4  C5  UNL     1      23.855   2.679  51.390  1.00  0.00     0.023 C 
HETATM    5  C10 UNL     1      25.349   2.832  51.236  1.00  0.00     0.215 C 
HETATM    6  O2  UNL     1      25.912   2.133  52.309  1.00  0.00    -0.385 OA
HETATM    7  C11 UNL     1      27.320   2.294  52.303  1.00  0.00     0.187 C 
HETATM    8  C12 UNL     1      27.745   1.848  53.716  1.00  0.00     0.144 C 
HETATM    9  N2  UNL     1      27.292   0.542  53.900  1.00  0.00    -0.395 N 
HETATM   10  C13 UNL     1      27.983  -0.437  53.180  1.00  0.00     0.145 C 
HETATM   11  C14 UNL     1      26.419   0.233  54.957  1.00  0.00     0.287 C 
HETATM   12  O3  UNL     1      25.751  -0.997  54.708  1.00  0.00    -0.366 OA
HETATM   13  C15 UNL     1      24.983  -0.896  53.591  1.00  0.00     0.234 C 
ENDROOT
BRANCH   4  14
HETATM   14  S1  UNL     1      23.267   4.078  50.417  1.00  0.00    -0.022 SA
BRANCH  14  15
HETATM   15  N1  UNL     1      21.806   4.742  51.042  1.00  0.00    -0.357 N 
HETATM   16  H6  UNL     1      21.613   4.678  52.034  1.00  0.00     0.168 HD
BRANCH  15  17
HETATM   17  C6  UNL     1      20.681   4.580  50.187  1.00  0.00     0.156 C 
BRANCH  17  18
HETATM   18  C7  UNL     1      20.028   3.259  50.457  1.00  0.00     0.015 C 
HETATM   19  C8  UNL     1      19.966   1.942  50.193  1.00  0.00     0.038 C 
HETATM   20 CL1  UNL     1      18.962   0.611  50.778  1.00  0.00    -0.087 Cl
BRANCH  19  21
HETATM   21  C9  UNL     1      20.896   1.331  49.198  1.00  0.00     0.273 C 
HETATM   22  F1  UNL     1      21.543   0.232  49.708  1.00  0.00    -0.250 F 
ENDBRANCH  19  21
ENDBRANCH  17  18
ENDBRANCH  15  17
ENDBRANCH  14  15
ENDBRANCH   4  14
BRANCH   1  23
HETATM   23  O1  UNL     1      23.114  -0.893  54.580  1.00  0.00    -0.358 OA
HETATM   24  C1  UNL     1      21.703  -1.064  54.551  1.00  0.00     0.209 C 
ENDBRANCH   1  23
TORSDOF 6
ENDMDL
MODEL 6
REMARK VINA RESULT:      -6.5      4.791      8.969
REMARK  6 active torsions:
REMARK  status: ('A' for Active; 'I' for Inactive)
REMARK    1  A    between atoms: O1_2  and  C2_3 
REMARK    2  A    between atoms: C5_6  and  S1_7 
REMARK    3  A    between atoms: S1_7  and  N1_8 
REMARK    4  A    between atoms: N1_8  and  C6_9 
REMARK    5  A    between atoms: C6_9  and  C7_10 
REMARK    6  A    between atoms: C8_11  and  C9_13 
ROOT
HETATM    1  C2  UNL     1      29.447   6.777  47.621  1.00  0.00     0.069 C 
HETATM    2  C3  UNL     1      29.032   5.570  48.074  1.00  0.00     0.035 C 
HETATM    3  C4  UNL     1      27.881   4.863  48.620  1.00  0.00     0.020 C 
HETATM    4  C5  UNL     1      26.639   5.084  49.010  1.00  0.00     0.023 C 
HETATM    5  C10 UNL     1      25.836   6.267  49.492  1.00  0.00     0.215 C 
HETATM    6  O2  UNL     1      26.734   7.338  49.544  1.00  0.00    -0.385 OA
HETATM    7  C11 UNL     1      26.091   8.483  50.075  1.00  0.00     0.187 C 
HETATM    8  C12 UNL     1      27.258   9.415  50.455  1.00  0.00     0.144 C 
HETATM    9  N2  UNL     1      28.015   9.633  49.305  1.00  0.00    -0.395 N 
HETATM   10  C13 UNL     1      27.421  10.459  48.347  1.00  0.00     0.145 C 
HETATM   11  C14 UNL     1      29.378   9.293  49.274  1.00  0.00     0.287 C 
HETATM   12  O3  UNL     1      29.832   9.178  47.932  1.00  0.00    -0.366 OA
HETATM   13  C15 UNL     1      29.170   8.175  47.296  1.00  0.00     0.234 C 
ENDROOT
BRANCH   4  14
HETATM   14  S1  UNL     1      25.615   3.718  49.589  1.00  0.00    -0.022 SA
BRANCH  14  15
HETATM   15  N1  UNL     1      25.934   3.311  51.232  1.00  0.00    -0.357 N 
HETATM   16  H6  UNL     1      26.172   4.043  51.890  1.00  0.00     0.168 HD
BRANCH  15  17
HETATM   17  C6  UNL     1      26.629   2.083  51.403  1.00  0.00     0.156 C 
BRANCH  17  18
HETATM   18  C7  UNL     1      25.888   1.214  52.372  1.00  0.00     0.015 C 
HETATM   19  C8  UNL     1      25.747   0.005  52.943  1.00  0.00     0.038 C 
HETATM   20 CL1  UNL     1      24.647  -0.669  54.151  1.00  0.00    -0.087 Cl
BRANCH  19  21
HETATM   21  C9  UNL     1      26.657  -1.115  52.564  1.00  0.00     0.273 C 
HETATM   22  F1  UNL     1      27.979  -0.756  52.654  1.00  0.00    -0.250 F 
ENDBRANCH  19  21
ENDBRANCH  17  18
ENDBRANCH  15  17
ENDBRANCH  14  15
ENDBRANCH   4  14
BRANCH   1  23
HETATM   23  O1  UNL     1      30.792   6.822  47.217  1.00  0.00    -0.358 OA
HETATM   24  C1  UNL     1      31.646   5.708  47.447  1.00  0.00     0.209 C 
ENDBRANCH   1  23
TORSDOF 6
ENDMDL
MODEL 7
REMARK VINA RESULT:      -6.2      5.368      8.014
REMARK  6 active torsions:
REMARK  status: ('A' for Active; 'I' for Inactive)
REMARK    1  A    between atoms: O1_2  and  C2_3 
REMARK    2  A    between atoms: C5_6  and  S1_7 
REMARK    3  A    between atoms: S1_7  and  N1_8 
REMARK    4  A    between atoms: N1_8  and  C6_9 
REMARK    5  A    between atoms: C6_9  and  C7_10 
REMARK    6  A    between atoms: C8_11  and  C9_13 
ROOT
HETATM    1  C2  UNL     1      23.627   2.438  51.624  1.00  0.00     0.069 C 
HETATM    2  C3  UNL     1      22.590   1.576  51.743  1.00  0.00     0.035 C 
HETATM    3  C4  UNL     1      22.079   0.471  52.544  1.00  0.00     0.020 C 
HETATM    4  C5  UNL     1      22.425  -0.299  53.559  1.00  0.00     0.023 C 
HETATM    5  C10 UNL     1      23.713  -0.740  54.210  1.00  0.00     0.215 C 
HETATM    6  O2  UNL     1      24.737  -0.174  53.444  1.00  0.00    -0.385 OA
HETATM    7  C11 UNL     1      25.997  -0.607  53.925  1.00  0.00     0.187 C 
HETATM    8  C12 UNL     1      26.966  -0.264  52.778  1.00  0.00     0.144 C 
HETATM    9  N2  UNL     1      26.858   1.104  52.530  1.00  0.00    -0.395 N 
HETATM   10  C13 UNL     1      27.422   1.933  53.504  1.00  0.00     0.145 C 
HETATM   11  C14 UNL     1      26.487   1.571  51.257  1.00  0.00     0.287 C 
HETATM   12  O3  UNL     1      26.015   2.910  51.336  1.00  0.00    -0.366 OA
HETATM   13  C15 UNL     1      24.899   2.970  52.110  1.00  0.00     0.234 C 
ENDROOT
BRANCH   4  14
HETATM   14  S1  UNL     1      21.283  -1.547  54.180  1.00  0.00    -0.022 SA
BRANCH  14  15
HETATM   15  N1  UNL     1      19.649  -1.004  54.166  1.00  0.00    -0.357 N 
HETATM   16  H6  UNL     1      19.300  -0.452  54.939  1.00  0.00     0.168 HD
BRANCH  15  17
HETATM   17  C6  UNL     1      18.729  -1.940  53.618  1.00  0.00     0.156 C 
BRANCH  17  18
HETATM   18  C7  UNL     1      17.727  -1.223  52.767  1.00  0.00     0.015 C 
HETATM   19  C8  UNL     1      17.463  -0.210  51.924  1.00  0.00     0.038 C 
HETATM   20 CL1  UNL     1      16.020   0.337  51.063  1.00  0.00    -0.087 Cl
BRANCH  19  21
HETATM   21  C9  UNL     1      18.541   0.750  51.543  1.00  0.00     0.273 C 
HETATM   22  F1  UNL     1      19.288   0.291  50.487  1.00  0.00    -0.250 F 
ENDBRANCH  19  21
ENDBRANCH  17  18
ENDBRANCH  15  17
ENDBRANCH  14  15
ENDBRANCH   4  14
BRANCH   1  23
HETATM   23  O1  UNL     1      23.531   3.326  50.539  1.00  0.00    -0.358 OA
HETATM   24  C1  UNL     1      23.140   2.850  49.257  1.00  0.00     0.209 C 
ENDBRANCH   1  23
TORSDOF 6
ENDMDL
MODEL 8
REMARK VINA RESULT:      -6.0      4.337      7.906
REMARK  6 active torsions:
REMARK  status: ('A' for Active; 'I' for Inactive)
REMARK    1  A    between atoms: O1_2  and  C2_3 
REMARK    2  A    between atoms: C5_6  and  S1_7 
REMARK    3  A    between atoms: S1_7  and  N1_8 
REMARK    4  A    between atoms: N1_8  and  C6_9 
REMARK    5  A    between atoms: C6_9  and  C7_10 
REMARK    6  A    between atoms: C8_11  and  C9_13 
ROOT
HETATM    1  C2  UNL     1      25.706   5.705  48.893  1.00  0.00     0.069 C 
HETATM    2  C3  UNL     1      25.580   4.474  49.444  1.00  0.00     0.035 C 
HETATM    3  C4  UNL     1      24.603   3.459  49.815  1.00  0.00     0.020 C 
HETATM    4  C5  UNL     1      23.298   3.262  49.847  1.00  0.00     0.023 C 
HETATM    5  C10 UNL     1      22.060   4.124  49.894  1.00  0.00     0.215 C 
HETATM    6  O2  UNL     1      22.521   5.443  49.965  1.00  0.00    -0.385 OA
HETATM    7  C11 UNL     1      21.426   6.330  50.106  1.00  0.00     0.187 C 
HETATM    8  C12 UNL     1      22.077   7.644  50.581  1.00  0.00     0.144 C 
HETATM    9  N2  UNL     1      23.027   8.012  49.628  1.00  0.00    -0.395 N 
HETATM   10  C13 UNL     1      22.508   8.486  48.420  1.00  0.00     0.145 C 
HETATM   11  C14 UNL     1      24.375   8.172  49.991  1.00  0.00     0.287 C 
HETATM   12  O3  UNL     1      25.211   8.105  48.843  1.00  0.00    -0.366 OA
HETATM   13  C15 UNL     1      25.111   6.881  48.260  1.00  0.00     0.234 C 
ENDROOT
BRANCH   4  14
HETATM   14  S1  UNL     1      22.633   1.680  50.400  1.00  0.00    -0.022 SA
BRANCH  14  15
HETATM   15  N1  UNL     1      22.427   1.619  52.109  1.00  0.00    -0.357 N 
HETATM   16  H6  UNL     1      21.573   1.972  52.521  1.00  0.00     0.168 HD
BRANCH  15  17
HETATM   17  C6  UNL     1      23.615   1.874  52.848  1.00  0.00     0.156 C 
BRANCH  17  18
HETATM   18  C7  UNL     1      24.538   0.700  52.740  1.00  0.00     0.015 C 
HETATM   19  C8  UNL     1      25.790   0.246  52.556  1.00  0.00     0.038 C 
HETATM   20 CL1  UNL     1      26.525  -1.360  52.492  1.00  0.00    -0.087 Cl
BRANCH  19  21
HETATM   21  C9  UNL     1      26.914   1.206  52.347  1.00  0.00     0.273 C 
HETATM   22  F1  UNL     1      26.968   1.658  51.051  1.00  0.00    -0.250 F 
ENDBRANCH  19  21
ENDBRANCH  17  18
ENDBRANCH  15  17
ENDBRANCH  14  15
ENDBRANCH   4  14
BRANCH   1  23
HETATM   23  O1  UNL     1      27.026   6.185  48.825  1.00  0.00    -0.358 OA
HETATM   24  C1  UNL     1      28.084   5.318  48.436  1.00  0.00     0.209 C 
ENDBRANCH   1  23
TORSDOF 6
ENDMDL
MODEL 9
REMARK VINA RESULT:      -6.0      4.320      5.765
REMARK  6 active torsions:
REMARK  status: ('A' for Active; 'I' for Inactive)
REMARK    1  A    between atoms: O1_2  and  C2_3 
REMARK    2  A    between atoms: C5_6  and  S1_7 
REMARK    3  A    between atoms: S1_7  and  N1_8 
REMARK    4  A    between atoms: N1_8  and  C6_9 
REMARK    5  A    between atoms: C6_9  and  C7_10 
REMARK    6  A    between atoms: C8_11  and  C9_13 
ROOT
HETATM    1  C2  UNL     1      24.771   0.667  52.708  1.00  0.00     0.069 C 
HETATM    2  C3  UNL     1      25.085   1.637  51.816  1.00  0.00     0.035 C 
HETATM    3  C4  UNL     1      24.667   2.940  51.316  1.00  0.00     0.020 C 
HETATM    4  C5  UNL     1      23.697   3.825  51.460  1.00  0.00     0.023 C 
HETATM    5  C10 UNL     1      22.261   3.812  51.924  1.00  0.00     0.215 C 
HETATM    6  O2  UNL     1      21.969   2.473  52.207  1.00  0.00    -0.385 OA
HETATM    7  C11 UNL     1      20.605   2.343  52.567  1.00  0.00     0.187 C 
HETATM    8  C12 UNL     1      20.334   0.831  52.440  1.00  0.00     0.144 C 
HETATM    9  N2  UNL     1      21.239   0.170  53.271  1.00  0.00    -0.395 N 
HETATM   10  C13 UNL     1      20.988   0.290  54.641  1.00  0.00     0.145 C 
HETATM   11  C14 UNL     1      22.131  -0.778  52.742  1.00  0.00     0.287 C 
HETATM   12  O3  UNL     1      23.219  -0.989  53.632  1.00  0.00    -0.366 OA
HETATM   13  C15 UNL     1      23.927   0.161  53.788  1.00  0.00     0.234 C 
ENDROOT
BRANCH   4  14
HETATM   14  S1  UNL     1      23.747   5.379  50.549  1.00  0.00    -0.022 SA
BRANCH  14  15
HETATM   15  N1  UNL     1      24.137   5.151  48.886  1.00  0.00    -0.357 N 
HETATM   16  H6  UNL     1      25.061   5.394  48.553  1.00  0.00     0.168 HD
BRANCH  15  17
HETATM   17  C6  UNL     1      23.068   5.440  47.993  1.00  0.00     0.156 C 
BRANCH  17  18
HETATM   18  C7  UNL     1      21.917   4.525  48.273  1.00  0.00     0.015 C 
HETATM   19  C8  UNL     1      21.471   3.265  48.428  1.00  0.00     0.038 C 
HETATM   20 CL1  UNL     1      19.896   2.547  48.782  1.00  0.00    -0.087 Cl
BRANCH  19  21
HETATM   21  C9  UNL     1      22.413   2.115  48.298  1.00  0.00     0.273 C 
HETATM   22  F1  UNL     1      22.323   1.254  49.363  1.00  0.00    -0.250 F 
ENDBRANCH  19  21
ENDBRANCH  17  18
ENDBRANCH  15  17
ENDBRANCH  14  15
ENDBRANCH   4  14
BRANCH   1  23
HETATM   23  O1  UNL     1      25.627  -0.448  52.688  1.00  0.00    -0.358 OA
HETATM   24  C1  UNL     1      27.019  -0.287  52.929  1.00  0.00     0.209 C 
ENDBRANCH   1  23
TORSDOF 6
ENDMDL
