MODEL 1
REMARK VINA RESULT:      -7.9      0.000      0.000
REMARK  7 active torsions:
REMARK  status: ('A' for Active; 'I' for Inactive)
REMARK    1  A    between atoms: C3_3  and  O1_4 
REMARK    2  A    between atoms: C8_9  and  C9_10 
REMARK    3  A    between atoms: C8_9  and  N1_12 
REMARK    4  A    between atoms: N1_12  and  C10_13 
REMARK    5  A    between atoms: N1_12  and  C11_15 
REMARK    6  A    between atoms: C11_15  and  C12_16 
REMARK    7  A    between atoms: C12_16  and  C13_17 
ROOT
HETATM    1  C1  UNL     1      28.649   0.052  54.926  1.00  0.00     0.022 C 
HETATM    2  C2  UNL     1      28.831  -0.230  53.420  1.00  0.00     0.073 A 
HETATM    3  C3  UNL     1      29.017  -1.707  53.356  1.00  0.00     0.051 A 
HETATM    4  C4  UNL     1      28.335  -2.783  52.911  1.00  0.00     0.033 A 
HETATM    5  C5  UNL     1      27.077  -2.324  52.339  1.00  0.00     0.003 A 
HETATM    6  C6  UNL     1      26.731  -1.053  52.296  1.00  0.00     0.010 A 
HETATM    7  C7  UNL     1      27.515   0.063  52.790  1.00  0.00    -0.018 A 
HETATM    8  C8  UNL     1      27.014   1.243  52.566  1.00  0.00     0.081 C 
ENDROOT
BRANCH   8   9
HETATM    9  C9  UNL     1      28.090   2.190  53.079  1.00  0.00     0.288 C 
HETATM   10  O2  UNL     1      28.148   2.934  54.062  1.00  0.00    -0.300 OA
ENDBRANCH   8   9
BRANCH   8  11
HETATM   11  N1  UNL     1      25.919   2.081  52.242  1.00  0.00    -0.322 N 
BRANCH  11  12
HETATM   12  C10 UNL     1      25.912   2.958  51.129  1.00  0.00     0.355 C 
HETATM   13  O3  UNL     1      26.000   3.898  50.337  1.00  0.00    -0.283 OA
ENDBRANCH  11  12
BRANCH  11  14
HETATM   14  C11 UNL     1      24.744   2.224  53.083  1.00  0.00     0.136 C 
BRANCH  14  15
HETATM   15  C12 UNL     1      23.523   1.722  52.299  1.00  0.00     0.058 C 
BRANCH  15  16
HETATM   16  C13 UNL     1      22.699   0.760  53.089  1.00  0.00    -0.057 A 
HETATM   17  C14 UNL     1      23.525  -0.180  53.747  1.00  0.00     0.007 A 
HETATM   18  C15 UNL     1      22.747  -1.068  54.505  1.00  0.00     0.001 A 
HETATM   19  C16 UNL     1      21.400  -1.158  54.692  1.00  0.00     0.000 A 
HETATM   20  C17 UNL     1      20.683  -0.176  53.993  1.00  0.00     0.001 A 
HETATM   21  C18 UNL     1      21.338   0.778  53.196  1.00  0.00     0.007 A 
ENDBRANCH  15  16
ENDBRANCH  14  15
ENDBRANCH  11  14
ENDBRANCH   8  11
BRANCH   3  22
HETATM   22  O1  UNL     1      30.272  -1.934  53.947  1.00  0.00    -0.364 OA
HETATM   23  H5  UNL     1      30.764  -1.226  54.455  1.00  0.00     0.217 HD
ENDBRANCH   3  22
TORSDOF 7
ENDMDL
MODEL 2
REMARK VINA RESULT:      -7.6      2.956      5.971
REMARK  7 active torsions:
REMARK  status: ('A' for Active; 'I' for Inactive)
REMARK    1  A    between atoms: C3_3  and  O1_4 
REMARK    2  A    between atoms: C8_9  and  C9_10 
REMARK    3  A    between atoms: C8_9  and  N1_12 
REMARK    4  A    between atoms: N1_12  and  C10_13 
REMARK    5  A    between atoms: N1_12  and  C11_15 
REMARK    6  A    between atoms: C11_15  and  C12_16 
REMARK    7  A    between atoms: C12_16  and  C13_17 
ROOT
HETATM    1  C1  UNL     1      20.135   0.091  51.692  1.00  0.00     0.022 C 
HETATM    2  C2  UNL     1      20.599   0.533  53.097  1.00  0.00     0.073 A 
HETATM    3  C3  UNL     1      20.669  -0.743  53.863  1.00  0.00     0.051 A 
HETATM    4  C4  UNL     1      21.618  -1.535  54.404  1.00  0.00     0.033 A 
HETATM    5  C5  UNL     1      22.918  -0.934  54.145  1.00  0.00     0.003 A 
HETATM    6  C6  UNL     1      23.066   0.198  53.487  1.00  0.00     0.010 A 
HETATM    7  C7  UNL     1      21.999   1.009  52.931  1.00  0.00    -0.018 A 
HETATM    8  C8  UNL     1      22.371   2.134  52.394  1.00  0.00     0.081 C 
ENDROOT
BRANCH   8   9
HETATM    9  C9  UNL     1      21.056   2.801  52.017  1.00  0.00     0.288 C 
HETATM   10  O2  UNL     1      20.324   3.600  52.610  1.00  0.00    -0.300 OA
ENDBRANCH   8   9
BRANCH   8  11
HETATM   11  N1  UNL     1      23.372   2.969  51.839  1.00  0.00    -0.322 N 
BRANCH  11  12
HETATM   12  C10 UNL     1      23.485   4.351  52.132  1.00  0.00     0.355 C 
HETATM   13  O3  UNL     1      23.560   5.580  52.122  1.00  0.00    -0.283 OA
ENDBRANCH  11  12
BRANCH  11  14
HETATM   14  C11 UNL     1      24.306   2.528  50.818  1.00  0.00     0.136 C 
BRANCH  14  15
HETATM   15  C12 UNL     1      25.733   2.727  51.348  1.00  0.00     0.058 C 
BRANCH  15  16
HETATM   16  C13 UNL     1      26.176   1.597  52.218  1.00  0.00    -0.057 A 
HETATM   17  C14 UNL     1      26.251   2.008  53.568  1.00  0.00     0.007 A 
HETATM   18  C15 UNL     1      26.648   0.938  54.384  1.00  0.00     0.001 A 
HETATM   19  C16 UNL     1      26.953  -0.358  54.091  1.00  0.00     0.000 A 
HETATM   20  C17 UNL     1      26.844  -0.651  52.724  1.00  0.00     0.001 A 
HETATM   21  C18 UNL     1      26.455   0.329  51.795  1.00  0.00     0.007 A 
ENDBRANCH  15  16
ENDBRANCH  14  15
ENDBRANCH  11  14
ENDBRANCH   8  11
BRANCH   3  22
HETATM   22  O1  UNL     1      19.330  -1.146  54.006  1.00  0.00    -0.364 OA
HETATM   23  H5  UNL     1      19.053  -2.108  54.001  1.00  0.00     0.217 HD
ENDBRANCH   3  22
TORSDOF 7
ENDMDL
MODEL 3
REMARK VINA RESULT:      -7.4      2.784      5.812
REMARK  7 active torsions:
REMARK  status: ('A' for Active; 'I' for Inactive)
REMARK    1  A    between atoms: C3_3  and  O1_4 
REMARK    2  A    between atoms: C8_9  and  C9_10 
REMARK    3  A    between atoms: C8_9  and  N1_12 
REMARK    4  A    between atoms: N1_12  and  C10_13 
REMARK    5  A    between atoms: N1_12  and  C11_15 
REMARK    6  A    between atoms: C11_15  and  C12_16 
REMARK    7  A    between atoms: C12_16  and  C13_17 
ROOT
HETATM    1  C1  UNL     1      26.863  -0.608  51.959  1.00  0.00     0.022 C 
HETATM    2  C2  UNL     1      26.704   0.245  53.236  1.00  0.00     0.073 A 
HETATM    3  C3  UNL     1      28.058   0.209  53.856  1.00  0.00     0.051 A 
HETATM    4  C4  UNL     1      29.080   1.062  54.079  1.00  0.00     0.033 A 
HETATM    5  C5  UNL     1      28.709   2.368  53.555  1.00  0.00     0.003 A 
HETATM    6  C6  UNL     1      27.550   2.605  52.974  1.00  0.00     0.010 A 
HETATM    7  C7  UNL     1      26.485   1.640  52.768  1.00  0.00    -0.018 A 
HETATM    8  C8  UNL     1      25.391   2.116  52.248  1.00  0.00     0.081 C 
ENDROOT
BRANCH   8   9
HETATM    9  C9  UNL     1      24.443   0.925  52.263  1.00  0.00     0.288 C 
HETATM   10  O2  UNL     1      23.213   0.836  52.200  1.00  0.00    -0.300 OA
ENDBRANCH   8   9
BRANCH   8  11
HETATM   11  N1  UNL     1      24.697   3.122  51.531  1.00  0.00    -0.322 N 
BRANCH  11  12
HETATM   12  C10 UNL     1      23.833   4.061  52.147  1.00  0.00     0.355 C 
HETATM   13  O3  UNL     1      23.251   5.057  52.581  1.00  0.00    -0.283 OA
ENDBRANCH  11  12
BRANCH  11  14
HETATM   14  C11 UNL     1      24.698   3.217  50.082  1.00  0.00     0.136 C 
BRANCH  14  15
HETATM   15  C12 UNL     1      26.152   3.351  49.607  1.00  0.00     0.058 C 
BRANCH  15  16
HETATM   16  C13 UNL     1      26.452   4.714  49.079  1.00  0.00    -0.057 A 
HETATM   17  C14 UNL     1      27.806   4.808  48.683  1.00  0.00     0.007 A 
HETATM   18  C15 UNL     1      28.078   6.084  48.168  1.00  0.00     0.001 A 
HETATM   19  C16 UNL     1      27.285   7.180  48.001  1.00  0.00     0.000 A 
HETATM   20  C17 UNL     1      25.965   6.972  48.428  1.00  0.00     0.001 A 
HETATM   21  C18 UNL     1      25.557   5.739  48.963  1.00  0.00     0.007 A 
ENDBRANCH  15  16
ENDBRANCH  14  15
ENDBRANCH  11  14
ENDBRANCH   8  11
BRANCH   3  22
HETATM   22  O1  UNL     1      28.214  -1.118  54.293  1.00  0.00    -0.364 OA
HETATM   23  H5  UNL     1      27.560  -1.840  54.066  1.00  0.00     0.217 HD
ENDBRANCH   3  22
TORSDOF 7
ENDMDL
MODEL 4
REMARK VINA RESULT:      -7.3      2.913      6.134
REMARK  7 active torsions:
REMARK  status: ('A' for Active; 'I' for Inactive)
REMARK    1  A    between atoms: C3_3  and  O1_4 
REMARK    2  A    between atoms: C8_9  and  C9_10 
REMARK    3  A    between atoms: C8_9  and  N1_12 
REMARK    4  A    between atoms: N1_12  and  C10_13 
REMARK    5  A    between atoms: N1_12  and  C11_15 
REMARK    6  A    between atoms: C11_15  and  C12_16 
REMARK    7  A    between atoms: C12_16  and  C13_17 
ROOT
HETATM    1  C1  UNL     1      21.056   0.244  55.016  1.00  0.00     0.022 C 
HETATM    2  C2  UNL     1      21.226  -0.702  53.808  1.00  0.00     0.073 A 
HETATM    3  C3  UNL     1      20.062  -0.376  52.937  1.00  0.00     0.051 A 
HETATM    4  C4  UNL     1      19.838   0.211  51.743  1.00  0.00     0.033 A 
HETATM    5  C5  UNL     1      21.120   0.620  51.186  1.00  0.00     0.003 A 
HETATM    6  C6  UNL     1      22.267   0.415  51.802  1.00  0.00     0.010 A 
HETATM    7  C7  UNL     1      22.441  -0.230  53.090  1.00  0.00    -0.018 A 
HETATM    8  C8  UNL     1      23.674  -0.402  53.468  1.00  0.00     0.081 C 
ENDROOT
BRANCH   8   9
HETATM    9  C9  UNL     1      23.542  -1.189  54.765  1.00  0.00     0.288 C 
HETATM   10  O2  UNL     1      24.239  -1.245  55.783  1.00  0.00    -0.300 OA
ENDBRANCH   8   9
BRANCH   8  11
HETATM   11  N1  UNL     1      25.053  -0.089  53.373  1.00  0.00    -0.322 N 
BRANCH  11  12
HETATM   12  C10 UNL     1      26.046  -1.042  53.035  1.00  0.00     0.355 C 
HETATM   13  O3  UNL     1      26.823  -1.996  52.960  1.00  0.00    -0.283 OA
ENDBRANCH  11  12
BRANCH  11  14
HETATM   14  C11 UNL     1      25.607   1.203  53.735  1.00  0.00     0.136 C 
BRANCH  14  15
HETATM   15  C12 UNL     1      26.017   1.931  52.447  1.00  0.00     0.058 C 
BRANCH  15  16
HETATM   16  C13 UNL     1      24.899   2.736  51.871  1.00  0.00    -0.057 A 
HETATM   17  C14 UNL     1      24.132   3.329  52.900  1.00  0.00     0.007 A 
HETATM   18  C15 UNL     1      23.095   4.101  52.354  1.00  0.00     0.001 A 
HETATM   19  C16 UNL     1      22.737   4.352  51.063  1.00  0.00     0.000 A 
HETATM   20  C17 UNL     1      23.567   3.713  50.130  1.00  0.00     0.001 A 
HETATM   21  C18 UNL     1      24.644   2.909  50.541  1.00  0.00     0.007 A 
ENDBRANCH  15  16
ENDBRANCH  14  15
ENDBRANCH  11  14
ENDBRANCH   8  11
BRANCH   3  22
HETATM   22  O1  UNL     1      18.944  -0.849  53.646  1.00  0.00    -0.364 OA
HETATM   23  H5  UNL     1      19.015  -1.245  54.562  1.00  0.00     0.217 HD
ENDBRANCH   3  22
TORSDOF 7
ENDMDL
MODEL 5
REMARK VINA RESULT:      -7.1      2.248      5.596
REMARK  7 active torsions:
REMARK  status: ('A' for Active; 'I' for Inactive)
REMARK    1  A    between atoms: C3_3  and  O1_4 
REMARK    2  A    between atoms: C8_9  and  C9_10 
REMARK    3  A    between atoms: C8_9  and  N1_12 
REMARK    4  A    between atoms: N1_12  and  C10_13 
REMARK    5  A    between atoms: N1_12  and  C11_15 
REMARK    6  A    between atoms: C11_15  and  C12_16 
REMARK    7  A    between atoms: C12_16  and  C13_17 
ROOT
HETATM    1  C1  UNL     1      23.562   3.319  49.151  1.00  0.00     0.022 C 
HETATM    2  C2  UNL     1      24.050   4.363  50.177  1.00  0.00     0.073 A 
HETATM    3  C3  UNL     1      22.860   5.236  50.387  1.00  0.00     0.051 A 
HETATM    4  C4  UNL     1      21.972   5.499  51.368  1.00  0.00     0.033 A 
HETATM    5  C5  UNL     1      22.313   4.684  52.525  1.00  0.00     0.003 A 
HETATM    6  C6  UNL     1      23.334   3.852  52.540  1.00  0.00     0.010 A 
HETATM    7  C7  UNL     1      24.260   3.616  51.447  1.00  0.00    -0.018 A 
HETATM    8  C8  UNL     1      25.248   2.812  51.713  1.00  0.00     0.081 C 
ENDROOT
BRANCH   8   9
HETATM    9  C9  UNL     1      26.092   2.855  50.447  1.00  0.00     0.288 C 
HETATM   10  O2  UNL     1      27.175   3.386  50.183  1.00  0.00    -0.300 OA
ENDBRANCH   8   9
BRANCH   8  11
HETATM   11  N1  UNL     1      25.841   1.802  52.510  1.00  0.00    -0.322 N 
BRANCH  11  12
HETATM   12  C10 UNL     1      26.902   2.048  53.416  1.00  0.00     0.355 C 
HETATM   13  O3  UNL     1      27.744   2.517  54.184  1.00  0.00    -0.283 OA
ENDBRANCH  11  12
BRANCH  11  14
HETATM   14  C11 UNL     1      25.513   0.393  52.391  1.00  0.00     0.136 C 
BRANCH  14  15
HETATM   15  C12 UNL     1      24.878  -0.070  53.710  1.00  0.00     0.058 C 
BRANCH  15  16
HETATM   16  C13 UNL     1      23.400  -0.247  53.595  1.00  0.00    -0.057 A 
HETATM   17  C14 UNL     1      22.904  -1.005  54.680  1.00  0.00     0.007 A 
HETATM   18  C15 UNL     1      21.513  -1.151  54.580  1.00  0.00     0.001 A 
HETATM   19  C16 UNL     1      20.621  -0.701  53.653  1.00  0.00     0.000 A 
HETATM   20  C17 UNL     1      21.224   0.038  52.624  1.00  0.00     0.001 A 
HETATM   21  C18 UNL     1      22.611   0.261  52.603  1.00  0.00     0.007 A 
ENDBRANCH  15  16
ENDBRANCH  14  15
ENDBRANCH  11  14
ENDBRANCH   8  11
BRANCH   3  22
HETATM   22  O1  UNL     1      22.709   5.928  49.172  1.00  0.00    -0.364 OA
HETATM   23  H5  UNL     1      23.321   5.789  48.393  1.00  0.00     0.217 HD
ENDBRANCH   3  22
TORSDOF 7
ENDMDL
MODEL 6
REMARK VINA RESULT:      -7.0      4.275      7.061
REMARK  7 active torsions:
REMARK  status: ('A' for Active; 'I' for Inactive)
REMARK    1  A    between atoms: C3_3  and  O1_4 
REMARK    2  A    between atoms: C8_9  and  C9_10 
REMARK    3  A    between atoms: C8_9  and  N1_12 
REMARK    4  A    between atoms: N1_12  and  C10_13 
REMARK    5  A    between atoms: N1_12  and  C11_15 
REMARK    6  A    between atoms: C11_15  and  C12_16 
REMARK    7  A    between atoms: C12_16  and  C13_17 
ROOT
HETATM    1  C1  UNL     1      19.958   0.197  51.616  1.00  0.00     0.022 C 
HETATM    2  C2  UNL     1      20.359   0.560  53.062  1.00  0.00     0.073 A 
HETATM    3  C3  UNL     1      20.284  -0.739  53.786  1.00  0.00     0.051 A 
HETATM    4  C4  UNL     1      21.134  -1.617  54.358  1.00  0.00     0.033 A 
HETATM    5  C5  UNL     1      22.490  -1.110  54.203  1.00  0.00     0.003 A 
HETATM    6  C6  UNL     1      22.764   0.027  53.596  1.00  0.00     0.010 A 
HETATM    7  C7  UNL     1      21.798   0.933  53.002  1.00  0.00    -0.018 A 
HETATM    8  C8  UNL     1      22.287   2.042  52.529  1.00  0.00     0.081 C 
ENDROOT
BRANCH   8   9
HETATM    9  C9  UNL     1      21.052   2.818  52.093  1.00  0.00     0.288 C 
HETATM   10  O2  UNL     1      20.329   3.633  52.674  1.00  0.00    -0.300 OA
ENDBRANCH   8   9
BRANCH   8  11
HETATM   11  N1  UNL     1      23.382   2.815  52.068  1.00  0.00    -0.322 N 
BRANCH  11  12
HETATM   12  C10 UNL     1      23.640   4.138  52.506  1.00  0.00     0.355 C 
HETATM   13  O3  UNL     1      23.658   5.350  52.729  1.00  0.00    -0.283 OA
ENDBRANCH  11  12
BRANCH  11  14
HETATM   14  C11 UNL     1      24.277   2.383  51.009  1.00  0.00     0.136 C 
BRANCH  14  15
HETATM   15  C12 UNL     1      23.929   3.163  49.734  1.00  0.00     0.058 C 
BRANCH  15  16
HETATM   16  C13 UNL     1      25.005   4.123  49.346  1.00  0.00    -0.057 A 
HETATM   17  C14 UNL     1      26.273   3.503  49.413  1.00  0.00     0.007 A 
HETATM   18  C15 UNL     1      27.278   4.402  49.027  1.00  0.00     0.001 A 
HETATM   19  C16 UNL     1      27.222   5.702  48.623  1.00  0.00     0.000 A 
HETATM   20  C17 UNL     1      25.915   6.212  48.594  1.00  0.00     0.001 A 
HETATM   21  C18 UNL     1      24.814   5.418  48.956  1.00  0.00     0.007 A 
ENDBRANCH  15  16
ENDBRANCH  14  15
ENDBRANCH  11  14
ENDBRANCH   8  11
BRANCH   3  22
HETATM   22  O1  UNL     1      18.912  -1.044  53.829  1.00  0.00    -0.364 OA
HETATM   23  H5  UNL     1      18.398  -1.331  53.020  1.00  0.00     0.217 HD
ENDBRANCH   3  22
TORSDOF 7
ENDMDL
MODEL 7
REMARK VINA RESULT:      -7.0      2.088      3.254
REMARK  7 active torsions:
REMARK  status: ('A' for Active; 'I' for Inactive)
REMARK    1  A    between atoms: C3_3  and  O1_4 
REMARK    2  A    between atoms: C8_9  and  C9_10 
REMARK    3  A    between atoms: C8_9  and  N1_12 
REMARK    4  A    between atoms: N1_12  and  C10_13 
REMARK    5  A    between atoms: N1_12  and  C11_15 
REMARK    6  A    between atoms: C11_15  and  C12_16 
REMARK    7  A    between atoms: C12_16  and  C13_17 
ROOT
HETATM    1  C1  UNL     1      27.536   2.115  52.934  1.00  0.00     0.022 C 
HETATM    2  C2  UNL     1      26.792   1.080  52.064  1.00  0.00     0.073 A 
HETATM    3  C3  UNL     1      26.622  -0.089  52.972  1.00  0.00     0.051 A 
HETATM    4  C4  UNL     1      25.616  -0.723  53.610  1.00  0.00     0.033 A 
HETATM    5  C5  UNL     1      24.369  -0.043  53.289  1.00  0.00     0.003 A 
HETATM    6  C6  UNL     1      24.310   1.009  52.497  1.00  0.00     0.010 A 
HETATM    7  C7  UNL     1      25.434   1.644  51.834  1.00  0.00    -0.018 A 
HETATM    8  C8  UNL     1      25.131   2.620  51.029  1.00  0.00     0.081 C 
ENDROOT
BRANCH   8   9
HETATM    9  C9  UNL     1      26.469   2.996  50.408  1.00  0.00     0.288 C 
HETATM   10  O2  UNL     1      26.780   3.431  49.295  1.00  0.00    -0.300 OA
ENDBRANCH   8   9
BRANCH   8  11
HETATM   11  N1  UNL     1      24.227   3.607  50.567  1.00  0.00    -0.322 N 
BRANCH  11  12
HETATM   12  C10 UNL     1      24.112   4.893  51.152  1.00  0.00     0.355 C 
HETATM   13  O3  UNL     1      23.870   5.881  51.847  1.00  0.00    -0.283 OA
ENDBRANCH  11  12
BRANCH  11  14
HETATM   14  C11 UNL     1      23.238   3.365  49.532  1.00  0.00     0.136 C 
BRANCH  14  15
HETATM   15  C12 UNL     1      21.845   3.618  50.125  1.00  0.00     0.058 C 
BRANCH  15  16
HETATM   16  C13 UNL     1      21.382   2.490  50.985  1.00  0.00    -0.057 A 
HETATM   17  C14 UNL     1      21.412   1.272  50.268  1.00  0.00     0.007 A 
HETATM   18  C15 UNL     1      20.995   0.212  51.087  1.00  0.00     0.001 A 
HETATM   19  C16 UNL     1      20.592   0.178  52.388  1.00  0.00     0.000 A 
HETATM   20  C17 UNL     1      20.603   1.441  52.998  1.00  0.00     0.001 A 
HETATM   21  C18 UNL     1      20.998   2.590  52.292  1.00  0.00     0.007 A 
ENDBRANCH  15  16
ENDBRANCH  14  15
ENDBRANCH  11  14
ENDBRANCH   8  11
BRANCH   3  22
HETATM   22  O1  UNL     1      27.922  -0.594  53.149  1.00  0.00    -0.364 OA
HETATM   23  H5  UNL     1      28.660  -0.422  52.497  1.00  0.00     0.217 HD
ENDBRANCH   3  22
TORSDOF 7
ENDMDL
MODEL 8
REMARK VINA RESULT:      -7.0      3.399      6.336
REMARK  7 active torsions:
REMARK  status: ('A' for Active; 'I' for Inactive)
REMARK    1  A    between atoms: C3_3  and  O1_4 
REMARK    2  A    between atoms: C8_9  and  C9_10 
REMARK    3  A    between atoms: C8_9  and  N1_12 
REMARK    4  A    between atoms: N1_12  and  C10_13 
REMARK    5  A    between atoms: N1_12  and  C11_15 
REMARK    6  A    between atoms: C11_15  and  C12_16 
REMARK    7  A    between atoms: C12_16  and  C13_17 
ROOT
HETATM    1  C1  UNL     1      24.444   6.293  50.821  1.00  0.00     0.022 C 
HETATM    2  C2  UNL     1      24.513   5.422  49.549  1.00  0.00     0.073 A 
HETATM    3  C3  UNL     1      25.881   5.680  49.018  1.00  0.00     0.051 A 
HETATM    4  C4  UNL     1      27.043   5.008  48.874  1.00  0.00     0.033 A 
HETATM    5  C5  UNL     1      26.859   3.660  49.392  1.00  0.00     0.003 A 
HETATM    6  C6  UNL     1      25.719   3.236  49.899  1.00  0.00     0.010 A 
HETATM    7  C7  UNL     1      24.498   4.011  50.022  1.00  0.00    -0.018 A 
HETATM    8  C8  UNL     1      23.466   3.362  50.477  1.00  0.00     0.081 C 
ENDROOT
BRANCH   8   9
HETATM    9  C9  UNL     1      22.337   4.379  50.382  1.00  0.00     0.288 C 
HETATM   10  O2  UNL     1      21.416   4.678  51.148  1.00  0.00    -0.300 OA
ENDBRANCH   8   9
BRANCH   8  11
HETATM   11  N1  UNL     1      22.902   2.257  51.161  1.00  0.00    -0.322 N 
BRANCH  11  12
HETATM   12  C10 UNL     1      22.067   1.298  50.536  1.00  0.00     0.355 C 
HETATM   13  O3  UNL     1      21.297   0.660  49.815  1.00  0.00    -0.283 OA
ENDBRANCH  11  12
BRANCH  11  14
HETATM   14  C11 UNL     1      23.016   2.061  52.595  1.00  0.00     0.136 C 
BRANCH  14  15
HETATM   15  C12 UNL     1      23.775   0.751  52.846  1.00  0.00     0.058 C 
BRANCH  15  16
HETATM   16  C13 UNL     1      25.246   0.966  52.983  1.00  0.00    -0.057 A 
HETATM   17  C14 UNL     1      25.957  -0.187  52.580  1.00  0.00     0.007 A 
HETATM   18  C15 UNL     1      27.339   0.027  52.690  1.00  0.00     0.001 A 
HETATM   19  C16 UNL     1      28.057   1.111  53.101  1.00  0.00     0.000 A 
HETATM   20  C17 UNL     1      27.248   2.194  53.476  1.00  0.00     0.001 A 
HETATM   21  C18 UNL     1      25.847   2.115  53.413  1.00  0.00     0.007 A 
ENDBRANCH  15  16
ENDBRANCH  14  15
ENDBRANCH  11  14
ENDBRANCH   8  11
BRANCH   3  22
HETATM   22  O1  UNL     1      25.845   7.013  48.573  1.00  0.00    -0.364 OA
HETATM   23  H5  UNL     1      25.177   7.339  47.904  1.00  0.00     0.217 HD
ENDBRANCH   3  22
TORSDOF 7
ENDMDL
MODEL 9
REMARK VINA RESULT:      -7.0      2.751      6.519
REMARK  7 active torsions:
REMARK  status: ('A' for Active; 'I' for Inactive)
REMARK    1  A    between atoms: C3_3  and  O1_4 
REMARK    2  A    between atoms: C8_9  and  C9_10 
REMARK    3  A    between atoms: C8_9  and  N1_12 
REMARK    4  A    between atoms: N1_12  and  C10_13 
REMARK    5  A    between atoms: N1_12  and  C11_15 
REMARK    6  A    between atoms: C11_15  and  C12_16 
REMARK    7  A    between atoms: C12_16  and  C13_17 
ROOT
HETATM    1  C1  UNL     1      25.116   3.267  49.767  1.00  0.00     0.022 C 
HETATM    2  C2  UNL     1      23.621   3.466  50.091  1.00  0.00     0.073 A 
HETATM    3  C3  UNL     1      22.969   3.491  48.751  1.00  0.00     0.051 A 
HETATM    4  C4  UNL     1      22.140   2.711  48.026  1.00  0.00     0.033 A 
HETATM    5  C5  UNL     1      21.817   1.530  48.813  1.00  0.00     0.003 A 
HETATM    6  C6  UNL     1      22.291   1.325  50.026  1.00  0.00     0.010 A 
HETATM    7  C7  UNL     1      23.179   2.210  50.757  1.00  0.00    -0.018 A 
HETATM    8  C8  UNL     1      23.452   1.848  51.976  1.00  0.00     0.081 C 
ENDROOT
BRANCH   8   9
HETATM    9  C9  UNL     1      24.286   3.004  52.512  1.00  0.00     0.288 C 
HETATM   10  O2  UNL     1      24.118   3.791  53.448  1.00  0.00    -0.300 OA
ENDBRANCH   8   9
BRANCH   8  11
HETATM   11  N1  UNL     1      23.506   0.862  52.992  1.00  0.00    -0.322 N 
BRANCH  11  12
HETATM   12  C10 UNL     1      22.358   0.378  53.669  1.00  0.00     0.355 C 
HETATM   13  O3  UNL     1      21.534  -0.092  54.455  1.00  0.00    -0.283 OA
ENDBRANCH  11  12
BRANCH  11  14
HETATM   14  C11 UNL     1      24.747   0.337  53.533  1.00  0.00     0.136 C 
BRANCH  14  15
HETATM   15  C12 UNL     1      25.670  -0.027  52.361  1.00  0.00     0.058 C 
BRANCH  15  16
HETATM   16  C13 UNL     1      27.094  -0.166  52.785  1.00  0.00    -0.057 A 
HETATM   17  C14 UNL     1      27.663   1.102  53.040  1.00  0.00     0.007 A 
HETATM   18  C15 UNL     1      28.996   0.966  53.458  1.00  0.00     0.001 A 
HETATM   19  C16 UNL     1      29.777  -0.135  53.644  1.00  0.00     0.000 A 
HETATM   20  C17 UNL     1      29.108  -1.336  53.361  1.00  0.00     0.001 A 
HETATM   21  C18 UNL     1      27.770  -1.343  52.934  1.00  0.00     0.007 A 
ENDBRANCH  15  16
ENDBRANCH  14  15
ENDBRANCH  11  14
ENDBRANCH   8  11
BRANCH   3  22
HETATM   22  O1  UNL     1      23.402   4.694  48.168  1.00  0.00    -0.364 OA
HETATM   23  H5  UNL     1      24.369   4.902  48.016  1.00  0.00     0.217 HD
ENDBRANCH   3  22
TORSDOF 7
ENDMDL
