MODEL 1
REMARK VINA RESULT:      -9.4      0.000      0.000
REMARK  5 active torsions:
REMARK  status: ('A' for Active; 'I' for Inactive)
REMARK       I    between atoms: C2_2  and  N1_4 
REMARK    1  A    between atoms: N1_4  and  C3_5 
REMARK    2  A    between atoms: C8_12  and  N4_13 
REMARK    3  A    between atoms: C11_16  and  O2_17 
REMARK    4  A    between atoms: O2_17  and  C12_18 
REMARK    5  A    between atoms: C12_18  and  C13_19 
ROOT
HETATM    1  N4  UNL     1      22.095   2.066  51.431  1.00  0.00    -0.314 N 
HETATM    2  C9  UNL     1      21.904   3.448  51.809  1.00  0.00     0.113 C 
HETATM    3  C10 UNL     1      21.330   4.211  50.886  1.00  0.00     0.029 C 
HETATM    4  C11 UNL     1      21.965   4.265  49.742  1.00  0.00     0.104 C 
HETATM    5  C19 UNL     1      22.154   2.899  49.213  1.00  0.00     0.084 C 
HETATM    6 CL1  UNL     1      22.310   2.471  47.508  1.00  0.00    -0.080 Cl
HETATM    7  C20 UNL     1      22.221   1.824  50.007  1.00  0.00     0.124 C 
ENDROOT
BRANCH   1   8
HETATM    8  C8  UNL     1      22.161   1.120  52.482  1.00  0.00     0.147 A 
HETATM    9  N3  UNL     1      20.918   0.848  52.936  1.00  0.00    -0.223 NA
HETATM   10  C7  UNL     1      20.748  -0.032  53.967  1.00  0.00     0.236 A 
HETATM   11  N2  UNL     1      21.862  -0.581  54.475  1.00  0.00    -0.241 NA
HETATM   12  C6  UNL     1      23.113  -0.338  54.055  1.00  0.00     0.072 A 
HETATM   13  C5  UNL     1      24.207  -0.942  54.643  1.00  0.00     0.035 A 
HETATM   14  C21 UNL     1      23.291   0.548  53.013  1.00  0.00     0.041 A 
HETATM   15  C4  UNL     1      25.449  -0.621  54.150  1.00  0.00     0.032 A 
HETATM   16  C3  UNL     1      25.568   0.270  53.108  1.00  0.00     0.035 A 
HETATM   17  C22 UNL     1      24.511   0.896  52.489  1.00  0.00     0.047 A 
BRANCH  16  18
HETATM   18  N1  UNL     1      26.894   0.544  52.680  1.00  0.00    -0.327 N 
HETATM   19  C2  UNL     1      27.354   1.654  53.476  1.00  0.00     0.218 C 
HETATM   20  C1  UNL     1      28.613   2.422  53.545  1.00  0.00     0.117 C 
HETATM   21  O1  UNL     1      26.553   2.147  54.348  1.00  0.00    -0.274 OA
HETATM   22  H4  UNL     1      27.682   0.283  52.040  1.00  0.00     0.169 HD
ENDBRANCH  16  18
ENDBRANCH   1   8
BRANCH   4  23
HETATM   23  O2  UNL     1      22.507   5.241  48.896  1.00  0.00    -0.344 OA
BRANCH  23  24
HETATM   24  C12 UNL     1      23.531   6.109  49.338  1.00  0.00     0.214 C 
BRANCH  24  25
HETATM   25  C13 UNL     1      24.895   5.571  49.188  1.00  0.00    -0.031 A 
HETATM   26  C14 UNL     1      25.848   6.414  48.604  1.00  0.00     0.009 A 
HETATM   27  C15 UNL     1      27.131   5.899  48.454  1.00  0.00     0.004 A 
HETATM   28  C16 UNL     1      27.516   4.639  48.835  1.00  0.00     0.042 A 
HETATM   29  C17 UNL     1      26.563   3.807  49.416  1.00  0.00     0.117 A 
HETATM   30  F1  UNL     1      26.835   2.546  49.826  1.00  0.00    -0.206 F 
HETATM   31  C18 UNL     1      25.266   4.304  49.577  1.00  0.00     0.051 A 
ENDBRANCH  24  25
ENDBRANCH  23  24
ENDBRANCH   4  23
TORSDOF 5
ENDMDL
MODEL 2
REMARK VINA RESULT:      -9.3      1.027      1.345
REMARK  5 active torsions:
REMARK  status: ('A' for Active; 'I' for Inactive)
REMARK       I    between atoms: C2_2  and  N1_4 
REMARK    1  A    between atoms: N1_4  and  C3_5 
REMARK    2  A    between atoms: C8_12  and  N4_13 
REMARK    3  A    between atoms: C11_16  and  O2_17 
REMARK    4  A    between atoms: O2_17  and  C12_18 
REMARK    5  A    between atoms: C12_18  and  C13_19 
ROOT
HETATM    1  N4  UNL     1      22.265   1.944  51.528  1.00  0.00    -0.314 N 
HETATM    2  C9  UNL     1      22.143   3.346  51.860  1.00  0.00     0.113 C 
HETATM    3  C10 UNL     1      21.613   4.106  50.910  1.00  0.00     0.029 C 
HETATM    4  C11 UNL     1      22.256   4.091  49.769  1.00  0.00     0.104 C 
HETATM    5  C19 UNL     1      22.378   2.701  49.285  1.00  0.00     0.084 C 
HETATM    6 CL1  UNL     1      22.521   2.210  47.596  1.00  0.00    -0.080 Cl
HETATM    7  C20 UNL     1      22.386   1.650  50.114  1.00  0.00     0.124 C 
ENDROOT
BRANCH   1   8
HETATM    8  C8  UNL     1      22.278   1.031  52.610  1.00  0.00     0.147 A 
HETATM    9  N3  UNL     1      21.016   0.801  53.034  1.00  0.00    -0.223 NA
HETATM   10  C7  UNL     1      20.794  -0.041  54.087  1.00  0.00     0.236 A 
HETATM   11  N2  UNL     1      21.880  -0.599  54.645  1.00  0.00    -0.241 NA
HETATM   12  C6  UNL     1      23.148  -0.398  54.255  1.00  0.00     0.072 A 
HETATM   13  C5  UNL     1      24.210  -1.008  54.894  1.00  0.00     0.035 A 
HETATM   14  C21 UNL     1      23.378   0.451  53.192  1.00  0.00     0.041 A 
HETATM   15  C4  UNL     1      25.473  -0.731  54.430  1.00  0.00     0.032 A 
HETATM   16  C3  UNL     1      25.643   0.123  53.365  1.00  0.00     0.035 A 
HETATM   17  C22 UNL     1      24.620   0.753  52.695  1.00  0.00     0.047 A 
BRANCH  16  18
HETATM   18  N1  UNL     1      26.987   0.354  52.969  1.00  0.00    -0.327 N 
HETATM   19  C2  UNL     1      27.391   1.582  53.605  1.00  0.00     0.218 C 
HETATM   20  C1  UNL     1      28.637   2.376  53.618  1.00  0.00     0.117 C 
HETATM   21  O1  UNL     1      26.538   2.188  54.346  1.00  0.00    -0.274 OA
HETATM   22  H4  UNL     1      27.812   0.012  52.419  1.00  0.00     0.169 HD
ENDBRANCH  16  18
ENDBRANCH   1   8
BRANCH   4  23
HETATM   23  O2  UNL     1      22.850   5.010  48.896  1.00  0.00    -0.344 OA
BRANCH  23  24
HETATM   24  C12 UNL     1      23.759   5.987  49.365  1.00  0.00     0.214 C 
BRANCH  24  25
HETATM   25  C13 UNL     1      25.173   5.698  49.070  1.00  0.00    -0.031 A 
HETATM   26  C14 UNL     1      25.656   4.439  49.450  1.00  0.00     0.009 A 
HETATM   27  C15 UNL     1      26.994   4.174  49.180  1.00  0.00     0.004 A 
HETATM   28  C16 UNL     1      27.857   5.052  48.575  1.00  0.00     0.042 A 
HETATM   29  C17 UNL     1      27.370   6.301  48.200  1.00  0.00     0.117 A 
HETATM   30  F1  UNL     1      28.135   7.243  47.599  1.00  0.00    -0.206 F 
HETATM   31  C18 UNL     1      26.027   6.589  48.461  1.00  0.00     0.051 A 
ENDBRANCH  24  25
ENDBRANCH  23  24
ENDBRANCH   4  23
TORSDOF 5
ENDMDL
MODEL 3
REMARK VINA RESULT:      -8.6      2.694      3.326
REMARK  5 active torsions:
REMARK  status: ('A' for Active; 'I' for Inactive)
REMARK       I    between atoms: C2_2  and  N1_4 
REMARK    1  A    between atoms: N1_4  and  C3_5 
REMARK    2  A    between atoms: C8_12  and  N4_13 
REMARK    3  A    between atoms: C11_16  and  O2_17 
REMARK    4  A    between atoms: O2_17  and  C12_18 
REMARK    5  A    between atoms: C12_18  and  C13_19 
ROOT
HETATM    1  N4  UNL     1      24.210   3.159  51.224  1.00  0.00    -0.314 N 
HETATM    2  C9  UNL     1      23.555   4.410  51.533  1.00  0.00     0.113 C 
HETATM    3  C10 UNL     1      23.707   5.366  50.624  1.00  0.00     0.029 C 
HETATM    4  C11 UNL     1      24.949   5.695  50.372  1.00  0.00     0.104 C 
HETATM    5  C19 UNL     1      25.710   4.495  49.966  1.00  0.00     0.084 C 
HETATM    6 CL1  UNL     1      27.131   4.485  48.921  1.00  0.00    -0.080 Cl
HETATM    7  C20 UNL     1      25.373   3.263  50.365  1.00  0.00     0.124 C 
ENDROOT
BRANCH   1   8
HETATM    8  C8  UNL     1      23.662   1.991  51.807  1.00  0.00     0.147 A 
HETATM    9  N3  UNL     1      22.412   1.783  51.337  1.00  0.00    -0.223 NA
HETATM   10  C7  UNL     1      21.686   0.715  51.782  1.00  0.00     0.236 A 
HETATM   11  N2  UNL     1      22.284  -0.080  52.684  1.00  0.00    -0.241 NA
HETATM   12  C6  UNL     1      23.520   0.090  53.176  1.00  0.00     0.072 A 
HETATM   13  C5  UNL     1      24.055  -0.773  54.113  1.00  0.00     0.035 A 
HETATM   14  C21 UNL     1      24.258   1.167  52.730  1.00  0.00     0.041 A 
HETATM   15  C4  UNL     1      25.325  -0.510  54.566  1.00  0.00     0.032 A 
HETATM   16  C3  UNL     1      26.015   0.579  54.084  1.00  0.00     0.035 A 
HETATM   17  C22 UNL     1      25.528   1.466  53.153  1.00  0.00     0.047 A 
BRANCH  16  18
HETATM   18  N1  UNL     1      27.315   0.771  54.624  1.00  0.00    -0.327 N 
HETATM   19  C2  UNL     1      28.218   0.035  53.776  1.00  0.00     0.218 C 
HETATM   20  C1  UNL     1      29.679  -0.184  53.769  1.00  0.00     0.117 C 
HETATM   21  O1  UNL     1      27.726  -0.603  52.778  1.00  0.00    -0.274 OA
HETATM   22  H4  UNL     1      27.899   1.223  55.369  1.00  0.00     0.169 HD
ENDBRANCH  16  18
ENDBRANCH   1   8
BRANCH   4  23
HETATM   23  O2  UNL     1      25.744   6.848  50.381  1.00  0.00    -0.344 OA
BRANCH  23  24
HETATM   24  C12 UNL     1      25.710   7.771  49.311  1.00  0.00     0.214 C 
BRANCH  24  25
HETATM   25  C13 UNL     1      27.030   8.099  48.745  1.00  0.00    -0.031 A 
HETATM   26  C14 UNL     1      27.280   7.679  47.432  1.00  0.00     0.009 A 
HETATM   27  C15 UNL     1      28.531   7.981  46.905  1.00  0.00     0.004 A 
HETATM   28  C16 UNL     1      29.520   8.652  47.578  1.00  0.00     0.042 A 
HETATM   29  C17 UNL     1      29.265   9.066  48.882  1.00  0.00     0.117 A 
HETATM   30  F1  UNL     1      30.171   9.733  49.636  1.00  0.00    -0.206 F 
HETATM   31  C18 UNL     1      28.014   8.774  49.433  1.00  0.00     0.051 A 
ENDBRANCH  24  25
ENDBRANCH  23  24
ENDBRANCH   4  23
TORSDOF 5
ENDMDL
MODEL 4
REMARK VINA RESULT:      -8.6      2.741      3.798
REMARK  5 active torsions:
REMARK  status: ('A' for Active; 'I' for Inactive)
REMARK       I    between atoms: C2_2  and  N1_4 
REMARK    1  A    between atoms: N1_4  and  C3_5 
REMARK    2  A    between atoms: C8_12  and  N4_13 
REMARK    3  A    between atoms: C11_16  and  O2_17 
REMARK    4  A    between atoms: O2_17  and  C12_18 
REMARK    5  A    between atoms: C12_18  and  C13_19 
ROOT
HETATM    1  N4  UNL     1      24.700   3.434  50.510  1.00  0.00    -0.314 N 
HETATM    2  C9  UNL     1      25.755   3.107  49.578  1.00  0.00     0.113 C 
HETATM    3  C10 UNL     1      26.747   3.987  49.519  1.00  0.00     0.029 C 
HETATM    4  C11 UNL     1      26.386   5.204  49.198  1.00  0.00     0.104 C 
HETATM    5  C19 UNL     1      25.353   5.681  50.139  1.00  0.00     0.084 C 
HETATM    6 CL1  UNL     1      25.049   7.367  50.562  1.00  0.00    -0.080 Cl
HETATM    7  C20 UNL     1      24.527   4.847  50.782  1.00  0.00     0.124 C 
ENDROOT
BRANCH   1   8
HETATM    8  C8  UNL     1      23.948   2.352  51.028  1.00  0.00     0.147 A 
HETATM    9  N3  UNL     1      22.780   2.239  50.357  1.00  0.00    -0.223 NA
HETATM   10  C7  UNL     1      21.886   1.266  50.705  1.00  0.00     0.236 A 
HETATM   11  N2  UNL     1      22.241   0.464  51.721  1.00  0.00    -0.241 NA
HETATM   12  C6  UNL     1      23.388   0.542  52.413  1.00  0.00     0.072 A 
HETATM   13  C5  UNL     1      23.668  -0.320  53.455  1.00  0.00     0.035 A 
HETATM   14  C21 UNL     1      24.294   1.522  52.066  1.00  0.00     0.041 A 
HETATM   15  C4  UNL     1      24.864  -0.155  54.111  1.00  0.00     0.032 A 
HETATM   16  C3  UNL     1      25.731   0.840  53.721  1.00  0.00     0.035 A 
HETATM   17  C22 UNL     1      25.499   1.722  52.691  1.00  0.00     0.047 A 
BRANCH  16  18
HETATM   18  N1  UNL     1      26.934   0.936  54.470  1.00  0.00    -0.327 N 
HETATM   19  C2  UNL     1      27.894   0.095  53.802  1.00  0.00     0.218 C 
HETATM   20  C1  UNL     1      29.309  -0.252  54.047  1.00  0.00     0.117 C 
HETATM   21  O1  UNL     1      27.520  -0.532  52.747  1.00  0.00    -0.274 OA
HETATM   22  H4  UNL     1      27.424   1.360  55.294  1.00  0.00     0.169 HD
ENDBRANCH  16  18
ENDBRANCH   1   8
BRANCH   4  23
HETATM   23  O2  UNL     1      26.702   6.163  48.227  1.00  0.00    -0.344 OA
BRANCH  23  24
HETATM   24  C12 UNL     1      27.678   7.157  48.466  1.00  0.00     0.214 C 
BRANCH  24  25
HETATM   25  C13 UNL     1      29.001   6.866  47.889  1.00  0.00    -0.031 A 
HETATM   26  C14 UNL     1      29.500   7.781  46.952  1.00  0.00     0.009 A 
HETATM   27  C15 UNL     1      30.744   7.498  46.401  1.00  0.00     0.004 A 
HETATM   28  C16 UNL     1      31.503   6.398  46.710  1.00  0.00     0.042 A 
HETATM   29  C17 UNL     1      31.002   5.493  47.642  1.00  0.00     0.117 A 
HETATM   30  F1  UNL     1      31.666   4.375  48.018  1.00  0.00    -0.206 F 
HETATM   31  C18 UNL     1      29.752   5.758  48.210  1.00  0.00     0.051 A 
ENDBRANCH  24  25
ENDBRANCH  23  24
ENDBRANCH   4  23
TORSDOF 5
ENDMDL
MODEL 5
REMARK VINA RESULT:      -8.4      3.031      4.054
REMARK  5 active torsions:
REMARK  status: ('A' for Active; 'I' for Inactive)
REMARK       I    between atoms: C2_2  and  N1_4 
REMARK    1  A    between atoms: N1_4  and  C3_5 
REMARK    2  A    between atoms: C8_12  and  N4_13 
REMARK    3  A    between atoms: C11_16  and  O2_17 
REMARK    4  A    between atoms: O2_17  and  C12_18 
REMARK    5  A    between atoms: C12_18  and  C13_19 
ROOT
HETATM    1  N4  UNL     1      24.654   3.389  50.651  1.00  0.00    -0.314 N 
HETATM    2  C9  UNL     1      25.664   3.076  49.666  1.00  0.00     0.113 C 
HETATM    3  C10 UNL     1      26.646   3.964  49.563  1.00  0.00     0.029 C 
HETATM    4  C11 UNL     1      26.261   5.180  49.268  1.00  0.00     0.104 C 
HETATM    5  C19 UNL     1      25.271   5.644  50.263  1.00  0.00     0.084 C 
HETATM    6 CL1  UNL     1      24.976   7.325  50.711  1.00  0.00    -0.080 Cl
HETATM    7  C20 UNL     1      24.484   4.800  50.940  1.00  0.00     0.124 C 
ENDROOT
BRANCH   1   8
HETATM    8  C8  UNL     1      23.936   2.299  51.198  1.00  0.00     0.147 A 
HETATM    9  N3  UNL     1      22.737   2.182  50.586  1.00  0.00    -0.223 NA
HETATM   10  C7  UNL     1      21.868   1.200  50.971  1.00  0.00     0.236 A 
HETATM   11  N2  UNL     1      22.279   0.395  51.963  1.00  0.00    -0.241 NA
HETATM   12  C6  UNL     1      23.458   0.476  52.597  1.00  0.00     0.072 A 
HETATM   13  C5  UNL     1      23.796  -0.391  53.618  1.00  0.00     0.035 A 
HETATM   14  C21 UNL     1      24.340   1.465  52.212  1.00  0.00     0.041 A 
HETATM   15  C4  UNL     1      25.022  -0.221  54.214  1.00  0.00     0.032 A 
HETATM   16  C3  UNL     1      25.862   0.782  53.788  1.00  0.00     0.035 A 
HETATM   17  C22 UNL     1      25.573   1.669  52.778  1.00  0.00     0.047 A 
BRANCH  16  18
HETATM   18  N1  UNL     1      27.100   0.882  54.477  1.00  0.00    -0.327 N 
HETATM   19  C2  UNL     1      28.041   0.080  53.736  1.00  0.00     0.218 C 
HETATM   20  C1  UNL     1      29.473  -0.244  53.898  1.00  0.00     0.117 C 
HETATM   21  O1  UNL     1      27.624  -0.524  52.684  1.00  0.00    -0.274 OA
HETATM   22  H4  UNL     1      27.624   1.293  55.286  1.00  0.00     0.169 HD
ENDBRANCH  16  18
ENDBRANCH   1   8
BRANCH   4  23
HETATM   23  O2  UNL     1      26.521   6.147  48.289  1.00  0.00    -0.344 OA
BRANCH  23  24
HETATM   24  C12 UNL     1      27.837   6.595  48.031  1.00  0.00     0.214 C 
BRANCH  24  25
HETATM   25  C13 UNL     1      28.089   7.998  48.405  1.00  0.00    -0.031 A 
HETATM   26  C14 UNL     1      27.030   8.899  48.236  1.00  0.00     0.009 A 
HETATM   27  C15 UNL     1      27.275  10.224  48.579  1.00  0.00     0.004 A 
HETATM   28  C16 UNL     1      28.468  10.697  49.065  1.00  0.00     0.042 A 
HETATM   29  C17 UNL     1      29.515   9.796  49.231  1.00  0.00     0.117 A 
HETATM   30  F1  UNL     1      30.733  10.156  49.700  1.00  0.00    -0.206 F 
HETATM   31  C18 UNL     1      29.291   8.458  48.892  1.00  0.00     0.051 A 
ENDBRANCH  24  25
ENDBRANCH  23  24
ENDBRANCH   4  23
TORSDOF 5
ENDMDL
MODEL 6
REMARK VINA RESULT:      -8.2      2.646      3.459
REMARK  5 active torsions:
REMARK  status: ('A' for Active; 'I' for Inactive)
REMARK       I    between atoms: C2_2  and  N1_4 
REMARK    1  A    between atoms: N1_4  and  C3_5 
REMARK    2  A    between atoms: C8_12  and  N4_13 
REMARK    3  A    between atoms: C11_16  and  O2_17 
REMARK    4  A    between atoms: O2_17  and  C12_18 
REMARK    5  A    between atoms: C12_18  and  C13_19 
ROOT
HETATM    1  N4  UNL     1      24.044   4.030  51.180  1.00  0.00    -0.314 N 
HETATM    2  C9  UNL     1      23.641   5.386  51.478  1.00  0.00     0.113 C 
HETATM    3  C10 UNL     1      23.946   6.283  50.548  1.00  0.00     0.029 C 
HETATM    4  C11 UNL     1      25.221   6.371  50.265  1.00  0.00     0.104 C 
HETATM    5  C19 UNL     1      25.736   5.045  49.867  1.00  0.00     0.084 C 
HETATM    6 CL1  UNL     1      27.107   4.755  48.794  1.00  0.00    -0.080 Cl
HETATM    7  C20 UNL     1      25.186   3.903  50.297  1.00  0.00     0.124 C 
ENDROOT
BRANCH   1   8
HETATM    8  C8  UNL     1      23.303   2.994  51.796  1.00  0.00     0.147 A 
HETATM    9  N3  UNL     1      21.991   3.318  51.825  1.00  0.00    -0.223 NA
HETATM   10  C7  UNL     1      21.091   2.463  52.395  1.00  0.00     0.236 A 
HETATM   11  N2  UNL     1      21.587   1.324  52.903  1.00  0.00    -0.241 NA
HETATM   12  C6  UNL     1      22.879   0.964  52.896  1.00  0.00     0.072 A 
HETATM   13  C5  UNL     1      23.305  -0.226  53.453  1.00  0.00     0.035 A 
HETATM   14  C21 UNL     1      23.793   1.823  52.321  1.00  0.00     0.041 A 
HETATM   15  C4  UNL     1      24.650  -0.502  53.407  1.00  0.00     0.032 A 
HETATM   16  C3  UNL     1      25.516   0.392  52.820  1.00  0.00     0.035 A 
HETATM   17  C22 UNL     1      25.143   1.587  52.252  1.00  0.00     0.047 A 
BRANCH  16  18
HETATM   18  N1  UNL     1      26.887   0.020  52.834  1.00  0.00    -0.327 N 
HETATM   19  C2  UNL     1      27.416   0.474  54.095  1.00  0.00     0.218 C 
HETATM   20  C1  UNL     1      28.744   0.413  54.740  1.00  0.00     0.117 C 
HETATM   21  O1  UNL     1      26.622   1.078  54.902  1.00  0.00    -0.274 OA
HETATM   22  H4  UNL     1      27.676  -0.447  52.326  1.00  0.00     0.169 HD
ENDBRANCH  16  18
ENDBRANCH   1   8
BRANCH   4  23
HETATM   23  O2  UNL     1      26.216   7.356  50.236  1.00  0.00    -0.344 OA
BRANCH  23  24
HETATM   24  C12 UNL     1      26.194   8.394  49.276  1.00  0.00     0.214 C 
BRANCH  24  25
HETATM   25  C13 UNL     1      27.214   8.273  48.220  1.00  0.00    -0.031 A 
HETATM   26  C14 UNL     1      28.541   8.109  48.637  1.00  0.00     0.009 A 
HETATM   27  C15 UNL     1      29.503   8.006  47.638  1.00  0.00     0.004 A 
HETATM   28  C16 UNL     1      29.239   8.053  46.292  1.00  0.00     0.042 A 
HETATM   29  C17 UNL     1      27.918   8.216  45.886  1.00  0.00     0.117 A 
HETATM   30  F1  UNL     1      27.547   8.278  44.585  1.00  0.00    -0.206 F 
HETATM   31  C18 UNL     1      26.934   8.321  46.873  1.00  0.00     0.051 A 
ENDBRANCH  24  25
ENDBRANCH  23  24
ENDBRANCH   4  23
TORSDOF 5
ENDMDL
MODEL 7
REMARK VINA RESULT:      -8.0      2.416      2.973
REMARK  5 active torsions:
REMARK  status: ('A' for Active; 'I' for Inactive)
REMARK       I    between atoms: C2_2  and  N1_4 
REMARK    1  A    between atoms: N1_4  and  C3_5 
REMARK    2  A    between atoms: C8_12  and  N4_13 
REMARK    3  A    between atoms: C11_16  and  O2_17 
REMARK    4  A    between atoms: O2_17  and  C12_18 
REMARK    5  A    between atoms: C12_18  and  C13_19 
ROOT
HETATM    1  N4  UNL     1      23.017   3.467  51.167  1.00  0.00    -0.314 N 
HETATM    2  C9  UNL     1      22.879   3.307  49.737  1.00  0.00     0.113 C 
HETATM    3  C10 UNL     1      23.669   4.081  49.004  1.00  0.00     0.029 C 
HETATM    4  C11 UNL     1      23.525   5.367  49.209  1.00  0.00     0.104 C 
HETATM    5  C19 UNL     1      23.721   5.668  50.642  1.00  0.00     0.084 C 
HETATM    6 CL1  UNL     1      24.290   7.203  51.300  1.00  0.00    -0.080 Cl
HETATM    7  C20 UNL     1      23.481   4.769  51.604  1.00  0.00     0.124 C 
ENDROOT
BRANCH   1   8
HETATM    8  C8  UNL     1      22.663   2.357  51.971  1.00  0.00     0.147 A 
HETATM    9  N3  UNL     1      21.338   2.381  52.236  1.00  0.00    -0.223 NA
HETATM   10  C7  UNL     1      20.781   1.407  53.015  1.00  0.00     0.236 A 
HETATM   11  N2  UNL     1      21.615   0.463  53.479  1.00  0.00    -0.241 NA
HETATM   12  C6  UNL     1      22.934   0.402  53.241  1.00  0.00     0.072 A 
HETATM   13  C5  UNL     1      23.722  -0.603  53.769  1.00  0.00     0.035 A 
HETATM   14  C21 UNL     1      23.502   1.382  52.454  1.00  0.00     0.041 A 
HETATM   15  C4  UNL     1      25.064  -0.575  53.478  1.00  0.00     0.032 A 
HETATM   16  C3  UNL     1      25.576   0.428  52.686  1.00  0.00     0.035 A 
HETATM   17  C22 UNL     1      24.835   1.448  52.138  1.00  0.00     0.047 A 
BRANCH  16  18
HETATM   18  N1  UNL     1      26.977   0.375  52.455  1.00  0.00    -0.327 N 
HETATM   19  C2  UNL     1      27.596   1.046  53.570  1.00  0.00     0.218 C 
HETATM   20  C1  UNL     1      28.993   1.340  53.950  1.00  0.00     0.117 C 
HETATM   21  O1  UNL     1      26.837   1.526  54.485  1.00  0.00    -0.274 OA
HETATM   22  H4  UNL     1      27.751   0.052  51.827  1.00  0.00     0.169 HD
ENDBRANCH  16  18
ENDBRANCH   1   8
BRANCH   4  23
HETATM   23  O2  UNL     1      23.240   6.516  48.460  1.00  0.00    -0.344 OA
BRANCH  23  24
HETATM   24  C12 UNL     1      24.118   6.970  47.450  1.00  0.00     0.214 C 
BRANCH  24  25
HETATM   25  C13 UNL     1      25.340   7.623  47.950  1.00  0.00    -0.031 A 
HETATM   26  C14 UNL     1      26.460   6.805  48.150  1.00  0.00     0.009 A 
HETATM   27  C15 UNL     1      27.608   7.422  48.633  1.00  0.00     0.004 A 
HETATM   28  C16 UNL     1      27.713   8.759  48.922  1.00  0.00     0.042 A 
HETATM   29  C17 UNL     1      26.597   9.566  48.721  1.00  0.00     0.117 A 
HETATM   30  F1  UNL     1      26.590  10.896  48.975  1.00  0.00    -0.206 F 
HETATM   31  C18 UNL     1      25.431   8.966  48.235  1.00  0.00     0.051 A 
ENDBRANCH  24  25
ENDBRANCH  23  24
ENDBRANCH   4  23
TORSDOF 5
ENDMDL
MODEL 8
REMARK VINA RESULT:      -8.0      3.699      7.535
REMARK  5 active torsions:
REMARK  status: ('A' for Active; 'I' for Inactive)
REMARK       I    between atoms: C2_2  and  N1_4 
REMARK    1  A    between atoms: N1_4  and  C3_5 
REMARK    2  A    between atoms: C8_12  and  N4_13 
REMARK    3  A    between atoms: C11_16  and  O2_17 
REMARK    4  A    between atoms: O2_17  and  C12_18 
REMARK    5  A    between atoms: C12_18  and  C13_19 
ROOT
HETATM    1  N4  UNL     1      24.341   5.094  49.497  1.00  0.00    -0.314 N 
HETATM    2  C9  UNL     1      24.654   3.738  49.107  1.00  0.00     0.113 C 
HETATM    3  C10 UNL     1      24.127   2.794  49.877  1.00  0.00     0.029 C 
HETATM    4  C11 UNL     1      24.464   2.861  51.141  1.00  0.00     0.104 C 
HETATM    5  C19 UNL     1      24.118   4.193  51.678  1.00  0.00     0.084 C 
HETATM    6 CL1  UNL     1      23.739   4.554  53.363  1.00  0.00    -0.080 Cl
HETATM    7  C20 UNL     1      24.054   5.284  50.905  1.00  0.00     0.124 C 
ENDROOT
BRANCH   1   8
HETATM    8  C8  UNL     1      24.373   6.076  48.478  1.00  0.00     0.147 A 
HETATM    9  N3  UNL     1      23.211   6.063  47.788  1.00  0.00    -0.223 NA
HETATM   10  C7  UNL     1      23.031   6.923  46.741  1.00  0.00     0.236 A 
HETATM   11  N2  UNL     1      24.054   7.746  46.461  1.00  0.00    -0.241 NA
HETATM   12  C6  UNL     1      25.222   7.790  47.119  1.00  0.00     0.072 A 
HETATM   13  C5  UNL     1      26.227   8.665  46.755  1.00  0.00     0.035 A 
HETATM   14  C21 UNL     1      25.409   6.926  48.177  1.00  0.00     0.041 A 
HETATM   15  C4  UNL     1      27.393   8.629  47.483  1.00  0.00     0.032 A 
HETATM   16  C3  UNL     1      27.524   7.746  48.529  1.00  0.00     0.035 A 
HETATM   17  C22 UNL     1      26.554   6.857  48.930  1.00  0.00     0.047 A 
BRANCH  16  18
HETATM   18  N1  UNL     1      28.770   7.778  49.209  1.00  0.00    -0.327 N 
HETATM   19  C2  UNL     1      29.622   6.829  48.538  1.00  0.00     0.218 C 
HETATM   20  C1  UNL     1      31.016   6.379  48.727  1.00  0.00     0.117 C 
HETATM   21  O1  UNL     1      29.141   6.186  47.538  1.00  0.00    -0.274 OA
HETATM   22  H4  UNL     1      29.337   8.199  49.984  1.00  0.00     0.169 HD
ENDBRANCH  16  18
ENDBRANCH   1   8
BRANCH   4  23
HETATM   23  O2  UNL     1      25.052   2.036  52.108  1.00  0.00    -0.344 OA
BRANCH  23  24
HETATM   24  C12 UNL     1      26.393   2.224  52.516  1.00  0.00     0.214 C 
BRANCH  24  25
HETATM   25  C13 UNL     1      27.138   0.977  52.760  1.00  0.00    -0.031 A 
HETATM   26  C14 UNL     1      28.381   1.094  53.395  1.00  0.00     0.009 A 
HETATM   27  C15 UNL     1      29.086  -0.084  53.613  1.00  0.00     0.004 A 
HETATM   28  C16 UNL     1      28.650  -1.334  53.253  1.00  0.00     0.042 A 
HETATM   29  C17 UNL     1      27.414  -1.443  52.622  1.00  0.00     0.117 A 
HETATM   30  F1  UNL     1      26.890  -2.625  52.223  1.00  0.00    -0.206 F 
HETATM   31  C18 UNL     1      26.687  -0.271  52.393  1.00  0.00     0.051 A 
ENDBRANCH  24  25
ENDBRANCH  23  24
ENDBRANCH   4  23
TORSDOF 5
ENDMDL
MODEL 9
REMARK VINA RESULT:      -7.9      2.581      4.981
REMARK  5 active torsions:
REMARK  status: ('A' for Active; 'I' for Inactive)
REMARK       I    between atoms: C2_2  and  N1_4 
REMARK    1  A    between atoms: N1_4  and  C3_5 
REMARK    2  A    between atoms: C8_12  and  N4_13 
REMARK    3  A    between atoms: C11_16  and  O2_17 
REMARK    4  A    between atoms: O2_17  and  C12_18 
REMARK    5  A    between atoms: C12_18  and  C13_19 
ROOT
HETATM    1  N4  UNL     1      24.783   3.291  51.139  1.00  0.00    -0.314 N 
HETATM    2  C9  UNL     1      25.260   3.365  49.776  1.00  0.00     0.113 C 
HETATM    3  C10 UNL     1      25.317   4.588  49.264  1.00  0.00     0.029 C 
HETATM    4  C11 UNL     1      24.178   5.234  49.252  1.00  0.00     0.104 C 
HETATM    5  C19 UNL     1      23.624   5.292  50.620  1.00  0.00     0.084 C 
HETATM    6 CL1  UNL     1      22.550   6.547  51.241  1.00  0.00    -0.080 Cl
HETATM    7  C20 UNL     1      23.900   4.366  51.546  1.00  0.00     0.124 C 
ENDROOT
BRANCH   1   8
HETATM    8  C8  UNL     1      25.207   2.178  51.905  1.00  0.00     0.147 A 
HETATM    9  N3  UNL     1      26.547   2.031  51.802  1.00  0.00    -0.223 NA
HETATM   10  C7  UNL     1      27.171   1.003  52.451  1.00  0.00     0.236 A 
HETATM   11  N2  UNL     1      26.385   0.184  53.167  1.00  0.00    -0.241 NA
HETATM   12  C6  UNL     1      25.054   0.294  53.294  1.00  0.00     0.072 A 
HETATM   13  C5  UNL     1      24.320  -0.603  54.046  1.00  0.00     0.035 A 
HETATM   14  C21 UNL     1      24.418   1.330  52.642  1.00  0.00     0.041 A 
HETATM   15  C4  UNL     1      22.960  -0.415  54.108  1.00  0.00     0.032 A 
HETATM   16  C3  UNL     1      22.380   0.638  53.437  1.00  0.00     0.035 A 
HETATM   17  C22 UNL     1      23.066   1.556  52.678  1.00  0.00     0.047 A 
BRANCH  16  18
HETATM   18  N1  UNL     1      20.968   0.738  53.554  1.00  0.00    -0.327 N 
HETATM   19  C2  UNL     1      20.422   0.182  52.342  1.00  0.00     0.218 C 
HETATM   20  C1  UNL     1      19.053  -0.020  51.825  1.00  0.00     0.117 C 
HETATM   21  O1  UNL     1      21.238  -0.262  51.458  1.00  0.00    -0.274 OA
HETATM   22  H4  UNL     1      20.154   1.037  54.144  1.00  0.00     0.169 HD
ENDBRANCH  16  18
ENDBRANCH   1   8
BRANCH   4  23
HETATM   23  O2  UNL     1      23.353   5.874  48.318  1.00  0.00    -0.344 OA
BRANCH  23  24
HETATM   24  C12 UNL     1      22.612   5.137  47.367  1.00  0.00     0.214 C 
BRANCH  24  25
HETATM   25  C13 UNL     1      21.919   3.957  47.913  1.00  0.00    -0.031 A 
HETATM   26  C14 UNL     1      22.467   2.703  47.611  1.00  0.00     0.009 A 
HETATM   27  C15 UNL     1      21.804   1.592  48.119  1.00  0.00     0.004 A 
HETATM   28  C16 UNL     1      20.667   1.643  48.884  1.00  0.00     0.042 A 
HETATM   29  C17 UNL     1      20.128   2.892  49.179  1.00  0.00     0.117 A 
HETATM   30  F1  UNL     1      19.008   3.056  49.923  1.00  0.00    -0.206 F 
HETATM   31  C18 UNL     1      20.778   4.024  48.680  1.00  0.00     0.051 A 
ENDBRANCH  24  25
ENDBRANCH  23  24
ENDBRANCH   4  23
TORSDOF 5
ENDMDL
