MODEL 1
REMARK VINA RESULT:      -9.3      0.000      0.000
REMARK  2 active torsions:
REMARK  status: ('A' for Active; 'I' for Inactive)
REMARK    1  A    between atoms: C10_16  and  N4_17 
REMARK    2  A    between atoms: N4_17  and  C11_18 
ROOT
HETATM    1  F1  UNL     1      20.448   0.951  55.398  1.00  0.00    -0.104 F 
HETATM    2  N1  UNL     1      20.741   0.088  54.398  1.00  0.00    -0.250 N 
HETATM    3  C1  UNL     1      21.612  -0.937  54.833  1.00  0.00     0.157 C 
HETATM    4  C2  UNL     1      23.096  -0.900  54.497  1.00  0.00     0.049 C 
HETATM    5  C3  UNL     1      23.141  -0.615  53.102  1.00  0.00     0.177 C 
HETATM    6  O1  UNL     1      24.261  -0.269  52.301  1.00  0.00    -0.351 OA
HETATM    7  C4  UNL     1      24.123   1.199  52.235  1.00  0.00     0.088 C 
HETATM    8  C5  UNL     1      22.869   1.258  51.724  1.00  0.00     0.045 C 
HETATM    9  C6  UNL     1      21.572   1.983  51.220  1.00  0.00     0.171 C 
HETATM   10  C7  UNL     1      21.811   2.923  50.254  1.00  0.00     0.033 C 
HETATM   11  C8  UNL     1      22.429   3.992  49.796  1.00  0.00     0.142 C 
HETATM   12  O2  UNL     1      23.179   4.160  50.923  1.00  0.00    -0.315 OA
HETATM   13  C9  UNL     1      23.044   5.096  51.903  1.00  0.00     0.279 C 
HETATM   14  N2  UNL     1      23.720   4.719  52.940  1.00  0.00    -0.165 NA
HETATM   15  N3  UNL     1      24.406   3.498  52.830  1.00  0.00    -0.283 N 
HETATM   16  C10 UNL     1      25.082   2.239  52.618  1.00  0.00     0.257 C 
HETATM   17  O3  UNL     1      20.625   1.038  51.048  1.00  0.00    -0.376 OA
HETATM   18  C17 UNL     1      20.140   0.180  51.881  1.00  0.00     0.191 C 
HETATM   19  C18 UNL     1      19.909   0.108  53.302  1.00  0.00     0.181 C 
HETATM   20  H12 UNL     1      24.444   3.917  53.809  1.00  0.00     0.185 HD
ENDROOT
BRANCH  16  21
HETATM   21  N4  UNL     1      25.837   1.843  53.770  1.00  0.00    -0.362 N 
HETATM   22  H14 UNL     1      25.399   1.965  54.722  1.00  0.00     0.162 HD
BRANCH  21  23
HETATM   23  C11 UNL     1      27.147   1.295  53.737  1.00  0.00     0.031 A 
HETATM   24  C12 UNL     1      28.275   2.042  53.974  1.00  0.00     0.029 A 
HETATM   25  C13 UNL     1      29.504   1.442  53.944  1.00  0.00     0.004 A 
HETATM   26  C14 UNL     1      29.724   0.115  53.687  1.00  0.00     0.024 A 
HETATM   27  C15 UNL     1      28.575  -0.589  53.457  1.00  0.00     0.036 A 
HETATM   28 CL1  UNL     1      28.767  -2.316  53.126  1.00  0.00    -0.084 Cl
HETATM   29  C16 UNL     1      27.292  -0.073  53.466  1.00  0.00     0.053 A 
ENDBRANCH  21  23
ENDBRANCH  16  21
TORSDOF 2
ENDMDL
MODEL 2
REMARK VINA RESULT:      -9.1      2.316      4.102
REMARK  2 active torsions:
REMARK  status: ('A' for Active; 'I' for Inactive)
REMARK    1  A    between atoms: C10_16  and  N4_17 
REMARK    2  A    between atoms: N4_17  and  C11_18 
ROOT
HETATM    1  F1  UNL     1      21.863   0.619  48.154  1.00  0.00    -0.104 F 
HETATM    2  N1  UNL     1      21.643   1.842  48.691  1.00  0.00    -0.250 N 
HETATM    3  C1  UNL     1      22.644   2.765  48.311  1.00  0.00     0.157 C 
HETATM    4  C2  UNL     1      23.761   3.150  49.270  1.00  0.00     0.049 C 
HETATM    5  C3  UNL     1      23.097   3.443  50.495  1.00  0.00     0.177 C 
HETATM    6  O1  UNL     1      23.658   3.660  51.780  1.00  0.00    -0.351 OA
HETATM    7  C4  UNL     1      23.464   2.337  52.404  1.00  0.00     0.088 C 
HETATM    8  C5  UNL     1      22.121   2.239  52.249  1.00  0.00     0.045 C 
HETATM    9  C6  UNL     1      20.725   1.531  52.357  1.00  0.00     0.171 C 
HETATM   10  C7  UNL     1      20.424   1.106  53.623  1.00  0.00     0.033 C 
HETATM   11  C8  UNL     1      20.701   0.440  54.725  1.00  0.00     0.142 C 
HETATM   12  O2  UNL     1      21.908  -0.004  54.270  1.00  0.00    -0.315 OA
HETATM   13  C9  UNL     1      22.252  -1.254  53.853  1.00  0.00     0.279 C 
HETATM   14  N2  UNL     1      23.366  -1.186  53.197  1.00  0.00    -0.165 NA
HETATM   15  N3  UNL     1      23.940   0.089  53.070  1.00  0.00    -0.283 N 
HETATM   16  C10 UNL     1      24.456   1.438  52.999  1.00  0.00     0.257 C 
HETATM   17  O3  UNL     1      19.846   2.265  51.645  1.00  0.00    -0.376 OA
HETATM   18  C17 UNL     1      19.866   2.621  50.405  1.00  0.00     0.191 C 
HETATM   19  C18 UNL     1      20.375   2.088  49.166  1.00  0.00     0.181 C 
HETATM   20  H12 UNL     1      24.449  -0.661  52.509  1.00  0.00     0.185 HD
ENDROOT
BRANCH  16  21
HETATM   21  N4  UNL     1      25.696   1.492  52.282  1.00  0.00    -0.362 N 
HETATM   22  H14 UNL     1      25.675   1.770  51.264  1.00  0.00     0.162 HD
BRANCH  21  23
HETATM   23  C11 UNL     1      26.970   1.197  52.835  1.00  0.00     0.031 A 
HETATM   24  C12 UNL     1      27.763   2.147  53.431  1.00  0.00     0.029 A 
HETATM   25  C13 UNL     1      28.972   1.786  53.960  1.00  0.00     0.004 A 
HETATM   26  C14 UNL     1      29.486   0.517  53.950  1.00  0.00     0.024 A 
HETATM   27  C15 UNL     1      28.664  -0.395  53.348  1.00  0.00     0.036 A 
HETATM   28 CL1  UNL     1      29.248  -2.064  53.300  1.00  0.00    -0.084 Cl
HETATM   29  C16 UNL     1      27.430  -0.127  52.787  1.00  0.00     0.053 A 
ENDBRANCH  21  23
ENDBRANCH  16  21
TORSDOF 2
ENDMDL
MODEL 3
REMARK VINA RESULT:      -8.3      4.353      6.378
REMARK  2 active torsions:
REMARK  status: ('A' for Active; 'I' for Inactive)
REMARK    1  A    between atoms: C10_16  and  N4_17 
REMARK    2  A    between atoms: N4_17  and  C11_18 
ROOT
HETATM    1  F1  UNL     1      22.890   1.426  47.138  1.00  0.00    -0.104 F 
HETATM    2  N1  UNL     1      21.970   1.866  48.028  1.00  0.00    -0.250 N 
HETATM    3  C1  UNL     1      21.344   3.054  47.584  1.00  0.00     0.157 C 
HETATM    4  C2  UNL     1      21.740   4.409  48.154  1.00  0.00     0.049 C 
HETATM    5  C3  UNL     1      21.748   4.216  49.565  1.00  0.00     0.177 C 
HETATM    6  O1  UNL     1      22.238   5.082  50.578  1.00  0.00    -0.351 OA
HETATM    7  C4  UNL     1      23.562   4.488  50.846  1.00  0.00     0.088 C 
HETATM    8  C5  UNL     1      23.157   3.231  51.155  1.00  0.00     0.045 C 
HETATM    9  C6  UNL     1      23.365   1.727  51.551  1.00  0.00     0.171 C 
HETATM   10  C7  UNL     1      24.127   1.559  52.676  1.00  0.00     0.033 C 
HETATM   11  C8  UNL     1      25.218   1.762  53.385  1.00  0.00     0.142 C 
HETATM   12  O2  UNL     1      25.811   2.536  52.432  1.00  0.00    -0.315 OA
HETATM   13  C9  UNL     1      26.841   2.220  51.599  1.00  0.00     0.279 C 
HETATM   14  N2  UNL     1      26.885   3.086  50.637  1.00  0.00    -0.165 NA
HETATM   15  N3  UNL     1      25.915   4.102  50.666  1.00  0.00    -0.283 N 
HETATM   16  C10 UNL     1      24.887   5.110  50.787  1.00  0.00     0.257 C 
HETATM   17  O3  UNL     1      22.174   1.109  51.422  1.00  0.00    -0.376 OA
HETATM   18  C17 UNL     1      21.392   1.006  50.401  1.00  0.00     0.191 C 
HETATM   19  C18 UNL     1      21.536   0.960  48.967  1.00  0.00     0.181 C 
HETATM   20  H12 UNL     1      26.510   4.110  49.781  1.00  0.00     0.185 HD
ENDROOT
BRANCH  16  21
HETATM   21  N4  UNL     1      24.958   6.068  49.722  1.00  0.00    -0.362 N 
HETATM   22  H14 UNL     1      24.156   6.118  49.038  1.00  0.00     0.162 HD
BRANCH  21  23
HETATM   23  C11 UNL     1      26.036   6.967  49.507  1.00  0.00     0.031 A 
HETATM   24  C12 UNL     1      26.234   8.090  50.271  1.00  0.00     0.029 A 
HETATM   25  C13 UNL     1      27.306   8.902  50.018  1.00  0.00     0.004 A 
HETATM   26  C14 UNL     1      28.236   8.691  49.035  1.00  0.00     0.024 A 
HETATM   27  C15 UNL     1      28.000   7.563  48.300  1.00  0.00     0.036 A 
HETATM   28 CL1  UNL     1      29.160   7.209  47.012  1.00  0.00    -0.084 Cl
HETATM   29  C16 UNL     1      26.948   6.683  48.479  1.00  0.00     0.053 A 
ENDBRANCH  21  23
ENDBRANCH  16  21
TORSDOF 2
ENDMDL
MODEL 4
REMARK VINA RESULT:      -8.3      8.586     11.324
REMARK  2 active torsions:
REMARK  status: ('A' for Active; 'I' for Inactive)
REMARK    1  A    between atoms: C10_16  and  N4_17 
REMARK    2  A    between atoms: N4_17  and  C11_18 
ROOT
HETATM    1  F1  UNL     1      30.918  11.041  49.894  1.00  0.00    -0.104 F 
HETATM    2  N1  UNL     1      30.475  11.073  48.616  1.00  0.00    -0.250 N 
HETATM    3  C1  UNL     1      29.092  11.359  48.551  1.00  0.00     0.157 C 
HETATM    4  C2  UNL     1      28.074  10.257  48.298  1.00  0.00     0.049 C 
HETATM    5  C3  UNL     1      28.598   9.533  47.188  1.00  0.00     0.177 C 
HETATM    6  O1  UNL     1      28.168   8.289  46.656  1.00  0.00    -0.351 OA
HETATM    7  C4  UNL     1      29.144   7.365  47.265  1.00  0.00     0.088 C 
HETATM    8  C5  UNL     1      30.280   7.949  46.813  1.00  0.00     0.045 C 
HETATM    9  C6  UNL     1      31.834   8.116  46.671  1.00  0.00     0.171 C 
HETATM   10  C7  UNL     1      32.469   6.979  46.246  1.00  0.00     0.033 C 
HETATM   11  C8  UNL     1      32.746   5.696  46.339  1.00  0.00     0.142 C 
HETATM   12  O2  UNL     1      31.953   5.504  47.433  1.00  0.00    -0.315 OA
HETATM   13  C9  UNL     1      32.324   5.314  48.729  1.00  0.00     0.279 C 
HETATM   14  N2  UNL     1      31.296   5.505  49.493  1.00  0.00    -0.165 NA
HETATM   15  N3  UNL     1      30.095   5.846  48.850  1.00  0.00    -0.283 N 
HETATM   16  C10 UNL     1      28.907   6.184  48.098  1.00  0.00     0.257 C 
HETATM   17  O3  UNL     1      32.058   9.301  46.069  1.00  0.00    -0.376 OA
HETATM   18  C17 UNL     1      31.695  10.492  46.407  1.00  0.00     0.191 C 
HETATM   19  C18 UNL     1      31.430  11.201  47.634  1.00  0.00     0.181 C 
HETATM   20  H12 UNL     1      30.033   5.893  49.913  1.00  0.00     0.185 HD
ENDROOT
BRANCH  16  21
HETATM   21  N4  UNL     1      27.775   6.378  48.957  1.00  0.00    -0.362 N 
HETATM   22  H14 UNL     1      27.743   7.248  49.554  1.00  0.00     0.162 HD
BRANCH  21  23
HETATM   23  C11 UNL     1      26.679   5.483  49.075  1.00  0.00     0.031 A 
HETATM   24  C12 UNL     1      26.834   4.143  49.333  1.00  0.00     0.029 A 
HETATM   25  C13 UNL     1      25.731   3.344  49.453  1.00  0.00     0.004 A 
HETATM   26  C14 UNL     1      24.435   3.771  49.333  1.00  0.00     0.024 A 
HETATM   27  C15 UNL     1      24.328   5.109  49.077  1.00  0.00     0.036 A 
HETATM   28 CL1  UNL     1      22.686   5.748  48.917  1.00  0.00    -0.084 Cl
HETATM   29  C16 UNL     1      25.381   5.995  48.940  1.00  0.00     0.053 A 
ENDBRANCH  21  23
ENDBRANCH  16  21
TORSDOF 2
ENDMDL
MODEL 5
REMARK VINA RESULT:      -8.2      3.358      5.897
REMARK  2 active torsions:
REMARK  status: ('A' for Active; 'I' for Inactive)
REMARK    1  A    between atoms: C10_16  and  N4_17 
REMARK    2  A    between atoms: N4_17  and  C11_18 
ROOT
HETATM    1  F1  UNL     1      26.087   0.419  51.756  1.00  0.00    -0.104 F 
HETATM    2  N1  UNL     1      26.134   1.767  51.867  1.00  0.00    -0.250 N 
HETATM    3  C1  UNL     1      26.020   2.181  53.214  1.00  0.00     0.157 C 
HETATM    4  C2  UNL     1      24.709   2.730  53.758  1.00  0.00     0.049 C 
HETATM    5  C3  UNL     1      24.292   3.688  52.790  1.00  0.00     0.177 C 
HETATM    6  O1  UNL     1      23.045   4.357  52.681  1.00  0.00    -0.351 OA
HETATM    7  C4  UNL     1      22.374   3.545  51.647  1.00  0.00     0.088 C 
HETATM    8  C5  UNL     1      23.303   3.664  50.668  1.00  0.00     0.045 C 
HETATM    9  C6  UNL     1      23.919   3.388  49.251  1.00  0.00     0.171 C 
HETATM   10  C7  UNL     1      23.065   3.671  48.219  1.00  0.00     0.033 C 
HETATM   11  C8  UNL     1      21.911   3.552  47.597  1.00  0.00     0.142 C 
HETATM   12  O2  UNL     1      21.381   2.712  48.532  1.00  0.00    -0.315 OA
HETATM   13  C9  UNL     1      21.161   1.371  48.444  1.00  0.00     0.279 C 
HETATM   14  N2  UNL     1      20.967   0.897  49.633  1.00  0.00    -0.165 NA
HETATM   15  N3  UNL     1      21.022   1.820  50.690  1.00  0.00    -0.283 N 
HETATM   16  C10 UNL     1      21.089   2.844  51.707  1.00  0.00     0.257 C 
HETATM   17  O3  UNL     1      25.178   3.869  49.260  1.00  0.00    -0.376 OA
HETATM   18  C17 UNL     1      26.172   3.597  50.036  1.00  0.00     0.191 C 
HETATM   19  C18 UNL     1      26.636   2.458  50.789  1.00  0.00     0.181 C 
HETATM   20  H12 UNL     1      20.930   0.810  51.016  1.00  0.00     0.185 HD
ENDROOT
BRANCH  16  21
HETATM   21  N4  UNL     1      20.857   2.305  53.016  1.00  0.00    -0.362 N 
HETATM   22  H14 UNL     1      20.570   2.967  53.786  1.00  0.00     0.162 HD
BRANCH  21  23
HETATM   23  C11 UNL     1      20.986   0.936  53.367  1.00  0.00     0.031 A 
HETATM   24  C12 UNL     1      22.185   0.363  53.714  1.00  0.00     0.029 A 
HETATM   25  C13 UNL     1      22.230  -0.960  54.059  1.00  0.00     0.004 A 
HETATM   26  C14 UNL     1      21.150  -1.800  54.091  1.00  0.00     0.024 A 
HETATM   27  C15 UNL     1      19.979  -1.189  53.739  1.00  0.00     0.036 A 
HETATM   28 CL1  UNL     1      18.528  -2.202  53.762  1.00  0.00    -0.084 Cl
HETATM   29  C16 UNL     1      19.833   0.137  53.376  1.00  0.00     0.053 A 
ENDBRANCH  21  23
ENDBRANCH  16  21
TORSDOF 2
ENDMDL
MODEL 6
REMARK VINA RESULT:      -8.0      3.142      5.230
REMARK  2 active torsions:
REMARK  status: ('A' for Active; 'I' for Inactive)
REMARK    1  A    between atoms: C10_16  and  N4_17 
REMARK    2  A    between atoms: N4_17  and  C11_18 
ROOT
HETATM    1  F1  UNL     1      23.316   5.278  47.415  1.00  0.00    -0.104 F 
HETATM    2  N1  UNL     1      23.288   5.908  48.612  1.00  0.00    -0.250 N 
HETATM    3  C1  UNL     1      24.582   6.028  49.168  1.00  0.00     0.157 C 
HETATM    4  C2  UNL     1      25.046   5.103  50.283  1.00  0.00     0.049 C 
HETATM    5  C3  UNL     1      23.977   5.112  51.224  1.00  0.00     0.177 C 
HETATM    6  O1  UNL     1      23.781   4.275  52.354  1.00  0.00    -0.351 OA
HETATM    7  C4  UNL     1      22.827   3.286  51.816  1.00  0.00     0.088 C 
HETATM    8  C5  UNL     1      21.855   4.144  51.420  1.00  0.00     0.045 C 
HETATM    9  C6  UNL     1      20.484   4.533  50.763  1.00  0.00     0.171 C 
HETATM   10  C7  UNL     1      19.416   3.854  51.284  1.00  0.00     0.033 C 
HETATM   11  C8  UNL     1      18.792   2.743  51.617  1.00  0.00     0.142 C 
HETATM   12  O2  UNL     1      19.802   1.932  51.189  1.00  0.00    -0.315 OA
HETATM   13  C9  UNL     1      19.850   1.149  50.075  1.00  0.00     0.279 C 
HETATM   14  N2  UNL     1      21.078   0.807  49.855  1.00  0.00    -0.165 NA
HETATM   15  N3  UNL     1      22.034   1.290  50.764  1.00  0.00    -0.283 N 
HETATM   16  C10 UNL     1      22.941   1.827  51.753  1.00  0.00     0.257 C 
HETATM   17  O3  UNL     1      20.461   5.876  50.648  1.00  0.00    -0.376 OA
HETATM   18  C17 UNL     1      21.277   6.678  50.049  1.00  0.00     0.191 C 
HETATM   19  C18 UNL     1      22.151   6.626  48.905  1.00  0.00     0.181 C 
HETATM   20  H12 UNL     1      22.462   0.780  49.931  1.00  0.00     0.185 HD
ENDROOT
BRANCH  16  21
HETATM   21  N4  UNL     1      24.295   1.427  51.502  1.00  0.00    -0.362 N 
HETATM   22  H14 UNL     1      24.620   1.360  50.501  1.00  0.00     0.162 HD
BRANCH  21  23
HETATM   23  C11 UNL     1      25.247   1.106  52.505  1.00  0.00     0.031 A 
HETATM   24  C12 UNL     1      25.106   0.036  53.354  1.00  0.00     0.029 A 
HETATM   25  C13 UNL     1      26.074  -0.224  54.285  1.00  0.00     0.004 A 
HETATM   26  C14 UNL     1      27.216   0.512  54.456  1.00  0.00     0.024 A 
HETATM   27  C15 UNL     1      27.316   1.566  53.591  1.00  0.00     0.036 A 
HETATM   28 CL1  UNL     1      28.768   2.565  53.737  1.00  0.00    -0.084 Cl
HETATM   29  C16 UNL     1      26.393   1.908  52.620  1.00  0.00     0.053 A 
ENDBRANCH  21  23
ENDBRANCH  16  21
TORSDOF 2
ENDMDL
MODEL 7
REMARK VINA RESULT:      -7.9      3.786      6.231
REMARK  2 active torsions:
REMARK  status: ('A' for Active; 'I' for Inactive)
REMARK    1  A    between atoms: C10_16  and  N4_17 
REMARK    2  A    between atoms: N4_17  and  C11_18 
ROOT
HETATM    1  F1  UNL     1      23.013   2.641  47.598  1.00  0.00    -0.104 F 
HETATM    2  N1  UNL     1      21.869   2.634  48.320  1.00  0.00    -0.250 N 
HETATM    3  C1  UNL     1      21.246   3.903  48.320  1.00  0.00     0.157 C 
HETATM    4  C2  UNL     1      21.353   4.830  49.522  1.00  0.00     0.049 C 
HETATM    5  C3  UNL     1      21.047   4.002  50.641  1.00  0.00     0.177 C 
HETATM    6  O1  UNL     1      21.192   4.288  52.024  1.00  0.00    -0.351 OA
HETATM    7  C4  UNL     1      22.469   3.613  52.324  1.00  0.00     0.088 C 
HETATM    8  C5  UNL     1      22.136   2.365  51.912  1.00  0.00     0.045 C 
HETATM    9  C6  UNL     1      22.400   0.846  51.621  1.00  0.00     0.171 C 
HETATM   10  C7  UNL     1      22.888   0.160  52.701  1.00  0.00     0.033 C 
HETATM   11  C8  UNL     1      23.753  -0.011  53.678  1.00  0.00     0.142 C 
HETATM   12  O2  UNL     1      24.471   1.107  53.370  1.00  0.00    -0.315 OA
HETATM   13  C9  UNL     1      25.696   1.196  52.780  1.00  0.00     0.279 C 
HETATM   14  N2  UNL     1      25.875   2.408  52.364  1.00  0.00    -0.165 NA
HETATM   15  N3  UNL     1      24.825   3.312  52.600  1.00  0.00    -0.283 N 
HETATM   16  C10 UNL     1      23.698   4.167  52.896  1.00  0.00     0.257 C 
HETATM   17  O3  UNL     1      21.344   0.381  50.924  1.00  0.00    -0.376 OA
HETATM   18  C17 UNL     1      20.840   0.780  49.805  1.00  0.00     0.191 C 
HETATM   19  C18 UNL     1      21.322   1.403  48.598  1.00  0.00     0.181 C 
HETATM   20  H12 UNL     1      25.608   3.720  52.002  1.00  0.00     0.185 HD
ENDROOT
BRANCH  16  21
HETATM   21  N4  UNL     1      23.919   5.509  52.441  1.00  0.00    -0.362 N 
HETATM   22  H14 UNL     1      23.862   6.292  53.145  1.00  0.00     0.162 HD
BRANCH  21  23
HETATM   23  C11 UNL     1      24.212   5.876  51.101  1.00  0.00     0.031 A 
HETATM   24  C12 UNL     1      24.867   5.046  50.226  1.00  0.00     0.029 A 
HETATM   25  C13 UNL     1      25.098   5.460  48.942  1.00  0.00     0.004 A 
HETATM   26  C14 UNL     1      24.724   6.674  48.429  1.00  0.00     0.024 A 
HETATM   27  C15 UNL     1      24.075   7.466  49.335  1.00  0.00     0.036 A 
HETATM   28 CL1  UNL     1      23.547   9.051  48.751  1.00  0.00    -0.084 Cl
HETATM   29  C16 UNL     1      23.796   7.137  50.648  1.00  0.00     0.053 A 
ENDBRANCH  21  23
ENDBRANCH  16  21
TORSDOF 2
ENDMDL
MODEL 8
REMARK VINA RESULT:      -7.9      2.331      3.378
REMARK  2 active torsions:
REMARK  status: ('A' for Active; 'I' for Inactive)
REMARK    1  A    between atoms: C10_16  and  N4_17 
REMARK    2  A    between atoms: N4_17  and  C11_18 
ROOT
HETATM    1  F1  UNL     1      19.078   4.017  51.934  1.00  0.00    -0.104 F 
HETATM    2  N1  UNL     1      19.510   3.095  51.044  1.00  0.00    -0.250 N 
HETATM    3  C1  UNL     1      19.739   1.843  51.660  1.00  0.00     0.157 C 
HETATM    4  C2  UNL     1      21.150   1.381  51.994  1.00  0.00     0.049 C 
HETATM    5  C3  UNL     1      21.896   1.618  50.804  1.00  0.00     0.177 C 
HETATM    6  O1  UNL     1      23.301   1.562  50.610  1.00  0.00    -0.351 OA
HETATM    7  C4  UNL     1      23.659   2.991  50.696  1.00  0.00     0.088 C 
HETATM    8  C5  UNL     1      22.849   3.458  49.715  1.00  0.00     0.045 C 
HETATM    9  C6  UNL     1      22.200   4.568  48.815  1.00  0.00     0.171 C 
HETATM   10  C7  UNL     1      23.117   5.363  48.181  1.00  0.00     0.033 C 
HETATM   11  C8  UNL     1      24.165   6.160  48.182  1.00  0.00     0.142 C 
HETATM   12  O2  UNL     1      24.346   6.082  49.532  1.00  0.00    -0.315 OA
HETATM   13  C9  UNL     1      24.078   7.021  50.482  1.00  0.00     0.279 C 
HETATM   14  N2  UNL     1      24.072   6.453  51.645  1.00  0.00    -0.165 NA
HETATM   15  N3  UNL     1      24.329   5.072  51.667  1.00  0.00    -0.283 N 
HETATM   16  C10 UNL     1      24.611   3.657  51.589  1.00  0.00     0.257 C 
HETATM   17  O3  UNL     1      21.193   3.990  48.129  1.00  0.00    -0.376 OA
HETATM   18  C17 UNL     1      20.154   3.352  48.549  1.00  0.00     0.191 C 
HETATM   19  C18 UNL     1      19.304   3.378  49.713  1.00  0.00     0.181 C 
HETATM   20  H12 UNL     1      24.050   5.465  52.617  1.00  0.00     0.185 HD
ENDROOT
BRANCH  16  21
HETATM   21  N4  UNL     1      24.614   3.046  52.886  1.00  0.00    -0.362 N 
HETATM   22  H14 UNL     1      23.983   3.448  53.630  1.00  0.00     0.162 HD
BRANCH  21  23
HETATM   23  C11 UNL     1      25.408   1.929  53.258  1.00  0.00     0.031 A 
HETATM   24  C12 UNL     1      24.910   0.652  53.337  1.00  0.00     0.029 A 
HETATM   25  C13 UNL     1      25.739  -0.379  53.684  1.00  0.00     0.004 A 
HETATM   26  C14 UNL     1      27.072  -0.252  53.974  1.00  0.00     0.024 A 
HETATM   27  C15 UNL     1      27.524   1.035  53.883  1.00  0.00     0.036 A 
HETATM   28 CL1  UNL     1      29.240   1.289  54.233  1.00  0.00    -0.084 Cl
HETATM   29  C16 UNL     1      26.766   2.140  53.541  1.00  0.00     0.053 A 
ENDBRANCH  21  23
ENDBRANCH  16  21
TORSDOF 2
ENDMDL
MODEL 9
REMARK VINA RESULT:      -7.7      4.562      5.838
REMARK  2 active torsions:
REMARK  status: ('A' for Active; 'I' for Inactive)
REMARK    1  A    between atoms: C10_16  and  N4_17 
REMARK    2  A    between atoms: N4_17  and  C11_18 
ROOT
HETATM    1  F1  UNL     1      24.854   3.232  54.004  1.00  0.00    -0.104 F 
HETATM    2  N1  UNL     1      24.802   2.453  52.900  1.00  0.00    -0.250 N 
HETATM    3  C1  UNL     1      26.093   2.064  52.475  1.00  0.00     0.157 C 
HETATM    4  C2  UNL     1      26.768   2.744  51.294  1.00  0.00     0.049 C 
HETATM    5  C3  UNL     1      25.773   2.764  50.275  1.00  0.00     0.177 C 
HETATM    6  O1  UNL     1      25.785   3.455  49.034  1.00  0.00    -0.351 OA
HETATM    7  C4  UNL     1      24.969   4.641  49.360  1.00  0.00     0.088 C 
HETATM    8  C5  UNL     1      23.849   4.002  49.779  1.00  0.00     0.045 C 
HETATM    9  C6  UNL     1      22.395   3.917  50.362  1.00  0.00     0.171 C 
HETATM   10  C7  UNL     1      21.484   4.669  49.670  1.00  0.00     0.033 C 
HETATM   11  C8  UNL     1      21.067   5.803  49.146  1.00  0.00     0.142 C 
HETATM   12  O2  UNL     1      22.165   6.506  49.551  1.00  0.00    -0.315 OA
HETATM   13  C9  UNL     1      22.266   7.421  50.555  1.00  0.00     0.279 C 
HETATM   14  N2  UNL     1      23.518   7.603  50.832  1.00  0.00    -0.165 NA
HETATM   15  N3  UNL     1      24.440   6.860  50.077  1.00  0.00    -0.283 N 
HETATM   16  C10 UNL     1      25.310   6.060  49.244  1.00  0.00     0.257 C 
HETATM   17  O3  UNL     1      22.151   2.622  50.646  1.00  0.00    -0.376 OA
HETATM   18  C17 UNL     1      22.789   1.799  51.408  1.00  0.00     0.191 C 
HETATM   19  C18 UNL     1      23.586   1.879  52.607  1.00  0.00     0.181 C 
HETATM   20  H12 UNL     1      24.890   7.411  50.870  1.00  0.00     0.185 HD
ENDROOT
BRANCH  16  21
HETATM   21  N4  UNL     1      26.691   6.285  49.555  1.00  0.00    -0.362 N 
HETATM   22  H14 UNL     1      26.999   6.204  50.561  1.00  0.00     0.162 HD
BRANCH  21  23
HETATM   23  C11 UNL     1      27.696   6.615  48.607  1.00  0.00     0.031 A 
HETATM   24  C12 UNL     1      27.609   7.707  47.778  1.00  0.00     0.029 A 
HETATM   25  C13 UNL     1      28.625   7.975  46.901  1.00  0.00     0.004 A 
HETATM   26  C14 UNL     1      29.764   7.226  46.766  1.00  0.00     0.024 A 
HETATM   27  C15 UNL     1      29.806   6.150  47.609  1.00  0.00     0.036 A 
HETATM   28 CL1  UNL     1      31.250   5.132  47.507  1.00  0.00    -0.084 Cl
HETATM   29  C16 UNL     1      28.833   5.799  48.526  1.00  0.00     0.053 A 
ENDBRANCH  21  23
ENDBRANCH  16  21
TORSDOF 2
ENDMDL
