MODEL 1
REMARK VINA RESULT:      -8.0      0.000      0.000
REMARK  5 active torsions:
REMARK  status: ('A' for Active; 'I' for Inactive)
REMARK    1  A    between atoms: C2_2  and  C3_3 
REMARK    2  A    between atoms: C5_5  and  N1_6 
REMARK    3  A    between atoms: N1_6  and  C6_7 
REMARK    4  A    between atoms: C11_14  and  O1_15 
REMARK    5  A    between atoms: C16_20  and  O2_21 
ROOT
HETATM    1  N1  UNL     1      26.184   2.221  50.841  1.00  0.00    -0.340 N 
HETATM    2  H7  UNL     1      26.051   1.693  49.953  1.00  0.00     0.167 HD
ENDROOT
BRANCH   1   3
HETATM    3  C5  UNL     1      25.659   3.523  50.610  1.00  0.00     0.038 A 
HETATM    4  C4  UNL     1      26.481   4.277  49.671  1.00  0.00     0.062 A 
HETATM    5  C3  UNL     1      26.351   5.536  49.283  1.00  0.00     0.054 A 
HETATM    6  O3  UNL     1      25.388   6.451  49.683  1.00  0.00    -0.324 OA
HETATM    7  C18 UNL     1      24.225   6.322  50.435  1.00  0.00     0.178 A 
HETATM    8  C16 UNL     1      23.891   5.209  51.091  1.00  0.00     0.092 A 
HETATM    9  C15 UNL     1      24.551   3.914  51.222  1.00  0.00     0.068 A 
BRANCH   5  10
HETATM   10  C2  UNL     1      27.285   6.188  48.295  1.00  0.00     0.060 C 
HETATM   11  C1  UNL     1      28.561   5.363  48.327  1.00  0.00     0.012 C 
ENDBRANCH   5  10
BRANCH   8  12
HETATM   12  O2  UNL     1      22.672   5.327  51.777  1.00  0.00    -0.354 OA
HETATM   13  C17 UNL     1      21.924   4.188  52.142  1.00  0.00     0.210 C 
ENDBRANCH   8  12
ENDBRANCH   1   3
BRANCH   1  14
HETATM   14  C6  UNL     1      26.746   1.876  52.102  1.00  0.00     0.142 A 
HETATM   15  N2  UNL     1      27.926   2.461  52.363  1.00  0.00    -0.224 NA
HETATM   16  C7  UNL     1      28.533   2.182  53.553  1.00  0.00     0.236 A 
HETATM   17  N3  UNL     1      27.930   1.339  54.410  1.00  0.00    -0.241 NA
HETATM   18  C8  UNL     1      26.753   0.761  54.138  1.00  0.00     0.072 A 
HETATM   19  C9  UNL     1      26.157  -0.109  55.052  1.00  0.00     0.035 A 
HETATM   20  C14 UNL     1      26.083   1.006  52.938  1.00  0.00     0.041 A 
HETATM   21  C10 UNL     1      24.931  -0.672  54.699  1.00  0.00     0.039 A 
HETATM   22  C11 UNL     1      24.263  -0.427  53.502  1.00  0.00     0.069 A 
HETATM   23  C13 UNL     1      24.877   0.435  52.623  1.00  0.00     0.054 A 
BRANCH  22  24
HETATM   24  O1  UNL     1      23.046  -1.034  53.238  1.00  0.00    -0.356 OA
HETATM   25  C12 UNL     1      22.186  -1.303  54.327  1.00  0.00     0.210 C 
ENDBRANCH  22  24
ENDBRANCH   1  14
TORSDOF 5
ENDMDL
MODEL 2
REMARK VINA RESULT:      -7.7      0.824      3.018
REMARK  5 active torsions:
REMARK  status: ('A' for Active; 'I' for Inactive)
REMARK    1  A    between atoms: C2_2  and  C3_3 
REMARK    2  A    between atoms: C5_5  and  N1_6 
REMARK    3  A    between atoms: N1_6  and  C6_7 
REMARK    4  A    between atoms: C11_14  and  O1_15 
REMARK    5  A    between atoms: C16_20  and  O2_21 
ROOT
HETATM    1  N1  UNL     1      26.386   2.108  50.808  1.00  0.00    -0.340 N 
HETATM    2  H7  UNL     1      26.203   1.512  49.972  1.00  0.00     0.167 HD
ENDROOT
BRANCH   1   3
HETATM    3  C5  UNL     1      26.000   3.428  50.445  1.00  0.00     0.038 A 
HETATM    4  C4  UNL     1      24.782   3.842  51.132  1.00  0.00     0.062 A 
HETATM    5  C3  UNL     1      24.088   4.960  50.986  1.00  0.00     0.054 A 
HETATM    6  O3  UNL     1      24.359   6.019  50.132  1.00  0.00    -0.324 OA
HETATM    7  C18 UNL     1      25.452   6.322  49.327  1.00  0.00     0.178 A 
HETATM    8  C16 UNL     1      26.461   5.476  49.107  1.00  0.00     0.092 A 
HETATM    9  C15 UNL     1      26.723   4.120  49.577  1.00  0.00     0.068 A 
BRANCH   5  10
HETATM   10  C2  UNL     1      22.836   5.254  51.772  1.00  0.00     0.060 C 
HETATM   11  C1  UNL     1      21.985   6.140  50.876  1.00  0.00     0.012 C 
ENDBRANCH   5  10
BRANCH   8  12
HETATM   12  O2  UNL     1      27.444   6.012  48.259  1.00  0.00    -0.354 OA
HETATM   13  C17 UNL     1      28.750   5.478  48.223  1.00  0.00     0.210 C 
ENDBRANCH   8  12
ENDBRANCH   1   3
BRANCH   1  14
HETATM   14  C6  UNL     1      26.904   1.831  52.103  1.00  0.00     0.142 A 
HETATM   15  N2  UNL     1      28.064   2.447  52.381  1.00  0.00    -0.224 NA
HETATM   16  C7  UNL     1      28.630   2.234  53.605  1.00  0.00     0.236 A 
HETATM   17  N3  UNL     1      28.007   1.422  54.477  1.00  0.00    -0.241 NA
HETATM   18  C8  UNL     1      26.849   0.812  54.189  1.00  0.00     0.072 A 
HETATM   19  C9  UNL     1      26.231  -0.024  55.120  1.00  0.00     0.035 A 
HETATM   20  C14 UNL     1      26.223   0.991  52.954  1.00  0.00     0.041 A 
HETATM   21  C10 UNL     1      25.028  -0.623  54.748  1.00  0.00     0.039 A 
HETATM   22  C11 UNL     1      24.404  -0.445  53.516  1.00  0.00     0.069 A 
HETATM   23  C13 UNL     1      25.037   0.386  52.621  1.00  0.00     0.054 A 
BRANCH  22  24
HETATM   24  O1  UNL     1      23.206  -1.082  53.235  1.00  0.00    -0.356 OA
HETATM   25  C12 UNL     1      22.243  -1.175  54.267  1.00  0.00     0.210 C 
ENDBRANCH  22  24
ENDBRANCH   1  14
TORSDOF 5
ENDMDL
MODEL 3
REMARK VINA RESULT:      -7.7      2.109      6.720
REMARK  5 active torsions:
REMARK  status: ('A' for Active; 'I' for Inactive)
REMARK    1  A    between atoms: C2_2  and  C3_3 
REMARK    2  A    between atoms: C5_5  and  N1_6 
REMARK    3  A    between atoms: N1_6  and  C6_7 
REMARK    4  A    between atoms: C11_14  and  O1_15 
REMARK    5  A    between atoms: C16_20  and  O2_21 
ROOT
HETATM    1  N1  UNL     1      24.046   1.213  51.626  1.00  0.00    -0.340 N 
HETATM    2  H7  UNL     1      24.207   0.522  50.864  1.00  0.00     0.167 HD
ENDROOT
BRANCH   1   3
HETATM    3  C5  UNL     1      24.329   0.532  52.844  1.00  0.00     0.038 A 
HETATM    4  C4  UNL     1      25.719   0.705  53.248  1.00  0.00     0.062 A 
HETATM    5  C3  UNL     1      26.358   0.158  54.270  1.00  0.00     0.054 A 
HETATM    6  O3  UNL     1      25.849  -0.721  55.215  1.00  0.00    -0.324 OA
HETATM    7  C18 UNL     1      24.558  -1.162  55.489  1.00  0.00     0.178 A 
HETATM    8  C16 UNL     1      23.508  -0.897  54.709  1.00  0.00     0.092 A 
HETATM    9  C15 UNL     1      23.378  -0.151  53.462  1.00  0.00     0.068 A 
BRANCH   5  10
HETATM   10  C2  UNL     1      27.810   0.431  54.568  1.00  0.00     0.060 C 
HETATM   11  C1  UNL     1      28.258   1.454  53.537  1.00  0.00     0.012 C 
ENDBRANCH   5  10
BRANCH   8  12
HETATM   12  O2  UNL     1      22.314  -1.451  55.199  1.00  0.00    -0.354 OA
HETATM   13  C17 UNL     1      21.179  -1.588  54.372  1.00  0.00     0.210 C 
ENDBRANCH   8  12
ENDBRANCH   1   3
BRANCH   1  14
HETATM   14  C6  UNL     1      23.635   2.575  51.632  1.00  0.00     0.142 A 
HETATM   15  N2  UNL     1      22.500   2.809  52.310  1.00  0.00    -0.224 NA
HETATM   16  C7  UNL     1      22.035   4.091  52.364  1.00  0.00     0.236 A 
HETATM   17  N3  UNL     1      22.727   5.062  51.741  1.00  0.00    -0.241 NA
HETATM   18  C8  UNL     1      23.859   4.816  51.068  1.00  0.00     0.072 A 
HETATM   19  C9  UNL     1      24.551   5.848  50.434  1.00  0.00     0.035 A 
HETATM   20  C14 UNL     1      24.384   3.525  50.977  1.00  0.00     0.041 A 
HETATM   21  C10 UNL     1      25.721   5.515  49.753  1.00  0.00     0.039 A 
HETATM   22  C11 UNL     1      26.244   4.228  49.662  1.00  0.00     0.069 A 
HETATM   23  C13 UNL     1      25.539   3.233  50.298  1.00  0.00     0.054 A 
BRANCH  22  24
HETATM   24  O1  UNL     1      27.416   3.992  48.961  1.00  0.00    -0.356 OA
HETATM   25  C12 UNL     1      28.146   5.108  48.488  1.00  0.00     0.210 C 
ENDBRANCH  22  24
ENDBRANCH   1  14
TORSDOF 5
ENDMDL
MODEL 4
REMARK VINA RESULT:      -7.5      2.247      7.239
REMARK  5 active torsions:
REMARK  status: ('A' for Active; 'I' for Inactive)
REMARK    1  A    between atoms: C2_2  and  C3_3 
REMARK    2  A    between atoms: C5_5  and  N1_6 
REMARK    3  A    between atoms: N1_6  and  C6_7 
REMARK    4  A    between atoms: C11_14  and  O1_15 
REMARK    5  A    between atoms: C16_20  and  O2_21 
ROOT
HETATM    1  N1  UNL     1      24.935   2.044  50.887  1.00  0.00    -0.340 N 
HETATM    2  H7  UNL     1      24.911   1.316  50.142  1.00  0.00     0.167 HD
ENDROOT
BRANCH   1   3
HETATM    3  C5  UNL     1      25.410   1.394  52.061  1.00  0.00     0.038 A 
HETATM    4  C4  UNL     1      24.381   0.560  52.670  1.00  0.00     0.062 A 
HETATM    5  C3  UNL     1      24.431  -0.123  53.802  1.00  0.00     0.054 A 
HETATM    6  O3  UNL     1      25.492  -0.209  54.692  1.00  0.00    -0.324 OA
HETATM    7  C18 UNL     1      26.814   0.218  54.623  1.00  0.00     0.178 A 
HETATM    8  C16 UNL     1      27.286   0.996  53.647  1.00  0.00     0.092 A 
HETATM    9  C15 UNL     1      26.654   1.586  52.472  1.00  0.00     0.068 A 
BRANCH   5  10
HETATM   10  C2  UNL     1      23.278  -0.950  54.312  1.00  0.00     0.060 C 
HETATM   11  C1  UNL     1      22.233  -0.925  53.209  1.00  0.00     0.012 C 
ENDBRANCH   5  10
BRANCH   8  12
HETATM   12  O2  UNL     1      28.651   1.290  53.800  1.00  0.00    -0.354 OA
HETATM   13  C17 UNL     1      29.633   0.283  53.691  1.00  0.00     0.210 C 
ENDBRANCH   8  12
ENDBRANCH   1   3
BRANCH   1  14
HETATM   14  C6  UNL     1      24.602   3.427  50.905  1.00  0.00     0.142 A 
HETATM   15  N2  UNL     1      23.495   3.723  51.606  1.00  0.00    -0.224 NA
HETATM   16  C7  UNL     1      23.106   5.029  51.673  1.00  0.00     0.236 A 
HETATM   17  N3  UNL     1      23.841   5.961  51.039  1.00  0.00    -0.241 NA
HETATM   18  C8  UNL     1      24.943   5.653  50.343  1.00  0.00     0.072 A 
HETATM   19  C9  UNL     1      25.681   6.647  49.699  1.00  0.00     0.035 A 
HETATM   20  C14 UNL     1      25.391   4.335  50.238  1.00  0.00     0.041 A 
HETATM   21  C10 UNL     1      26.817   6.251  48.994  1.00  0.00     0.039 A 
HETATM   22  C11 UNL     1      27.264   4.936  48.889  1.00  0.00     0.069 A 
HETATM   23  C13 UNL     1      26.515   3.980  49.536  1.00  0.00     0.054 A 
BRANCH  22  24
HETATM   24  O1  UNL     1      28.406   4.636  48.166  1.00  0.00    -0.356 OA
HETATM   25  C12 UNL     1      29.482   5.554  48.209  1.00  0.00     0.210 C 
ENDBRANCH  22  24
ENDBRANCH   1  14
TORSDOF 5
ENDMDL
MODEL 5
REMARK VINA RESULT:      -7.3      1.895      2.400
REMARK  5 active torsions:
REMARK  status: ('A' for Active; 'I' for Inactive)
REMARK    1  A    between atoms: C2_2  and  C3_3 
REMARK    2  A    between atoms: C5_5  and  N1_6 
REMARK    3  A    between atoms: N1_6  and  C6_7 
REMARK    4  A    between atoms: C11_14  and  O1_15 
REMARK    5  A    between atoms: C16_20  and  O2_21 
ROOT
HETATM    1  N1  UNL     1      25.793   3.341  49.662  1.00  0.00    -0.340 N 
HETATM    2  H7  UNL     1      25.579   3.045  48.686  1.00  0.00     0.167 HD
ENDROOT
BRANCH   1   3
HETATM    3  C5  UNL     1      25.949   4.755  49.622  1.00  0.00     0.038 A 
HETATM    4  C4  UNL     1      27.083   5.149  48.794  1.00  0.00     0.062 A 
HETATM    5  C3  UNL     1      27.578   6.359  48.589  1.00  0.00     0.054 A 
HETATM    6  O3  UNL     1      27.129   7.559  49.121  1.00  0.00    -0.324 OA
HETATM    7  C18 UNL     1      25.997   7.896  49.856  1.00  0.00     0.178 A 
HETATM    8  C16 UNL     1      25.143   6.995  50.348  1.00  0.00     0.092 A 
HETATM    9  C15 UNL     1      25.115   5.538  50.290  1.00  0.00     0.068 A 
BRANCH   5  10
HETATM   10  C2  UNL     1      28.767   6.617  47.699  1.00  0.00     0.060 C 
HETATM   11  C1  UNL     1      29.770   5.522  48.021  1.00  0.00     0.012 C 
ENDBRANCH   5  10
BRANCH   8  12
HETATM   12  O2  UNL     1      24.080   7.583  51.052  1.00  0.00    -0.354 OA
HETATM   13  C17 UNL     1      22.743   7.417  50.631  1.00  0.00     0.210 C 
ENDBRANCH   8  12
ENDBRANCH   1   3
BRANCH   1  14
HETATM   14  C6  UNL     1      25.934   2.628  50.885  1.00  0.00     0.142 A 
HETATM   15  N2  UNL     1      27.165   2.681  51.419  1.00  0.00    -0.224 NA
HETATM   16  C7  UNL     1      27.385   2.021  52.594  1.00  0.00     0.236 A 
HETATM   17  N3  UNL     1      26.369   1.350  53.165  1.00  0.00    -0.241 NA
HETATM   18  C8  UNL     1      25.145   1.305  52.622  1.00  0.00     0.072 A 
HETATM   19  C9  UNL     1      24.114   0.599  53.243  1.00  0.00     0.035 A 
HETATM   20  C14 UNL     1      24.858   1.959  51.422  1.00  0.00     0.041 A 
HETATM   21  C10 UNL     1      22.868   0.598  52.619  1.00  0.00     0.039 A 
HETATM   22  C11 UNL     1      22.582   1.250  51.422  1.00  0.00     0.069 A 
HETATM   23  C13 UNL     1      23.619   1.938  50.835  1.00  0.00     0.054 A 
BRANCH  22  24
HETATM   24  O1  UNL     1      21.310   1.193  50.875  1.00  0.00    -0.356 OA
HETATM   25  C12 UNL     1      20.304   0.510  51.598  1.00  0.00     0.210 C 
ENDBRANCH  22  24
ENDBRANCH   1  14
TORSDOF 5
ENDMDL
MODEL 6
REMARK VINA RESULT:      -7.3      2.571      6.776
REMARK  5 active torsions:
REMARK  status: ('A' for Active; 'I' for Inactive)
REMARK    1  A    between atoms: C2_2  and  C3_3 
REMARK    2  A    between atoms: C5_5  and  N1_6 
REMARK    3  A    between atoms: N1_6  and  C6_7 
REMARK    4  A    between atoms: C11_14  and  O1_15 
REMARK    5  A    between atoms: C16_20  and  O2_21 
ROOT
HETATM    1  N1  UNL     1      24.298   3.622  52.879  1.00  0.00    -0.340 N 
HETATM    2  H7  UNL     1      24.202   4.202  53.740  1.00  0.00     0.167 HD
ENDROOT
BRANCH   1   3
HETATM    3  C5  UNL     1      24.759   2.347  53.311  1.00  0.00     0.038 A 
HETATM    4  C4  UNL     1      23.744   1.316  53.130  1.00  0.00     0.062 A 
HETATM    5  C3  UNL     1      23.785   0.042  53.488  1.00  0.00     0.054 A 
HETATM    6  O3  UNL     1      24.817  -0.625  54.130  1.00  0.00    -0.324 OA
HETATM    7  C18 UNL     1      26.123  -0.258  54.441  1.00  0.00     0.178 A 
HETATM    8  C16 UNL     1      26.596   0.981  54.289  1.00  0.00     0.092 A 
HETATM    9  C15 UNL     1      25.980   2.212  53.807  1.00  0.00     0.068 A 
BRANCH   5  10
HETATM   10  C2  UNL     1      22.649  -0.916  53.233  1.00  0.00     0.060 C 
HETATM   11  C1  UNL     1      22.177  -1.371  54.604  1.00  0.00     0.012 C 
ENDBRANCH   5  10
BRANCH   8  12
HETATM   12  O2  UNL     1      27.942   1.099  54.672  1.00  0.00    -0.354 OA
HETATM   13  C17 UNL     1      28.975   1.143  53.712  1.00  0.00     0.210 C 
ENDBRANCH   8  12
ENDBRANCH   1   3
BRANCH   1  14
HETATM   14  C6  UNL     1      24.065   3.883  51.501  1.00  0.00     0.142 A 
HETATM   15  N2  UNL     1      25.179   4.014  50.764  1.00  0.00    -0.224 NA
HETATM   16  C7  UNL     1      25.043   4.266  49.429  1.00  0.00     0.236 A 
HETATM   17  N3  UNL     1      23.807   4.372  48.909  1.00  0.00    -0.241 NA
HETATM   18  C8  UNL     1      22.702   4.239  49.655  1.00  0.00     0.072 A 
HETATM   19  C9  UNL     1      21.435   4.354  49.081  1.00  0.00     0.035 A 
HETATM   20  C14 UNL     1      22.777   3.980  51.025  1.00  0.00     0.041 A 
HETATM   21  C10 UNL     1      20.332   4.203  49.920  1.00  0.00     0.039 A 
HETATM   22  C11 UNL     1      20.407   3.946  51.286  1.00  0.00     0.069 A 
HETATM   23  C13 UNL     1      21.670   3.836  51.822  1.00  0.00     0.054 A 
BRANCH  22  24
HETATM   24  O1  UNL     1      19.254   3.810  52.042  1.00  0.00    -0.356 OA
HETATM   25  C12 UNL     1      18.029   3.618  51.360  1.00  0.00     0.210 C 
ENDBRANCH  22  24
ENDBRANCH   1  14
TORSDOF 5
ENDMDL
MODEL 7
REMARK VINA RESULT:      -7.2      2.485      3.565
REMARK  5 active torsions:
REMARK  status: ('A' for Active; 'I' for Inactive)
REMARK    1  A    between atoms: C2_2  and  C3_3 
REMARK    2  A    between atoms: C5_5  and  N1_6 
REMARK    3  A    between atoms: N1_6  and  C6_7 
REMARK    4  A    between atoms: C11_14  and  O1_15 
REMARK    5  A    between atoms: C16_20  and  O2_21 
ROOT
HETATM    1  N1  UNL     1      25.724   3.437  49.332  1.00  0.00    -0.340 N 
HETATM    2  H7  UNL     1      26.228   3.119  48.477  1.00  0.00     0.167 HD
ENDROOT
BRANCH   1   3
HETATM    3  C5  UNL     1      25.944   4.840  49.420  1.00  0.00     0.038 A 
HETATM    4  C4  UNL     1      27.111   5.254  48.650  1.00  0.00     0.062 A 
HETATM    5  C3  UNL     1      27.662   6.453  48.563  1.00  0.00     0.054 A 
HETATM    6  O3  UNL     1      27.255   7.621  49.193  1.00  0.00    -0.324 OA
HETATM    7  C18 UNL     1      26.124   7.943  49.935  1.00  0.00     0.178 A 
HETATM    8  C16 UNL     1      25.222   7.042  50.331  1.00  0.00     0.092 A 
HETATM    9  C15 UNL     1      25.131   5.598  50.142  1.00  0.00     0.068 A 
BRANCH   5  10
HETATM   10  C2  UNL     1      28.880   6.735  47.719  1.00  0.00     0.060 C 
HETATM   11  C1  UNL     1      29.849   5.599  48.000  1.00  0.00     0.012 C 
ENDBRANCH   5  10
BRANCH   8  12
HETATM   12  O2  UNL     1      24.171   7.613  51.066  1.00  0.00    -0.354 OA
HETATM   13  C17 UNL     1      22.852   7.631  50.565  1.00  0.00     0.210 C 
ENDBRANCH   8  12
ENDBRANCH   1   3
BRANCH   1  14
HETATM   14  C6  UNL     1      24.944   2.759  50.308  1.00  0.00     0.142 A 
HETATM   15  N2  UNL     1      23.632   2.698  50.027  1.00  0.00    -0.224 NA
HETATM   16  C7  UNL     1      22.812   2.064  50.914  1.00  0.00     0.236 A 
HETATM   17  N3  UNL     1      23.346   1.528  52.027  1.00  0.00    -0.241 NA
HETATM   18  C8  UNL     1      24.656   1.595  52.297  1.00  0.00     0.072 A 
HETATM   19  C9  UNL     1      25.175   1.027  53.461  1.00  0.00     0.035 A 
HETATM   20  C14 UNL     1      25.545   2.231  51.428  1.00  0.00     0.041 A 
HETATM   21  C10 UNL     1      26.549   1.136  53.673  1.00  0.00     0.039 A 
HETATM   22  C11 UNL     1      27.435   1.770  52.807  1.00  0.00     0.069 A 
HETATM   23  C13 UNL     1      26.893   2.319  51.668  1.00  0.00     0.054 A 
BRANCH  22  24
HETATM   24  O1  UNL     1      28.787   1.830  53.102  1.00  0.00    -0.356 OA
HETATM   25  C12 UNL     1      29.294   0.948  54.085  1.00  0.00     0.210 C 
ENDBRANCH  22  24
ENDBRANCH   1  14
TORSDOF 5
ENDMDL
MODEL 8
REMARK VINA RESULT:      -7.2      3.458      6.671
REMARK  5 active torsions:
REMARK  status: ('A' for Active; 'I' for Inactive)
REMARK    1  A    between atoms: C2_2  and  C3_3 
REMARK    2  A    between atoms: C5_5  and  N1_6 
REMARK    3  A    between atoms: N1_6  and  C6_7 
REMARK    4  A    between atoms: C11_14  and  O1_15 
REMARK    5  A    between atoms: C16_20  and  O2_21 
ROOT
HETATM    1  N1  UNL     1      24.100   1.393  51.469  1.00  0.00    -0.340 N 
HETATM    2  H7  UNL     1      24.273   0.807  50.624  1.00  0.00     0.167 HD
ENDROOT
BRANCH   1   3
HETATM    3  C5  UNL     1      24.906   0.842  52.504  1.00  0.00     0.038 A 
HETATM    4  C4  UNL     1      24.122   0.027  53.423  1.00  0.00     0.062 A 
HETATM    5  C3  UNL     1      24.510  -0.571  54.538  1.00  0.00     0.054 A 
HETATM    6  O3  UNL     1      25.776  -0.564  55.105  1.00  0.00    -0.324 OA
HETATM    7  C18 UNL     1      27.008  -0.108  54.649  1.00  0.00     0.178 A 
HETATM    8  C16 UNL     1      27.160   0.610  53.534  1.00  0.00     0.092 A 
HETATM    9  C15 UNL     1      26.206   1.097  52.544  1.00  0.00     0.068 A 
BRANCH   5  10
HETATM   10  C2  UNL     1      23.579  -1.389  55.396  1.00  0.00     0.060 C 
HETATM   11  C1  UNL     1      22.181  -1.115  54.865  1.00  0.00     0.012 C 
ENDBRANCH   5  10
BRANCH   8  12
HETATM   12  O2  UNL     1      28.500   0.951  53.287  1.00  0.00    -0.354 OA
HETATM   13  C17 UNL     1      29.325   1.465  54.310  1.00  0.00     0.210 C 
ENDBRANCH   8  12
ENDBRANCH   1   3
BRANCH   1  14
HETATM   14  C6  UNL     1      23.276   2.526  51.712  1.00  0.00     0.142 A 
HETATM   15  N2  UNL     1      23.951   3.665  51.939  1.00  0.00    -0.224 NA
HETATM   16  C7  UNL     1      23.234   4.800  52.182  1.00  0.00     0.236 A 
HETATM   17  N3  UNL     1      21.890   4.734  52.184  1.00  0.00    -0.241 NA
HETATM   18  C8  UNL     1      21.228   3.592  51.957  1.00  0.00     0.072 A 
HETATM   19  C9  UNL     1      19.833   3.561  51.966  1.00  0.00     0.035 A 
HETATM   20  C14 UNL     1      21.906   2.398  51.702  1.00  0.00     0.041 A 
HETATM   21  C10 UNL     1      19.215   2.336  51.721  1.00  0.00     0.039 A 
HETATM   22  C11 UNL     1      19.891   1.145  51.467  1.00  0.00     0.069 A 
HETATM   23  C13 UNL     1      21.265   1.209  51.464  1.00  0.00     0.054 A 
BRANCH  22  24
HETATM   24  O1  UNL     1      19.190  -0.027  51.234  1.00  0.00    -0.356 OA
HETATM   25  C12 UNL     1      18.167  -0.383  52.143  1.00  0.00     0.210 C 
ENDBRANCH  22  24
ENDBRANCH   1  14
TORSDOF 5
ENDMDL
MODEL 9
REMARK VINA RESULT:      -7.1      2.426      3.518
REMARK  5 active torsions:
REMARK  status: ('A' for Active; 'I' for Inactive)
REMARK    1  A    between atoms: C2_2  and  C3_3 
REMARK    2  A    between atoms: C5_5  and  N1_6 
REMARK    3  A    between atoms: N1_6  and  C6_7 
REMARK    4  A    between atoms: C11_14  and  O1_15 
REMARK    5  A    between atoms: C16_20  and  O2_21 
ROOT
HETATM    1  N1  UNL     1      23.580   3.656  52.630  1.00  0.00    -0.340 N 
HETATM    2  H7  UNL     1      23.653   4.432  53.321  1.00  0.00     0.167 HD
ENDROOT
BRANCH   1   3
HETATM    3  C5  UNL     1      23.714   4.256  51.346  1.00  0.00     0.038 A 
HETATM    4  C4  UNL     1      25.028   4.006  50.768  1.00  0.00     0.062 A 
HETATM    5  C3  UNL     1      25.537   4.469  49.637  1.00  0.00     0.054 A 
HETATM    6  O3  UNL     1      24.931   5.313  48.719  1.00  0.00    -0.324 OA
HETATM    7  C18 UNL     1      23.629   5.789  48.596  1.00  0.00     0.178 A 
HETATM    8  C16 UNL     1      22.689   5.610  49.526  1.00  0.00     0.092 A 
HETATM    9  C15 UNL     1      22.708   4.941  50.823  1.00  0.00     0.068 A 
BRANCH   5  10
HETATM   10  C2  UNL     1      26.925   4.123  49.162  1.00  0.00     0.060 C 
HETATM   11  C1  UNL     1      27.501   5.411  48.597  1.00  0.00     0.012 C 
ENDBRANCH   5  10
BRANCH   8  12
HETATM   12  O2  UNL     1      21.457   6.183  49.170  1.00  0.00    -0.354 OA
HETATM   13  C17 UNL     1      20.236   5.571  49.526  1.00  0.00     0.210 C 
ENDBRANCH   8  12
ENDBRANCH   1   3
BRANCH   1  14
HETATM   14  C6  UNL     1      23.389   2.253  52.762  1.00  0.00     0.142 A 
HETATM   15  N2  UNL     1      22.173   1.821  52.392  1.00  0.00    -0.224 NA
HETATM   16  C7  UNL     1      21.907   0.485  52.488  1.00  0.00     0.236 A 
HETATM   17  N3  UNL     1      22.868  -0.339  52.945  1.00  0.00    -0.241 NA
HETATM   18  C8  UNL     1      24.078   0.105  53.310  1.00  0.00     0.072 A 
HETATM   19  C9  UNL     1      25.050  -0.780  53.779  1.00  0.00     0.035 A 
HETATM   20  C14 UNL     1      24.409   1.459  53.235  1.00  0.00     0.041 A 
HETATM   21  C10 UNL     1      26.286  -0.245  54.140  1.00  0.00     0.039 A 
HETATM   22  C11 UNL     1      26.616   1.106  54.065  1.00  0.00     0.069 A 
HETATM   23  C13 UNL     1      25.636   1.951  53.598  1.00  0.00     0.054 A 
BRANCH  22  24
HETATM   24  O1  UNL     1      27.872   1.546  54.447  1.00  0.00    -0.356 OA
HETATM   25  C12 UNL     1      28.878   0.577  54.672  1.00  0.00     0.210 C 
ENDBRANCH  22  24
ENDBRANCH   1  14
TORSDOF 5
ENDMDL
