MODEL 1
REMARK VINA RESULT:      -8.6      0.000      0.000
REMARK  3 active torsions:
REMARK  status: ('A' for Active; 'I' for Inactive)
REMARK    1  A    between atoms: C2_2  and  C3_3 
REMARK    2  A    between atoms: C3_3  and  C4_4 
REMARK    3  A    between atoms: C4_4  and  C5_5 
ROOT
HETATM    1  C5  UNL     1      26.110   1.316  52.345  1.00  0.00     0.104 A 
HETATM    2  N1  UNL     1      25.473   2.178  53.504  1.00  0.00    -0.372 N 
HETATM    3  C6  UNL     1      24.453   3.075  52.882  1.00  0.00     0.298 C 
HETATM    4  N2  UNL     1      23.504   3.712  52.199  1.00  0.00    -0.272 NA
HETATM    5  C7  UNL     1      22.913   2.966  51.126  1.00  0.00     0.146 C 
HETATM    6  N3  UNL     1      22.333   3.304  49.890  1.00  0.00    -0.262 NA
HETATM    7  C8  UNL     1      20.892   3.488  50.329  1.00  0.00     0.053 C 
HETATM    8  C9  UNL     1      20.330   4.554  50.836  1.00  0.00     0.028 C 
HETATM    9  C10 UNL     1      18.857   4.653  50.713  1.00  0.00     0.197 C 
HETATM   10  O1  UNL     1      18.191   3.471  50.496  1.00  0.00    -0.378 OA
HETATM   11  C11 UNL     1      18.051   2.751  51.632  1.00  0.00     0.270 C 
HETATM   12  C12 UNL     1      18.530   1.270  51.470  1.00  0.00     0.244 C 
HETATM   13  O2  UNL     1      18.122   0.130  51.754  1.00  0.00    -0.271 OA
HETATM   14  N4  UNL     1      19.912   1.259  50.809  1.00  0.00    -0.340 N 
HETATM   15  C13 UNL     1      20.481   0.001  51.246  1.00  0.00     0.128 C 
HETATM   16  C14 UNL     1      20.764  -0.215  52.697  1.00  0.00     0.039 C 
HETATM   17  C15 UNL     1      21.729  -1.396  52.908  1.00  0.00     0.115 C 
HETATM   18  N5  UNL     1      21.942  -1.675  54.243  1.00  0.00    -0.419 N 
HETATM   19  C16 UNL     1      22.653  -0.838  55.152  1.00  0.00     0.140 C 
HETATM   20  C17 UNL     1      24.146  -0.792  54.709  1.00  0.00     0.188 C 
HETATM   21  O3  UNL     1      24.183  -0.228  53.413  1.00  0.00    -0.371 OA
HETATM   22  C18 UNL     1      25.166   0.452  52.880  1.00  0.00     0.146 A 
HETATM   23  C19 UNL     1      26.438   0.110  52.299  1.00  0.00     0.290 A 
HETATM   24 CL1  UNL     1      26.561  -1.770  52.466  1.00  0.00    -0.251 Cl
HETATM   25  C20 UNL     1      20.648   2.076  49.919  1.00  0.00     0.143 C 
HETATM   26  C21 UNL     1      21.895   1.497  49.428  1.00  0.00     0.058 C 
HETATM   27  C22 UNL     1      22.516   1.608  50.649  1.00  0.00     0.027 C 
HETATM   28  H7  UNL     1      25.382   2.524  54.547  1.00  0.00     0.161 HD
HETATM   29  H20 UNL     1      21.965  -2.682  54.558  1.00  0.00     0.153 HD
ENDROOT
BRANCH   1  30
HETATM   30  C4  UNL     1      26.914   2.205  51.887  1.00  0.00     0.009 C 
BRANCH  30  31
HETATM   31  C3  UNL     1      26.820   2.906  50.772  1.00  0.00    -0.006 C 
BRANCH  31  32
HETATM   32  C2  UNL     1      26.692   3.738  49.593  1.00  0.00    -0.031 C 
HETATM   33  C1  UNL     1      26.898   4.993  48.828  1.00  0.00     0.036 C 
ENDBRANCH  31  32
ENDBRANCH  30  31
ENDBRANCH   1  30
TORSDOF 3
ENDMDL
MODEL 2
REMARK VINA RESULT:      -7.6      3.141      6.405
REMARK  3 active torsions:
REMARK  status: ('A' for Active; 'I' for Inactive)
REMARK    1  A    between atoms: C2_2  and  C3_3 
REMARK    2  A    between atoms: C3_3  and  C4_4 
REMARK    3  A    between atoms: C4_4  and  C5_5 
ROOT
HETATM    1  C5  UNL     1      20.163   0.576  51.702  1.00  0.00     0.104 A 
HETATM    2  N1  UNL     1      21.175   0.125  50.578  1.00  0.00    -0.372 N 
HETATM    3  C6  UNL     1      21.134   1.162  49.502  1.00  0.00     0.298 C 
HETATM    4  N2  UNL     1      21.076   2.223  48.701  1.00  0.00    -0.272 NA
HETATM    5  C7  UNL     1      20.878   3.481  49.362  1.00  0.00     0.146 C 
HETATM    6  N3  UNL     1      20.264   4.697  49.009  1.00  0.00    -0.262 NA
HETATM    7  C8  UNL     1      21.450   5.406  48.382  1.00  0.00     0.053 C 
HETATM    8  C9  UNL     1      21.889   5.319  47.154  1.00  0.00     0.028 C 
HETATM    9  C10 UNL     1      22.712   6.448  46.660  1.00  0.00     0.197 C 
HETATM   10  O1  UNL     1      23.297   7.233  47.624  1.00  0.00    -0.378 OA
HETATM   11  C11 UNL     1      24.400   6.653  48.150  1.00  0.00     0.270 C 
HETATM   12  C12 UNL     1      24.375   6.620  49.714  1.00  0.00     0.244 C 
HETATM   13  O2  UNL     1      25.146   6.872  50.657  1.00  0.00    -0.271 OA
HETATM   14  N4  UNL     1      23.020   6.081  50.183  1.00  0.00    -0.340 N 
HETATM   15  C13 UNL     1      23.311   5.543  51.496  1.00  0.00     0.128 C 
HETATM   16  C14 UNL     1      24.236   4.378  51.626  1.00  0.00     0.039 C 
HETATM   17  C15 UNL     1      24.091   3.700  53.000  1.00  0.00     0.115 C 
HETATM   18  N5  UNL     1      24.993   2.672  53.184  1.00  0.00    -0.419 N 
HETATM   19  C16 UNL     1      24.972   1.428  52.487  1.00  0.00     0.140 C 
HETATM   20  C17 UNL     1      23.689   0.653  52.909  1.00  0.00     0.188 C 
HETATM   21  O3  UNL     1      22.577   1.436  52.521  1.00  0.00    -0.371 OA
HETATM   22  C18 UNL     1      21.383   1.004  52.205  1.00  0.00     0.146 A 
HETATM   23  C19 UNL     1      20.245   0.533  52.950  1.00  0.00     0.290 A 
HETATM   24 CL1  UNL     1      20.791   0.584  54.760  1.00  0.00    -0.251 Cl
HETATM   25  C20 UNL     1      21.689   6.051  49.705  1.00  0.00     0.143 C 
HETATM   26  C21 UNL     1      20.695   5.570  50.660  1.00  0.00     0.058 C 
HETATM   27  C22 UNL     1      21.151   4.274  50.597  1.00  0.00     0.027 C 
HETATM   28  H7  UNL     1      21.893  -0.568  50.111  1.00  0.00     0.161 HD
HETATM   29  H20 UNL     1      25.477   2.576  54.117  1.00  0.00     0.153 HD
ENDROOT
BRANCH   1  30
HETATM   30  C4  UNL     1      19.082   0.193  51.129  1.00  0.00     0.009 C 
BRANCH  30  31
HETATM   31  C3  UNL     1      18.046  -0.433  51.656  1.00  0.00    -0.006 C 
BRANCH  31  32
HETATM   32  C2  UNL     1      16.936  -1.100  52.308  1.00  0.00    -0.031 C 
HETATM   33  C1  UNL     1      15.747  -1.989  52.321  1.00  0.00     0.036 C 
ENDBRANCH  31  32
ENDBRANCH  30  31
ENDBRANCH   1  30
TORSDOF 3
ENDMDL
MODEL 3
REMARK VINA RESULT:      -7.5      2.103      2.970
REMARK  3 active torsions:
REMARK  status: ('A' for Active; 'I' for Inactive)
REMARK    1  A    between atoms: C2_2  and  C3_3 
REMARK    2  A    between atoms: C3_3  and  C4_4 
REMARK    3  A    between atoms: C4_4  and  C5_5 
ROOT
HETATM    1  C5  UNL     1      25.190   1.741  52.643  1.00  0.00     0.104 A 
HETATM    2  N1  UNL     1      24.375   2.867  53.393  1.00  0.00    -0.372 N 
HETATM    3  C6  UNL     1      24.009   3.900  52.378  1.00  0.00     0.298 C 
HETATM    4  N2  UNL     1      23.659   4.659  51.342  1.00  0.00    -0.272 NA
HETATM    5  C7  UNL     1      23.411   3.953  50.119  1.00  0.00     0.146 C 
HETATM    6  N3  UNL     1      23.536   4.266  48.753  1.00  0.00    -0.262 NA
HETATM    7  C8  UNL     1      22.157   4.846  48.499  1.00  0.00     0.053 C 
HETATM    8  C9  UNL     1      21.744   6.070  48.699  1.00  0.00     0.028 C 
HETATM    9  C10 UNL     1      20.556   6.506  47.928  1.00  0.00     0.197 C 
HETATM   10  O1  UNL     1      19.756   5.502  47.437  1.00  0.00    -0.378 OA
HETATM   11  C11 UNL     1      18.951   4.983  48.391  1.00  0.00     0.270 C 
HETATM   12  C12 UNL     1      19.031   3.421  48.463  1.00  0.00     0.244 C 
HETATM   13  O2  UNL     1      18.248   2.457  48.535  1.00  0.00    -0.271 OA
HETATM   14  N4  UNL     1      20.502   2.996  48.491  1.00  0.00    -0.340 N 
HETATM   15  C13 UNL     1      20.462   1.701  49.139  1.00  0.00     0.128 C 
HETATM   16  C14 UNL     1      20.022   1.603  50.563  1.00  0.00     0.039 C 
HETATM   17  C15 UNL     1      20.441   0.258  51.186  1.00  0.00     0.115 C 
HETATM   18  N5  UNL     1      19.973   0.102  52.475  1.00  0.00    -0.419 N 
HETATM   19  C16 UNL     1      20.420   0.848  53.605  1.00  0.00     0.140 C 
HETATM   20  C17 UNL     1      21.908   0.477  53.879  1.00  0.00     0.188 C 
HETATM   21  O3  UNL     1      22.652   0.851  52.736  1.00  0.00    -0.371 OA
HETATM   22  C18 UNL     1      23.912   1.203  52.699  1.00  0.00     0.146 A 
HETATM   23  C19 UNL     1      25.164   0.495  52.751  1.00  0.00     0.290 A 
HETATM   24 CL1  UNL     1      24.688  -1.324  52.958  1.00  0.00    -0.251 Cl
HETATM   25  C20 UNL     1      21.741   3.495  48.025  1.00  0.00     0.143 C 
HETATM   26  C21 UNL     1      22.868   2.576  48.146  1.00  0.00     0.058 C 
HETATM   27  C22 UNL     1      22.907   2.683  49.516  1.00  0.00     0.027 C 
HETATM   28  H7  UNL     1      23.940   3.349  54.283  1.00  0.00     0.161 HD
HETATM   29  H20 UNL     1      19.584  -0.834  52.768  1.00  0.00     0.153 HD
ENDROOT
BRANCH   1  30
HETATM   30  C4  UNL     1      26.319   2.345  52.593  1.00  0.00     0.009 C 
BRANCH  30  31
HETATM   31  C3  UNL     1      27.511   1.898  52.943  1.00  0.00    -0.006 C 
BRANCH  31  32
HETATM   32  C2  UNL     1      28.783   1.340  53.356  1.00  0.00    -0.031 C 
HETATM   33  C1  UNL     1      29.696   0.213  53.670  1.00  0.00     0.036 C 
ENDBRANCH  31  32
ENDBRANCH  30  31
ENDBRANCH   1  30
TORSDOF 3
ENDMDL
MODEL 4
REMARK VINA RESULT:      -7.3      4.374      7.908
REMARK  3 active torsions:
REMARK  status: ('A' for Active; 'I' for Inactive)
REMARK    1  A    between atoms: C2_2  and  C3_3 
REMARK    2  A    between atoms: C3_3  and  C4_4 
REMARK    3  A    between atoms: C4_4  and  C5_5 
ROOT
HETATM    1  C5  UNL     1      21.749   8.100  48.445  1.00  0.00     0.104 A 
HETATM    2  N1  UNL     1      21.967   8.349  49.988  1.00  0.00    -0.372 N 
HETATM    3  C6  UNL     1      21.683   7.061  50.691  1.00  0.00     0.298 C 
HETATM    4  N2  UNL     1      21.519   5.822  51.149  1.00  0.00    -0.272 NA
HETATM    5  C7  UNL     1      21.972   4.779  50.276  1.00  0.00     0.146 C 
HETATM    6  N3  UNL     1      21.586   3.446  50.045  1.00  0.00    -0.262 NA
HETATM    7  C8  UNL     1      22.471   2.747  51.060  1.00  0.00     0.053 C 
HETATM    8  C9  UNL     1      22.244   2.549  52.332  1.00  0.00     0.028 C 
HETATM    9  C10 UNL     1      22.988   1.441  52.976  1.00  0.00     0.197 C 
HETATM   10  O1  UNL     1      24.130   1.029  52.334  1.00  0.00    -0.378 OA
HETATM   11  C11 UNL     1      25.169   1.865  52.561  1.00  0.00     0.270 C 
HETATM   12  C12 UNL     1      25.875   2.322  51.242  1.00  0.00     0.244 C 
HETATM   13  O2  UNL     1      27.034   2.437  50.805  1.00  0.00    -0.271 OA
HETATM   14  N4  UNL     1      24.814   2.793  50.243  1.00  0.00    -0.340 N 
HETATM   15  C13 UNL     1      25.545   3.702  49.384  1.00  0.00     0.128 C 
HETATM   16  C14 UNL     1      26.103   4.966  49.953  1.00  0.00     0.039 C 
HETATM   17  C15 UNL     1      26.459   5.970  48.842  1.00  0.00     0.115 C 
HETATM   18  N5  UNL     1      27.057   7.114  49.331  1.00  0.00    -0.419 N 
HETATM   19  C16 UNL     1      26.404   8.106  50.120  1.00  0.00     0.140 C 
HETATM   20  C17 UNL     1      25.324   8.799  49.238  1.00  0.00     0.188 C 
HETATM   21  O3  UNL     1      24.393   7.807  48.855  1.00  0.00    -0.371 OA
HETATM   22  C18 UNL     1      23.125   7.982  48.579  1.00  0.00     0.146 A 
HETATM   23  C19 UNL     1      22.395   8.492  47.448  1.00  0.00     0.290 A 
HETATM   24 CL1  UNL     1      23.722   9.007  46.202  1.00  0.00    -0.251 Cl
HETATM   25  C20 UNL     1      23.454   2.524  49.962  1.00  0.00     0.143 C 
HETATM   26  C21 UNL     1      22.942   3.119  48.731  1.00  0.00     0.058 C 
HETATM   27  C22 UNL     1      22.979   4.394  49.243  1.00  0.00     0.027 C 
HETATM   28  H7  UNL     1      22.185   8.973  50.871  1.00  0.00     0.161 HD
HETATM   29  H20 UNL     1      27.881   7.521  48.815  1.00  0.00     0.153 HD
ENDROOT
BRANCH   1  30
HETATM   30  C4  UNL     1      20.469   8.172  48.434  1.00  0.00     0.009 C 
BRANCH  30  31
HETATM   31  C3  UNL     1      19.700   9.210  48.706  1.00  0.00    -0.006 C 
BRANCH  31  32
HETATM   32  C2  UNL     1      18.879  10.382  48.935  1.00  0.00    -0.031 C 
HETATM   33  C1  UNL     1      17.805  11.339  48.570  1.00  0.00     0.036 C 
ENDBRANCH  31  32
ENDBRANCH  30  31
ENDBRANCH   1  30
TORSDOF 3
ENDMDL
MODEL 5
REMARK VINA RESULT:      -7.3     10.289     12.606
REMARK  3 active torsions:
REMARK  status: ('A' for Active; 'I' for Inactive)
REMARK    1  A    between atoms: C2_2  and  C3_3 
REMARK    2  A    between atoms: C3_3  and  C4_4 
REMARK    3  A    between atoms: C4_4  and  C5_5 
ROOT
HETATM    1  C5  UNL     1      33.332   5.330  44.872  1.00  0.00     0.104 A 
HETATM    2  N1  UNL     1      34.293   6.369  45.573  1.00  0.00    -0.372 N 
HETATM    3  C6  UNL     1      33.824   7.735  45.191  1.00  0.00     0.298 C 
HETATM    4  N2  UNL     1      33.212   8.871  44.864  1.00  0.00    -0.272 NA
HETATM    5  C7  UNL     1      31.782   8.797  44.779  1.00  0.00     0.146 C 
HETATM    6  N3  UNL     1      30.800   9.468  44.028  1.00  0.00    -0.262 NA
HETATM    7  C8  UNL     1      30.515  10.628  44.964  1.00  0.00     0.053 C 
HETATM    8  C9  UNL     1      31.155  11.764  45.065  1.00  0.00     0.028 C 
HETATM    9  C10 UNL     1      30.410  12.896  45.664  1.00  0.00     0.197 C 
HETATM   10  O1  UNL     1      29.327  12.561  46.440  1.00  0.00    -0.378 OA
HETATM   11  C11 UNL     1      29.695  12.145  47.673  1.00  0.00     0.270 C 
HETATM   12  C12 UNL     1      29.046  10.776  48.066  1.00  0.00     0.244 C 
HETATM   13  O2  UNL     1      28.464  10.276  49.045  1.00  0.00    -0.271 OA
HETATM   14  N4  UNL     1      29.235   9.783  46.916  1.00  0.00    -0.340 N 
HETATM   15  C13 UNL     1      29.170   8.494  47.574  1.00  0.00     0.128 C 
HETATM   16  C14 UNL     1      30.224   8.118  48.563  1.00  0.00     0.039 C 
HETATM   17  C15 UNL     1      30.229   6.601  48.825  1.00  0.00     0.115 C 
HETATM   18  N5  UNL     1      31.134   6.233  49.799  1.00  0.00    -0.419 N 
HETATM   19  C16 UNL     1      32.552   6.287  49.662  1.00  0.00     0.140 C 
HETATM   20  C17 UNL     1      32.979   5.249  48.582  1.00  0.00     0.188 C 
HETATM   21  O3  UNL     1      32.368   5.632  47.366  1.00  0.00    -0.371 OA
HETATM   22  C18 UNL     1      32.812   5.404  46.156  1.00  0.00     0.146 A 
HETATM   23  C19 UNL     1      32.835   4.258  45.284  1.00  0.00     0.290 A 
HETATM   24 CL1  UNL     1      32.043   2.865  46.288  1.00  0.00    -0.251 Cl
HETATM   25  C20 UNL     1      29.379   9.832  45.509  1.00  0.00     0.143 C 
HETATM   26  C21 UNL     1      29.330   8.539  44.832  1.00  0.00     0.058 C 
HETATM   27  C22 UNL     1      30.553   8.150  45.326  1.00  0.00     0.027 C 
HETATM   28  H7  UNL     1      35.167   6.658  46.179  1.00  0.00     0.161 HD
HETATM   29  H20 UNL     1      30.849   5.514  50.518  1.00  0.00     0.153 HD
ENDROOT
BRANCH   1  30
HETATM   30  C4  UNL     1      33.851   5.374  43.701  1.00  0.00     0.009 C 
BRANCH  30  31
HETATM   31  C3  UNL     1      33.488   4.720  42.613  1.00  0.00    -0.006 C 
BRANCH  31  32
HETATM   32  C2  UNL     1      33.168   3.992  41.401  1.00  0.00    -0.031 C 
HETATM   33  C1  UNL     1      33.396   2.921  40.399  1.00  0.00     0.036 C 
ENDBRANCH  31  32
ENDBRANCH  30  31
ENDBRANCH   1  30
TORSDOF 3
ENDMDL
MODEL 6
REMARK VINA RESULT:      -7.2      3.820      6.805
REMARK  3 active torsions:
REMARK  status: ('A' for Active; 'I' for Inactive)
REMARK    1  A    between atoms: C2_2  and  C3_3 
REMARK    2  A    between atoms: C3_3  and  C4_4 
REMARK    3  A    between atoms: C4_4  and  C5_5 
ROOT
HETATM    1  C5  UNL     1      22.979   2.372  51.388  1.00  0.00     0.104 A 
HETATM    2  N1  UNL     1      23.075   2.142  49.829  1.00  0.00    -0.372 N 
HETATM    3  C6  UNL     1      22.047   3.015  49.187  1.00  0.00     0.298 C 
HETATM    4  N2  UNL     1      21.179   3.933  48.766  1.00  0.00    -0.272 NA
HETATM    5  C7  UNL     1      21.118   5.130  49.554  1.00  0.00     0.146 C 
HETATM    6  N3  UNL     1      20.114   6.069  49.850  1.00  0.00    -0.262 NA
HETATM    7  C8  UNL     1      20.329   7.038  48.702  1.00  0.00     0.053 C 
HETATM    8  C9  UNL     1      19.853   6.974  47.487  1.00  0.00     0.028 C 
HETATM    9  C10 UNL     1      19.784   8.246  46.730  1.00  0.00     0.197 C 
HETATM   10  O1  UNL     1      20.604   9.255  47.174  1.00  0.00    -0.378 OA
HETATM   11  C11 UNL     1      21.884   9.082  46.774  1.00  0.00     0.270 C 
HETATM   12  C12 UNL     1      22.905   9.187  47.956  1.00  0.00     0.244 C 
HETATM   13  O2  UNL     1      23.991   9.743  48.193  1.00  0.00    -0.271 OA
HETATM   14  N4  UNL     1      22.418   8.314  49.117  1.00  0.00    -0.340 N 
HETATM   15  C13 UNL     1      23.636   8.011  49.839  1.00  0.00     0.128 C 
HETATM   16  C14 UNL     1      24.698   7.191  49.182  1.00  0.00     0.039 C 
HETATM   17  C15 UNL     1      25.692   6.631  50.215  1.00  0.00     0.115 C 
HETATM   18  N5  UNL     1      26.734   5.941  49.630  1.00  0.00    -0.419 N 
HETATM   19  C16 UNL     1      26.613   4.688  48.959  1.00  0.00     0.140 C 
HETATM   20  C17 UNL     1      26.213   3.608  50.008  1.00  0.00     0.188 C 
HETATM   21  O3  UNL     1      24.960   3.985  50.543  1.00  0.00    -0.371 OA
HETATM   22  C18 UNL     1      24.041   3.189  51.026  1.00  0.00     0.146 A 
HETATM   23  C19 UNL     1      23.868   2.471  52.262  1.00  0.00     0.290 A 
HETATM   24 CL1  UNL     1      25.425   2.849  53.268  1.00  0.00    -0.251 Cl
HETATM   25  C20 UNL     1      21.183   7.844  49.621  1.00  0.00     0.143 C 
HETATM   26  C21 UNL     1      21.252   7.179  50.919  1.00  0.00     0.058 C 
HETATM   27  C22 UNL     1      21.896   6.078  50.405  1.00  0.00     0.027 C 
HETATM   28  H7  UNL     1      23.466   1.654  48.921  1.00  0.00     0.161 HD
HETATM   29  H20 UNL     1      27.712   6.080  50.001  1.00  0.00     0.153 HD
ENDROOT
BRANCH   1  30
HETATM   30  C4  UNL     1      21.956   1.632  51.611  1.00  0.00     0.009 C 
BRANCH  30  31
HETATM   31  C3  UNL     1      21.702   0.870  52.659  1.00  0.00    -0.006 C 
BRANCH  31  32
HETATM   32  C2  UNL     1      21.469   0.082  53.853  1.00  0.00    -0.031 C 
HETATM   33  C1  UNL     1      21.469  -1.186  54.624  1.00  0.00     0.036 C 
ENDBRANCH  31  32
ENDBRANCH  30  31
ENDBRANCH   1  30
TORSDOF 3
ENDMDL
MODEL 7
REMARK VINA RESULT:      -7.2      2.946      4.031
REMARK  3 active torsions:
REMARK  status: ('A' for Active; 'I' for Inactive)
REMARK    1  A    between atoms: C2_2  and  C3_3 
REMARK    2  A    between atoms: C3_3  and  C4_4 
REMARK    3  A    between atoms: C4_4  and  C5_5 
ROOT
HETATM    1  C5  UNL     1      25.843   4.706  49.634  1.00  0.00     0.104 A 
HETATM    2  N1  UNL     1      24.972   5.770  50.409  1.00  0.00    -0.372 N 
HETATM    3  C6  UNL     1      23.912   6.246  49.470  1.00  0.00     0.298 C 
HETATM    4  N2  UNL     1      22.964   6.472  48.563  1.00  0.00    -0.272 NA
HETATM    5  C7  UNL     1      22.601   5.341  47.759  1.00  0.00     0.146 C 
HETATM    6  N3  UNL     1      22.118   5.174  46.448  1.00  0.00    -0.262 NA
HETATM    7  C8  UNL     1      20.626   5.247  46.718  1.00  0.00     0.053 C 
HETATM    8  C9  UNL     1      19.872   6.310  46.816  1.00  0.00     0.028 C 
HETATM    9  C10 UNL     1      18.421   6.121  46.581  1.00  0.00     0.197 C 
HETATM   10  O1  UNL     1      17.951   4.837  46.723  1.00  0.00    -0.378 OA
HETATM   11  C11 UNL     1      17.789   4.497  48.022  1.00  0.00     0.270 C 
HETATM   12  C12 UNL     1      18.481   3.140  48.380  1.00  0.00     0.244 C 
HETATM   13  O2  UNL     1      18.205   2.095  48.996  1.00  0.00    -0.271 OA
HETATM   14  N4  UNL     1      19.914   3.150  47.841  1.00  0.00    -0.340 N 
HETATM   15  C13 UNL     1      20.600   2.204  48.697  1.00  0.00     0.128 C 
HETATM   16  C14 UNL     1      20.751   2.504  50.153  1.00  0.00     0.039 C 
HETATM   17  C15 UNL     1      21.840   1.624  50.794  1.00  0.00     0.115 C 
HETATM   18  N5  UNL     1      21.944   1.816  52.157  1.00  0.00    -0.419 N 
HETATM   19  C16 UNL     1      22.430   3.001  52.783  1.00  0.00     0.140 C 
HETATM   20  C17 UNL     1      23.941   3.151  52.438  1.00  0.00     0.188 C 
HETATM   21  O3  UNL     1      24.042   3.279  51.033  1.00  0.00    -0.371 OA
HETATM   22  C18 UNL     1      24.974   3.910  50.366  1.00  0.00     0.146 A 
HETATM   23  C19 UNL     1      26.336   3.618  50.004  1.00  0.00     0.290 A 
HETATM   24 CL1  UNL     1      26.697   1.932  50.782  1.00  0.00    -0.251 Cl
HETATM   25  C20 UNL     1      20.624   3.757  46.778  1.00  0.00     0.143 C 
HETATM   26  C21 UNL     1      21.984   3.267  46.576  1.00  0.00     0.058 C 
HETATM   27  C22 UNL     1      22.448   3.856  47.729  1.00  0.00     0.027 C 
HETATM   28  H7  UNL     1      24.721   6.405  51.275  1.00  0.00     0.161 HD
HETATM   29  H20 UNL     1      22.069   0.977  52.783  1.00  0.00     0.153 HD
ENDROOT
BRANCH   1  30
HETATM   30  C4  UNL     1      26.562   5.526  48.960  1.00  0.00     0.009 C 
BRANCH  30  31
HETATM   31  C3  UNL     1      27.812   5.389  48.557  1.00  0.00    -0.006 C 
BRANCH  31  32
HETATM   32  C2  UNL     1      29.200   5.310  48.150  1.00  0.00    -0.031 C 
HETATM   33  C1  UNL     1      30.524   5.902  47.832  1.00  0.00     0.036 C 
ENDBRANCH  31  32
ENDBRANCH  30  31
ENDBRANCH   1  30
TORSDOF 3
ENDMDL
MODEL 8
REMARK VINA RESULT:      -7.2      2.133      2.852
REMARK  3 active torsions:
REMARK  status: ('A' for Active; 'I' for Inactive)
REMARK    1  A    between atoms: C2_2  and  C3_3 
REMARK    2  A    between atoms: C3_3  and  C4_4 
REMARK    3  A    between atoms: C4_4  and  C5_5 
ROOT
HETATM    1  C5  UNL     1      24.726   4.509  50.614  1.00  0.00     0.104 A 
HETATM    2  N1  UNL     1      23.836   5.011  51.818  1.00  0.00    -0.372 N 
HETATM    3  C6  UNL     1      22.505   5.391  51.258  1.00  0.00     0.298 C 
HETATM    4  N2  UNL     1      21.345   5.566  50.629  1.00  0.00    -0.272 NA
HETATM    5  C7  UNL     1      21.079   4.645  49.562  1.00  0.00     0.146 C 
HETATM    6  N3  UNL     1      20.354   4.710  48.357  1.00  0.00    -0.262 NA
HETATM    7  C8  UNL     1      18.994   4.260  48.857  1.00  0.00     0.053 C 
HETATM    8  C9  UNL     1      18.056   4.982  49.411  1.00  0.00     0.028 C 
HETATM    9  C10 UNL     1      16.677   4.444  49.347  1.00  0.00     0.197 C 
HETATM   10  O1  UNL     1      16.568   3.092  49.128  1.00  0.00    -0.378 OA
HETATM   11  C11 UNL     1      16.800   2.375  50.251  1.00  0.00     0.270 C 
HETATM   12  C12 UNL     1      17.855   1.240  50.035  1.00  0.00     0.244 C 
HETATM   13  O2  UNL     1      17.985   0.034  50.307  1.00  0.00    -0.271 OA
HETATM   14  N4  UNL     1      19.078   1.823  49.320  1.00  0.00    -0.340 N 
HETATM   15  C13 UNL     1      20.148   0.925  49.705  1.00  0.00     0.128 C 
HETATM   16  C14 UNL     1      20.562   0.843  51.137  1.00  0.00     0.039 C 
HETATM   17  C15 UNL     1      21.946   0.185  51.283  1.00  0.00     0.115 C 
HETATM   18  N5  UNL     1      22.319   0.016  52.601  1.00  0.00    -0.419 N 
HETATM   19  C16 UNL     1      22.646   1.072  53.501  1.00  0.00     0.140 C 
HETATM   20  C17 UNL     1      23.955   1.752  53.002  1.00  0.00     0.188 C 
HETATM   21  O3  UNL     1      23.691   2.285  51.719  1.00  0.00    -0.371 OA
HETATM   22  C18 UNL     1      24.265   3.322  51.165  1.00  0.00     0.146 A 
HETATM   23  C19 UNL     1      25.534   3.558  50.527  1.00  0.00     0.290 A 
HETATM   24 CL1  UNL     1      26.453   1.908  50.643  1.00  0.00    -0.251 Cl
HETATM   25  C20 UNL     1      19.356   2.881  48.423  1.00  0.00     0.143 C 
HETATM   26  C21 UNL     1      20.706   2.890  47.869  1.00  0.00     0.058 C 
HETATM   27  C22 UNL     1      21.276   3.250  49.068  1.00  0.00     0.027 C 
HETATM   28  H7  UNL     1      23.654   5.279  52.872  1.00  0.00     0.161 HD
HETATM   29  H20 UNL     1      22.782  -0.886  52.890  1.00  0.00     0.153 HD
ENDROOT
BRANCH   1  30
HETATM   30  C4  UNL     1      25.053   5.657  50.148  1.00  0.00     0.009 C 
BRANCH  30  31
HETATM   31  C3  UNL     1      26.069   5.971  49.365  1.00  0.00    -0.006 C 
BRANCH  31  32
HETATM   32  C2  UNL     1      27.195   6.236  48.491  1.00  0.00    -0.031 C 
HETATM   33  C1  UNL     1      28.619   6.118  48.092  1.00  0.00     0.036 C 
ENDBRANCH  31  32
ENDBRANCH  30  31
ENDBRANCH   1  30
TORSDOF 3
ENDMDL
MODEL 9
REMARK VINA RESULT:      -7.2      3.110      5.303
REMARK  3 active torsions:
REMARK  status: ('A' for Active; 'I' for Inactive)
REMARK    1  A    between atoms: C2_2  and  C3_3 
REMARK    2  A    between atoms: C3_3  and  C4_4 
REMARK    3  A    between atoms: C4_4  and  C5_5 
ROOT
HETATM    1  C5  UNL     1      22.559   5.920  48.578  1.00  0.00     0.104 A 
HETATM    2  N1  UNL     1      21.538   6.376  49.693  1.00  0.00    -0.372 N 
HETATM    3  C6  UNL     1      20.458   5.346  49.755  1.00  0.00     0.298 C 
HETATM    4  N2  UNL     1      19.649   4.289  49.771  1.00  0.00    -0.272 NA
HETATM    5  C7  UNL     1      20.280   3.028  49.510  1.00  0.00     0.146 C 
HETATM    6  N3  UNL     1      19.864   1.815  48.931  1.00  0.00    -0.262 NA
HETATM    7  C8  UNL     1      19.348   1.108  50.171  1.00  0.00     0.053 C 
HETATM    8  C9  UNL     1      18.168   1.201  50.724  1.00  0.00     0.028 C 
HETATM    9  C10 UNL     1      17.748   0.074  51.590  1.00  0.00     0.197 C 
HETATM   10  O1  UNL     1      18.758  -0.718  52.080  1.00  0.00    -0.378 OA
HETATM   11  C11 UNL     1      19.390  -0.143  53.128  1.00  0.00     0.270 C 
HETATM   12  C12 UNL     1      20.945  -0.118  52.955  1.00  0.00     0.244 C 
HETATM   13  O2  UNL     1      21.955  -0.377  53.632  1.00  0.00    -0.271 OA
HETATM   14  N4  UNL     1      21.286   0.419  51.562  1.00  0.00    -0.340 N 
HETATM   15  C13 UNL     1      22.623   0.949  51.727  1.00  0.00     0.128 C 
HETATM   16  C14 UNL     1      22.848   2.113  52.636  1.00  0.00     0.039 C 
HETATM   17  C15 UNL     1      24.207   2.783  52.362  1.00  0.00     0.115 C 
HETATM   18  N5  UNL     1      24.481   3.808  53.244  1.00  0.00    -0.419 N 
HETATM   19  C16 UNL     1      23.793   5.056  53.290  1.00  0.00     0.140 C 
HETATM   20  C17 UNL     1      24.095   5.831  51.974  1.00  0.00     0.188 C 
HETATM   21  O3  UNL     1      23.599   5.052  50.903  1.00  0.00    -0.371 OA
HETATM   22  C18 UNL     1      23.173   5.488  49.745  1.00  0.00     0.146 A 
HETATM   23  C19 UNL     1      23.809   5.956  48.541  1.00  0.00     0.290 A 
HETATM   24 CL1  UNL     1      25.662   5.893  48.913  1.00  0.00    -0.251 Cl
HETATM   25  C20 UNL     1      20.684   0.454  50.282  1.00  0.00     0.143 C 
HETATM   26  C21 UNL     1      21.542   0.931  49.202  1.00  0.00     0.058 C 
HETATM   27  C22 UNL     1      21.531   2.227  49.663  1.00  0.00     0.027 C 
HETATM   28  H7  UNL     1      21.146   7.071  50.454  1.00  0.00     0.161 HD
HETATM   29  H20 UNL     1      25.456   3.898  53.637  1.00  0.00     0.153 HD
ENDROOT
BRANCH   1  30
HETATM   30  C4  UNL     1      21.888   6.309  47.557  1.00  0.00     0.009 C 
BRANCH  30  31
HETATM   31  C3  UNL     1      21.744   5.711  46.389  1.00  0.00    -0.006 C 
BRANCH  31  32
HETATM   32  C2  UNL     1      21.527   5.010  45.139  1.00  0.00    -0.031 C 
HETATM   33  C1  UNL     1      20.871   3.983  44.293  1.00  0.00     0.036 C 
ENDBRANCH  31  32
ENDBRANCH  30  31
ENDBRANCH   1  30
TORSDOF 3
ENDMDL
