MODEL 1
REMARK VINA RESULT:      -7.9      0.000      0.000
REMARK  3 active torsions:
REMARK  status: ('A' for Active; 'I' for Inactive)
REMARK    1  A    between atoms: C7_11  and  N4_12 
REMARK    2  A    between atoms: N4_12  and  C8_13 
REMARK    3  A    between atoms: C8_13  and  C9_14 
ROOT
HETATM    1  C1  UNL     1      29.824  -0.867  53.637  1.00  0.00     0.017 C 
HETATM    2  C2  UNL     1      28.672  -0.985  53.287  1.00  0.00    -0.087 C 
HETATM    3  C3  UNL     1      27.302  -1.143  52.850  1.00  0.00     0.096 C 
HETATM    4  C4  UNL     1      26.380  -0.466  53.529  1.00  0.00     0.067 C 
HETATM    5  O1  UNL     1      26.321   0.402  54.601  1.00  0.00    -0.325 OA
HETATM    6  C5  UNL     1      24.993  -0.052  54.855  1.00  0.00     0.284 C 
HETATM    7  N1  UNL     1      24.917  -1.205  55.721  1.00  0.00    -0.158 NA
HETATM    8  N2  UNL     1      23.777  -1.817  55.697  1.00  0.00    -0.146 NA
HETATM    9  C6  UNL     1      22.767  -1.264  54.821  1.00  0.00     0.259 C 
HETATM   10  N3  UNL     1      22.299  -0.122  54.428  1.00  0.00    -0.222 NA
HETATM   11  C7  UNL     1      21.253   0.010  53.511  1.00  0.00     0.140 C 
HETATM   12  C15 UNL     1      21.843   0.359  52.381  1.00  0.00     0.133 C 
HETATM   13  N5  UNL     1      23.184   0.590  51.999  1.00  0.00    -0.395 N 
HETATM   14  C16 UNL     1      24.437   0.871  52.655  1.00  0.00     0.135 C 
HETATM   15  C17 UNL     1      24.893  -0.353  53.408  1.00  0.00     0.113 C 
HETATM   16  H14 UNL     1      23.303   0.535  50.938  1.00  0.00     0.159 HD
ENDROOT
BRANCH  11  17
HETATM   17  N4  UNL     1      19.885  -0.181  53.722  1.00  0.00    -0.369 N 
HETATM   18  H5  UNL     1      19.623   0.789  54.075  1.00  0.00     0.161 HD
BRANCH  17  19
HETATM   19  C8  UNL     1      18.902  -1.232  53.595  1.00  0.00     0.160 C 
BRANCH  19  20
HETATM   20  C9  UNL     1      18.018  -0.885  52.424  1.00  0.00    -0.041 A 
HETATM   21  C10 UNL     1      18.379  -0.171  51.308  1.00  0.00     0.009 A 
HETATM   22  C11 UNL     1      17.446   0.069  50.321  1.00  0.00     0.001 A 
HETATM   23  C12 UNL     1      16.145  -0.379  50.401  1.00  0.00     0.000 A 
HETATM   24  C13 UNL     1      15.746  -1.094  51.499  1.00  0.00     0.001 A 
HETATM   25  C14 UNL     1      16.697  -1.328  52.485  1.00  0.00     0.009 A 
ENDBRANCH  19  20
ENDBRANCH  17  19
ENDBRANCH  11  17
TORSDOF 3
ENDMDL
MODEL 2
REMARK VINA RESULT:      -7.6      5.199      8.740
REMARK  3 active torsions:
REMARK  status: ('A' for Active; 'I' for Inactive)
REMARK    1  A    between atoms: C7_11  and  N4_12 
REMARK    2  A    between atoms: N4_12  and  C8_13 
REMARK    3  A    between atoms: C8_13  and  C9_14 
ROOT
HETATM    1  C1  UNL     1      25.522   9.380  47.376  1.00  0.00     0.017 C 
HETATM    2  C2  UNL     1      25.762   8.575  48.245  1.00  0.00    -0.087 C 
HETATM    3  C3  UNL     1      26.067   7.628  49.296  1.00  0.00     0.096 C 
HETATM    4  C4  UNL     1      25.432   6.460  49.247  1.00  0.00     0.067 C 
HETATM    5  O1  UNL     1      24.502   5.827  48.446  1.00  0.00    -0.325 OA
HETATM    6  C5  UNL     1      24.084   5.073  49.582  1.00  0.00     0.284 C 
HETATM    7  N1  UNL     1      23.050   5.707  50.365  1.00  0.00    -0.158 NA
HETATM    8  N2  UNL     1      22.896   5.209  51.550  1.00  0.00    -0.146 NA
HETATM    9  C6  UNL     1      23.767   4.111  51.906  1.00  0.00     0.259 C 
HETATM   10  N3  UNL     1      24.292   3.044  51.394  1.00  0.00    -0.222 NA
HETATM   11  C7  UNL     1      25.138   2.184  52.099  1.00  0.00     0.140 C 
HETATM   12  C15 UNL     1      26.349   2.465  51.649  1.00  0.00     0.133 C 
HETATM   13  N5  UNL     1      26.861   3.374  50.696  1.00  0.00    -0.395 N 
HETATM   14  C16 UNL     1      26.350   4.144  49.589  1.00  0.00     0.135 C 
HETATM   15  C17 UNL     1      25.457   5.240  50.111  1.00  0.00     0.113 C 
HETATM   16  H14 UNL     1      27.907   3.541  50.838  1.00  0.00     0.159 HD
ENDROOT
BRANCH  11  17
HETATM   17  N4  UNL     1      24.799   1.235  53.068  1.00  0.00    -0.369 N 
HETATM   18  H5  UNL     1      24.182   1.836  53.695  1.00  0.00     0.161 HD
BRANCH  17  19
HETATM   19  C8  UNL     1      25.059  -0.154  53.367  1.00  0.00     0.160 C 
BRANCH  19  20
HETATM   20  C9  UNL     1      26.524  -0.279  53.697  1.00  0.00    -0.041 A 
HETATM   21  C10 UNL     1      27.199   0.381  54.694  1.00  0.00     0.009 A 
HETATM   22  C11 UNL     1      28.549   0.160  54.866  1.00  0.00     0.001 A 
HETATM   23  C12 UNL     1      29.269  -0.706  54.071  1.00  0.00     0.000 A 
HETATM   24  C13 UNL     1      28.632  -1.383  53.065  1.00  0.00     0.001 A 
HETATM   25  C14 UNL     1      27.271  -1.150  52.905  1.00  0.00     0.009 A 
ENDBRANCH  19  20
ENDBRANCH  17  19
ENDBRANCH  11  17
TORSDOF 3
ENDMDL
MODEL 3
REMARK VINA RESULT:      -7.6      4.882      8.739
REMARK  3 active torsions:
REMARK  status: ('A' for Active; 'I' for Inactive)
REMARK    1  A    between atoms: C7_11  and  N4_12 
REMARK    2  A    between atoms: N4_12  and  C8_13 
REMARK    3  A    between atoms: C8_13  and  C9_14 
ROOT
HETATM    1  C1  UNL     1      24.029   8.312  46.469  1.00  0.00     0.017 C 
HETATM    2  C2  UNL     1      23.783   7.327  47.126  1.00  0.00    -0.087 C 
HETATM    3  C3  UNL     1      23.469   6.143  47.896  1.00  0.00     0.096 C 
HETATM    4  C4  UNL     1      24.209   5.924  48.979  1.00  0.00     0.067 C 
HETATM    5  O1  UNL     1      25.263   6.519  49.644  1.00  0.00    -0.325 OA
HETATM    6  C5  UNL     1      25.639   5.234  50.132  1.00  0.00     0.284 C 
HETATM    7  N1  UNL     1      26.535   4.509  49.262  1.00  0.00    -0.158 NA
HETATM    8  N2  UNL     1      26.622   3.244  49.520  1.00  0.00    -0.146 NA
HETATM    9  C6  UNL     1      25.824   2.754  50.623  1.00  0.00     0.259 C 
HETATM   10  N3  UNL     1      25.448   3.094  51.815  1.00  0.00    -0.222 NA
HETATM   11  C7  UNL     1      24.621   2.305  52.619  1.00  0.00     0.140 C 
HETATM   12  C15 UNL     1      23.437   2.889  52.553  1.00  0.00     0.133 C 
HETATM   13  N5  UNL     1      22.936   4.032  51.889  1.00  0.00    -0.395 N 
HETATM   14  C16 UNL     1      23.476   5.222  51.280  1.00  0.00     0.135 C 
HETATM   15  C17 UNL     1      24.214   4.850  50.020  1.00  0.00     0.113 C 
HETATM   16  H14 UNL     1      21.870   4.002  51.811  1.00  0.00     0.159 HD
ENDROOT
BRANCH  11  17
HETATM   17  N4  UNL     1      24.953   1.153  53.337  1.00  0.00    -0.369 N 
HETATM   18  H5  UNL     1      24.925   1.547  54.327  1.00  0.00     0.161 HD
BRANCH  17  19
HETATM   19  C8  UNL     1      25.278  -0.230  53.082  1.00  0.00     0.160 C 
BRANCH  19  20
HETATM   20  C9  UNL     1      26.748  -0.409  53.365  1.00  0.00    -0.041 A 
HETATM   21  C10 UNL     1      27.576  -1.362  52.825  1.00  0.00     0.009 A 
HETATM   22  C11 UNL     1      28.905  -1.397  53.192  1.00  0.00     0.001 A 
HETATM   23  C12 UNL     1      29.453  -0.508  54.092  1.00  0.00     0.000 A 
HETATM   24  C13 UNL     1      28.659   0.456  54.653  1.00  0.00     0.001 A 
HETATM   25  C14 UNL     1      27.322   0.479  54.273  1.00  0.00     0.009 A 
ENDBRANCH  19  20
ENDBRANCH  17  19
ENDBRANCH  11  17
TORSDOF 3
ENDMDL
MODEL 4
REMARK VINA RESULT:      -7.6      4.473      8.752
REMARK  3 active torsions:
REMARK  status: ('A' for Active; 'I' for Inactive)
REMARK    1  A    between atoms: C7_11  and  N4_12 
REMARK    2  A    between atoms: N4_12  and  C8_13 
REMARK    3  A    between atoms: C8_13  and  C9_14 
ROOT
HETATM    1  C1  UNL     1      21.649   8.909  49.315  1.00  0.00     0.017 C 
HETATM    2  C2  UNL     1      22.299   8.112  49.951  1.00  0.00    -0.087 C 
HETATM    3  C3  UNL     1      23.085   7.177  50.727  1.00  0.00     0.096 C 
HETATM    4  C4  UNL     1      23.059   5.907  50.333  1.00  0.00     0.067 C 
HETATM    5  O1  UNL     1      22.469   5.148  49.341  1.00  0.00    -0.325 OA
HETATM    6  C5  UNL     1      22.534   4.020  50.209  1.00  0.00     0.284 C 
HETATM    7  N1  UNL     1      21.386   3.871  51.073  1.00  0.00    -0.158 NA
HETATM    8  N2  UNL     1      21.570   3.068  52.071  1.00  0.00    -0.146 NA
HETATM    9  C6  UNL     1      22.874   2.451  52.171  1.00  0.00     0.259 C 
HETATM   10  N3  UNL     1      23.792   1.925  51.424  1.00  0.00    -0.222 NA
HETATM   11  C7  UNL     1      24.990   1.406  51.921  1.00  0.00     0.140 C 
HETATM   12  C15 UNL     1      25.896   2.324  51.632  1.00  0.00     0.133 C 
HETATM   13  N5  UNL     1      25.857   3.581  50.986  1.00  0.00    -0.395 N 
HETATM   14  C16 UNL     1      24.966   4.284  50.097  1.00  0.00     0.135 C 
HETATM   15  C17 UNL     1      23.710   4.660  50.841  1.00  0.00     0.113 C 
HETATM   16  H14 UNL     1      26.715   4.170  51.227  1.00  0.00     0.159 HD
ENDROOT
BRANCH  11  17
HETATM   17  N4  UNL     1      25.202   0.193  52.581  1.00  0.00    -0.369 N 
HETATM   18  H5  UNL     1      24.867  -0.480  51.826  1.00  0.00     0.161 HD
BRANCH  17  19
HETATM   19  C8  UNL     1      25.690  -0.281  53.855  1.00  0.00     0.160 C 
BRANCH  19  20
HETATM   20  C9  UNL     1      27.180  -0.469  53.727  1.00  0.00    -0.041 A 
HETATM   21  C10 UNL     1      27.825  -1.529  53.138  1.00  0.00     0.009 A 
HETATM   22  C11 UNL     1      29.203  -1.556  53.106  1.00  0.00     0.001 A 
HETATM   23  C12 UNL     1      29.981  -0.555  53.648  1.00  0.00     0.000 A 
HETATM   24  C13 UNL     1      29.375   0.519  54.244  1.00  0.00     0.001 A 
HETATM   25  C14 UNL     1      27.985   0.532  54.269  1.00  0.00     0.009 A 
ENDBRANCH  19  20
ENDBRANCH  17  19
ENDBRANCH  11  17
TORSDOF 3
ENDMDL
MODEL 5
REMARK VINA RESULT:      -7.5      2.776      4.229
REMARK  3 active torsions:
REMARK  status: ('A' for Active; 'I' for Inactive)
REMARK    1  A    between atoms: C7_11  and  N4_12 
REMARK    2  A    between atoms: N4_12  and  C8_13 
REMARK    3  A    between atoms: C8_13  and  C9_14 
ROOT
HETATM    1  C1  UNL     1      30.217  -0.844  53.831  1.00  0.00     0.017 C 
HETATM    2  C2  UNL     1      29.099  -0.452  54.073  1.00  0.00    -0.087 C 
HETATM    3  C3  UNL     1      27.768   0.021  54.388  1.00  0.00     0.096 C 
HETATM    4  C4  UNL     1      26.884   0.015  53.394  1.00  0.00     0.067 C 
HETATM    5  O1  UNL     1      26.841  -0.325  52.056  1.00  0.00    -0.325 OA
HETATM    6  C5  UNL     1      25.803   0.636  51.878  1.00  0.00     0.284 C 
HETATM    7  N1  UNL     1      26.274   1.967  51.574  1.00  0.00    -0.158 NA
HETATM    8  N2  UNL     1      25.387   2.895  51.733  1.00  0.00    -0.146 NA
HETATM    9  C6  UNL     1      24.080   2.470  52.182  1.00  0.00     0.259 C 
HETATM   10  N3  UNL     1      23.223   1.515  52.005  1.00  0.00    -0.222 NA
HETATM   11  C7  UNL     1      21.993   1.449  52.665  1.00  0.00     0.140 C 
HETATM   12  C15 UNL     1      22.165   0.529  53.599  1.00  0.00     0.133 C 
HETATM   13  N5  UNL     1      23.248  -0.291  53.989  1.00  0.00    -0.395 N 
HETATM   14  C16 UNL     1      24.488  -0.748  53.412  1.00  0.00     0.135 C 
HETATM   15  C17 UNL     1      25.445   0.411  53.297  1.00  0.00     0.113 C 
HETATM   16  H14 UNL     1      23.116  -0.667  54.980  1.00  0.00     0.159 HD
ENDROOT
BRANCH  11  17
HETATM   17  N4  UNL     1      20.832   2.183  52.411  1.00  0.00    -0.369 N 
HETATM   18  H5  UNL     1      20.670   2.600  53.378  1.00  0.00     0.161 HD
BRANCH  17  19
HETATM   19  C8  UNL     1      19.939   2.458  51.310  1.00  0.00     0.160 C 
BRANCH  19  20
HETATM   20  C9  UNL     1      20.756   2.418  50.044  1.00  0.00    -0.041 A 
HETATM   21  C10 UNL     1      20.959   1.328  49.235  1.00  0.00     0.009 A 
HETATM   22  C11 UNL     1      21.743   1.453  48.106  1.00  0.00     0.001 A 
HETATM   23  C12 UNL     1      22.343   2.640  47.744  1.00  0.00     0.000 A 
HETATM   24  C13 UNL     1      22.164   3.750  48.526  1.00  0.00     0.001 A 
HETATM   25  C14 UNL     1      21.372   3.608  49.659  1.00  0.00     0.009 A 
ENDBRANCH  19  20
ENDBRANCH  17  19
ENDBRANCH  11  17
TORSDOF 3
ENDMDL
MODEL 6
REMARK VINA RESULT:      -7.4      2.436      8.659
REMARK  3 active torsions:
REMARK  status: ('A' for Active; 'I' for Inactive)
REMARK    1  A    between atoms: C7_11  and  N4_12 
REMARK    2  A    between atoms: N4_12  and  C8_13 
REMARK    3  A    between atoms: C8_13  and  C9_14 
ROOT
HETATM    1  C1  UNL     1      15.171  -0.786  52.326  1.00  0.00     0.017 C 
HETATM    2  C2  UNL     1      16.366  -0.965  52.379  1.00  0.00    -0.087 C 
HETATM    3  C3  UNL     1      17.791  -1.206  52.445  1.00  0.00     0.096 C 
HETATM    4  C4  UNL     1      18.578  -0.134  52.412  1.00  0.00     0.067 C 
HETATM    5  O1  UNL     1      18.445   1.238  52.326  1.00  0.00    -0.325 OA
HETATM    6  C5  UNL     1      19.730   1.293  51.713  1.00  0.00     0.284 C 
HETATM    7  N1  UNL     1      19.708   1.152  50.276  1.00  0.00    -0.158 NA
HETATM    8  N2  UNL     1      20.856   0.873  49.749  1.00  0.00    -0.146 NA
HETATM    9  C6  UNL     1      21.971   0.747  50.662  1.00  0.00     0.259 C 
HETATM   10  N3  UNL     1      22.459   1.297  51.728  1.00  0.00    -0.222 NA
HETATM   11  C7  UNL     1      23.629   0.861  52.356  1.00  0.00     0.140 C 
HETATM   12  C15 UNL     1      23.209   0.199  53.420  1.00  0.00     0.133 C 
HETATM   13  N5  UNL     1      21.936  -0.102  53.957  1.00  0.00    -0.395 N 
HETATM   14  C16 UNL     1      20.589   0.397  53.825  1.00  0.00     0.135 C 
HETATM   15  C17 UNL     1      20.061   0.055  52.455  1.00  0.00     0.113 C 
HETATM   16  H14 UNL     1      21.984  -0.923  54.638  1.00  0.00     0.159 HD
ENDROOT
BRANCH  11  17
HETATM   17  N4  UNL     1      24.954   1.067  51.962  1.00  0.00    -0.369 N 
HETATM   18  H5  UNL     1      25.097   0.198  51.362  1.00  0.00     0.161 HD
BRANCH  17  19
HETATM   19  C8  UNL     1      26.008   2.035  52.156  1.00  0.00     0.160 C 
BRANCH  19  20
HETATM   20  C9  UNL     1      27.174   1.314  52.782  1.00  0.00    -0.041 A 
HETATM   21  C10 UNL     1      28.221   1.885  53.462  1.00  0.00     0.009 A 
HETATM   22  C11 UNL     1      29.220   1.084  53.974  1.00  0.00     0.001 A 
HETATM   23  C12 UNL     1      29.221  -0.287  53.832  1.00  0.00     0.000 A 
HETATM   24  C13 UNL     1      28.195  -0.894  53.160  1.00  0.00     0.001 A 
HETATM   25  C14 UNL     1      27.195  -0.074  52.650  1.00  0.00     0.009 A 
ENDBRANCH  19  20
ENDBRANCH  17  19
ENDBRANCH  11  17
TORSDOF 3
ENDMDL
MODEL 7
REMARK VINA RESULT:      -7.3      4.696      8.940
REMARK  3 active torsions:
REMARK  status: ('A' for Active; 'I' for Inactive)
REMARK    1  A    between atoms: C7_11  and  N4_12 
REMARK    2  A    between atoms: N4_12  and  C8_13 
REMARK    3  A    between atoms: C8_13  and  C9_14 
ROOT
HETATM    1  C1  UNL     1      21.753   6.850  45.657  1.00  0.00     0.017 C 
HETATM    2  C2  UNL     1      22.061   5.849  46.263  1.00  0.00    -0.087 C 
HETATM    3  C3  UNL     1      22.421   4.638  46.968  1.00  0.00     0.096 C 
HETATM    4  C4  UNL     1      22.907   4.787  48.197  1.00  0.00     0.067 C 
HETATM    5  O1  UNL     1      23.198   5.816  49.072  1.00  0.00    -0.325 OA
HETATM    6  C5  UNL     1      24.196   4.988  49.664  1.00  0.00     0.284 C 
HETATM    7  N1  UNL     1      25.495   5.087  49.039  1.00  0.00    -0.158 NA
HETATM    8  N2  UNL     1      26.306   4.125  49.340  1.00  0.00    -0.146 NA
HETATM    9  C6  UNL     1      25.802   3.113  50.241  1.00  0.00     0.259 C 
HETATM   10  N3  UNL     1      25.075   2.994  51.306  1.00  0.00    -0.222 NA
HETATM   11  C7  UNL     1      24.794   1.769  51.918  1.00  0.00     0.140 C 
HETATM   12  C15 UNL     1      23.548   1.501  51.569  1.00  0.00     0.133 C 
HETATM   13  N5  UNL     1      22.579   2.164  50.781  1.00  0.00    -0.395 N 
HETATM   14  C16 UNL     1      22.354   3.499  50.285  1.00  0.00     0.135 C 
HETATM   15  C17 UNL     1      23.387   3.824  49.236  1.00  0.00     0.113 C 
HETATM   16  H14 UNL     1      21.811   1.493  50.462  1.00  0.00     0.159 HD
ENDROOT
BRANCH  11  17
HETATM   17  N4  UNL     1      25.631   0.988  52.719  1.00  0.00    -0.369 N 
HETATM   18  H5  UNL     1      25.180   0.034  52.569  1.00  0.00     0.161 HD
BRANCH  17  19
HETATM   19  C8  UNL     1      26.783   1.154  53.575  1.00  0.00     0.160 C 
BRANCH  19  20
HETATM   20  C9  UNL     1      27.634  -0.081  53.432  1.00  0.00    -0.041 A 
HETATM   21  C10 UNL     1      28.969  -0.195  53.732  1.00  0.00     0.009 A 
HETATM   22  C11 UNL     1      29.611  -1.401  53.539  1.00  0.00     0.001 A 
HETATM   23  C12 UNL     1      28.967  -2.517  53.050  1.00  0.00     0.000 A 
HETATM   24  C13 UNL     1      27.635  -2.444  52.739  1.00  0.00     0.001 A 
HETATM   25  C14 UNL     1      27.003  -1.222  52.939  1.00  0.00     0.009 A 
ENDBRANCH  19  20
ENDBRANCH  17  19
ENDBRANCH  11  17
TORSDOF 3
ENDMDL
MODEL 8
REMARK VINA RESULT:      -7.2      4.033      8.658
REMARK  3 active torsions:
REMARK  status: ('A' for Active; 'I' for Inactive)
REMARK    1  A    between atoms: C7_11  and  N4_12 
REMARK    2  A    between atoms: N4_12  and  C8_13 
REMARK    3  A    between atoms: C8_13  and  C9_14 
ROOT
HETATM    1  C1  UNL     1      19.650   5.843  46.815  1.00  0.00     0.017 C 
HETATM    2  C2  UNL     1      20.082   5.486  47.887  1.00  0.00    -0.087 C 
HETATM    3  C3  UNL     1      20.581   5.074  49.180  1.00  0.00     0.096 C 
HETATM    4  C4  UNL     1      21.616   4.239  49.180  1.00  0.00     0.067 C 
HETATM    5  O1  UNL     1      22.420   3.595  48.260  1.00  0.00    -0.325 OA
HETATM    6  C5  UNL     1      22.643   2.567  49.221  1.00  0.00     0.284 C 
HETATM    7  N1  UNL     1      21.668   1.502  49.187  1.00  0.00    -0.158 NA
HETATM    8  N2  UNL     1      21.661   0.750  50.239  1.00  0.00    -0.146 NA
HETATM    9  C6  UNL     1      22.615   1.081  51.275  1.00  0.00     0.259 C 
HETATM   10  N3  UNL     1      23.840   1.477  51.417  1.00  0.00    -0.222 NA
HETATM   11  C7  UNL     1      24.440   1.702  52.659  1.00  0.00     0.140 C 
HETATM   12  C15 UNL     1      24.462   3.018  52.784  1.00  0.00     0.133 C 
HETATM   13  N5  UNL     1      24.034   4.094  51.973  1.00  0.00    -0.395 N 
HETATM   14  C16 UNL     1      23.701   4.303  50.586  1.00  0.00     0.135 C 
HETATM   15  C17 UNL     1      22.412   3.589  50.267  1.00  0.00     0.113 C 
HETATM   16  H14 UNL     1      23.922   4.991  52.542  1.00  0.00     0.159 HD
ENDROOT
BRANCH  11  17
HETATM   17  N4  UNL     1      24.913   0.762  53.578  1.00  0.00    -0.369 N 
HETATM   18  H5  UNL     1      24.851   1.339  54.471  1.00  0.00     0.161 HD
BRANCH  17  19
HETATM   19  C8  UNL     1      25.396  -0.599  53.589  1.00  0.00     0.160 C 
BRANCH  19  20
HETATM   20  C9  UNL     1      26.892  -0.547  53.764  1.00  0.00    -0.041 A 
HETATM   21  C10 UNL     1      27.596   0.337  54.544  1.00  0.00     0.009 A 
HETATM   22  C11 UNL     1      28.972   0.257  54.594  1.00  0.00     0.001 A 
HETATM   23  C12 UNL     1      29.690  -0.683  53.885  1.00  0.00     0.000 A 
HETATM   24  C13 UNL     1      29.024  -1.582  53.095  1.00  0.00     0.001 A 
HETATM   25  C14 UNL     1      27.638  -1.489  53.055  1.00  0.00     0.009 A 
ENDBRANCH  19  20
ENDBRANCH  17  19
ENDBRANCH  11  17
TORSDOF 3
ENDMDL
MODEL 9
REMARK VINA RESULT:      -7.0      5.570      7.515
REMARK  3 active torsions:
REMARK  status: ('A' for Active; 'I' for Inactive)
REMARK    1  A    between atoms: C7_11  and  N4_12 
REMARK    2  A    between atoms: N4_12  and  C8_13 
REMARK    3  A    between atoms: C8_13  and  C9_14 
ROOT
HETATM    1  C1  UNL     1      27.080   8.964  46.341  1.00  0.00     0.017 C 
HETATM    2  C2  UNL     1      26.127   8.383  46.806  1.00  0.00    -0.087 C 
HETATM    3  C3  UNL     1      24.973   7.693  47.341  1.00  0.00     0.096 C 
HETATM    4  C4  UNL     1      25.102   7.173  48.558  1.00  0.00     0.067 C 
HETATM    5  O1  UNL     1      26.068   7.079  49.541  1.00  0.00    -0.325 OA
HETATM    6  C5  UNL     1      25.453   5.872  49.985  1.00  0.00     0.284 C 
HETATM    7  N1  UNL     1      25.938   4.682  49.325  1.00  0.00    -0.158 NA
HETATM    8  N2  UNL     1      25.180   3.644  49.472  1.00  0.00    -0.146 NA
HETATM    9  C6  UNL     1      23.982   3.826  50.261  1.00  0.00     0.259 C 
HETATM   10  N3  UNL     1      23.571   4.427  51.332  1.00  0.00    -0.222 NA
HETATM   11  C7  UNL     1      22.255   4.361  51.799  1.00  0.00     0.140 C 
HETATM   12  C15 UNL     1      21.726   5.528  51.470  1.00  0.00     0.133 C 
HETATM   13  N5  UNL     1      22.211   6.679  50.810  1.00  0.00    -0.395 N 
HETATM   14  C16 UNL     1      23.495   7.253  50.492  1.00  0.00     0.135 C 
HETATM   15  C17 UNL     1      24.179   6.405  49.450  1.00  0.00     0.113 C 
HETATM   16  H14 UNL     1      21.411   7.284  50.441  1.00  0.00     0.159 HD
ENDROOT
BRANCH  11  17
HETATM   17  N4  UNL     1      21.622   3.308  52.463  1.00  0.00    -0.369 N 
HETATM   18  H5  UNL     1      21.689   3.665  53.465  1.00  0.00     0.161 HD
BRANCH  17  19
HETATM   19  C8  UNL     1      21.000   2.042  52.151  1.00  0.00     0.160 C 
BRANCH  19  20
HETATM   20  C9  UNL     1      21.712   0.979  52.947  1.00  0.00    -0.041 A 
HETATM   21  C10 UNL     1      22.999   0.539  52.759  1.00  0.00     0.009 A 
HETATM   22  C11 UNL     1      23.506  -0.452  53.574  1.00  0.00     0.001 A 
HETATM   23  C12 UNL     1      22.772  -1.034  54.584  1.00  0.00     0.000 A 
HETATM   24  C13 UNL     1      21.484  -0.623  54.803  1.00  0.00     0.001 A 
HETATM   25  C14 UNL     1      20.987   0.377  53.974  1.00  0.00     0.009 A 
ENDBRANCH  19  20
ENDBRANCH  17  19
ENDBRANCH  11  17
TORSDOF 3
ENDMDL
