MODEL 1
REMARK VINA RESULT:      -8.6      0.000      0.000
REMARK  9 active torsions:
REMARK  status: ('A' for Active; 'I' for Inactive)
REMARK    1  A    between atoms: C2_2  and  C3_3 
REMARK    2  A    between atoms: C7_9  and  N3_10 
REMARK    3  A    between atoms: N3_10  and  C8_11 
REMARK    4  A    between atoms: C10_13  and  O1_14 
REMARK    5  A    between atoms: C15_20  and  O2_21 
REMARK    6  A    between atoms: O2_21  and  C16_22 
REMARK    7  A    between atoms: C16_22  and  C17_23 
REMARK    8  A    between atoms: C17_23  and  N4_24 
REMARK    9  A    between atoms: N4_24  and  C18_25 
ROOT
HETATM    1  C3  UNL     1      22.522   0.313  53.054  1.00  0.00    -0.001 A 
HETATM    2  C4  UNL     1      21.613   1.314  52.758  1.00  0.00     0.046 A 
HETATM    3  C5  UNL     1      21.945   2.538  52.223  1.00  0.00     0.073 A 
HETATM    4  N1  UNL     1      21.046   3.500  51.942  1.00  0.00    -0.241 NA
HETATM    5  C6  UNL     1      21.403   4.685  51.419  1.00  0.00     0.235 A 
HETATM    6  N2  UNL     1      22.711   4.922  51.165  1.00  0.00    -0.224 NA
HETATM    7  C7  UNL     1      23.673   4.020  51.412  1.00  0.00     0.138 A 
HETATM    8  C13 UNL     1      23.260   2.825  51.948  1.00  0.00     0.041 A 
HETATM    9  C14 UNL     1      24.169   1.830  52.241  1.00  0.00     0.055 A 
HETATM   10  C15 UNL     1      23.876   0.584  52.781  1.00  0.00     0.080 A 
ENDROOT
BRANCH   7  11
HETATM   11  N3  UNL     1      25.026   4.325  51.112  1.00  0.00    -0.363 N 
HETATM   12  H6  UNL     1      25.800   4.571  51.729  1.00  0.00     0.162 HD
BRANCH  11  13
HETATM   13  C8  UNL     1      25.373   4.284  49.706  1.00  0.00     0.134 A 
HETATM   14  C9  UNL     1      26.759   3.805  49.458  1.00  0.00     0.040 A 
HETATM   15  C10 UNL     1      27.482   4.723  48.826  1.00  0.00     0.085 A 
HETATM   16  C11 UNL     1      26.622   5.901  48.601  1.00  0.00     0.065 A 
HETATM   17 CL1  UNL     1      26.909   7.453  47.843  1.00  0.00    -0.082 Cl
HETATM   18  C12 UNL     1      25.415   5.641  49.109  1.00  0.00     0.029 A 
BRANCH  15  19
HETATM   19  O1  UNL     1      28.795   4.855  48.339  1.00  0.00    -0.359 OA
HETATM   20  H9  UNL     1      29.379   4.057  48.156  1.00  0.00     0.217 HD
ENDBRANCH  15  19
ENDBRANCH  11  13
ENDBRANCH   7  11
BRANCH  10  21
HETATM   21  O2  UNL     1      24.731  -0.407  53.078  1.00  0.00    -0.349 OA
BRANCH  21  22
HETATM   22  C16 UNL     1      25.455  -0.776  54.188  1.00  0.00     0.195 C 
BRANCH  22  23
HETATM   23  C17 UNL     1      26.385   0.260  54.761  1.00  0.00     0.141 C 
BRANCH  23  24
HETATM   24  N4  UNL     1      27.744  -0.072  54.871  1.00  0.00    -0.412 N 
HETATM   25  H16 UNL     1      28.050  -0.520  55.745  1.00  0.00     0.154 HD
BRANCH  24  26
HETATM   26  C18 UNL     1      28.727   0.467  54.043  1.00  0.00     0.014 C 
HETATM   27  C19 UNL     1      29.818  -0.397  53.528  1.00  0.00     0.037 C 
HETATM   28  C20 UNL     1      27.998   1.014  52.789  1.00  0.00     0.037 C 
HETATM   29  C21 UNL     1      29.389   1.715  54.635  1.00  0.00     0.037 C 
ENDBRANCH  24  26
ENDBRANCH  23  24
ENDBRANCH  22  23
ENDBRANCH  21  22
ENDBRANCH  10  21
BRANCH   1  30
HETATM   30  C2  UNL     1      22.124  -0.959  53.610  1.00  0.00     0.004 C 
HETATM   31  C1  UNL     1      21.771  -1.190  54.886  1.00  0.00     0.012 C 
ENDBRANCH   1  30
TORSDOF 9
ENDMDL
MODEL 2
REMARK VINA RESULT:      -8.6      3.173      5.861
REMARK  9 active torsions:
REMARK  status: ('A' for Active; 'I' for Inactive)
REMARK    1  A    between atoms: C2_2  and  C3_3 
REMARK    2  A    between atoms: C7_9  and  N3_10 
REMARK    3  A    between atoms: N3_10  and  C8_11 
REMARK    4  A    between atoms: C10_13  and  O1_14 
REMARK    5  A    between atoms: C15_20  and  O2_21 
REMARK    6  A    between atoms: O2_21  and  C16_22 
REMARK    7  A    between atoms: C16_22  and  C17_23 
REMARK    8  A    between atoms: C17_23  and  N4_24 
REMARK    9  A    between atoms: N4_24  and  C18_25 
ROOT
HETATM    1  C3  UNL     1      20.316   0.123  52.247  1.00  0.00    -0.001 A 
HETATM    2  C4  UNL     1      20.576  -0.556  53.426  1.00  0.00     0.046 A 
HETATM    3  C5  UNL     1      21.828  -0.720  53.973  1.00  0.00     0.073 A 
HETATM    4  N1  UNL     1      22.061  -1.384  55.120  1.00  0.00    -0.241 NA
HETATM    5  C6  UNL     1      23.296  -1.526  55.629  1.00  0.00     0.235 A 
HETATM    6  N2  UNL     1      24.344  -0.984  54.966  1.00  0.00    -0.224 NA
HETATM    7  C7  UNL     1      24.203  -0.306  53.817  1.00  0.00     0.138 A 
HETATM    8  C13 UNL     1      22.922  -0.187  53.336  1.00  0.00     0.041 A 
HETATM    9  C14 UNL     1      22.668   0.489  52.162  1.00  0.00     0.055 A 
HETATM   10  C15 UNL     1      21.422   0.677  51.576  1.00  0.00     0.080 A 
ENDROOT
BRANCH   7  11
HETATM   11  N3  UNL     1      25.341   0.249  53.176  1.00  0.00    -0.363 N 
HETATM   12  H6  UNL     1      25.553   0.360  52.184  1.00  0.00     0.162 HD
BRANCH  11  13
HETATM   13  C8  UNL     1      26.376   0.739  54.065  1.00  0.00     0.134 A 
HETATM   14  C9  UNL     1      26.896   2.076  53.678  1.00  0.00     0.040 A 
HETATM   15  C10 UNL     1      28.200   2.034  53.424  1.00  0.00     0.085 A 
HETATM   16  C11 UNL     1      28.654   0.644  53.626  1.00  0.00     0.065 A 
HETATM   17 CL1  UNL     1      30.219  -0.128  53.471  1.00  0.00    -0.082 Cl
HETATM   18  C12 UNL     1      27.602  -0.092  53.993  1.00  0.00     0.029 A 
BRANCH  15  19
HETATM   19  O1  UNL     1      29.211   2.929  53.032  1.00  0.00    -0.359 OA
HETATM   20  H9  UNL     1      30.184   2.675  53.047  1.00  0.00     0.217 HD
ENDBRANCH  15  19
ENDBRANCH  11  13
ENDBRANCH   7  11
BRANCH  10  21
HETATM   21  O2  UNL     1      21.136   1.329  50.438  1.00  0.00    -0.349 OA
BRANCH  21  22
HETATM   22  C16 UNL     1      21.790   1.559  49.250  1.00  0.00     0.195 C 
BRANCH  22  23
HETATM   23  C17 UNL     1      22.384   2.928  49.062  1.00  0.00     0.141 C 
BRANCH  23  24
HETATM   24  N4  UNL     1      23.782   3.039  49.055  1.00  0.00    -0.412 N 
HETATM   25  H16 UNL     1      24.305   2.367  48.478  1.00  0.00     0.154 HD
BRANCH  24  26
HETATM   26  C18 UNL     1      24.493   3.752  50.019  1.00  0.00     0.014 C 
HETATM   27  C19 UNL     1      23.917   3.946  51.373  1.00  0.00     0.037 C 
HETATM   28  C20 UNL     1      25.826   2.991  50.237  1.00  0.00     0.037 C 
HETATM   29  C21 UNL     1      24.951   5.128  49.528  1.00  0.00     0.037 C 
ENDBRANCH  24  26
ENDBRANCH  23  24
ENDBRANCH  22  23
ENDBRANCH  21  22
ENDBRANCH  10  21
BRANCH   1  30
HETATM   30  C2  UNL     1      18.982   0.274  51.715  1.00  0.00     0.004 C 
HETATM   31  C1  UNL     1      17.930  -0.521  51.977  1.00  0.00     0.012 C 
ENDBRANCH   1  30
TORSDOF 9
ENDMDL
MODEL 3
REMARK VINA RESULT:      -7.8      3.351      6.668
REMARK  9 active torsions:
REMARK  status: ('A' for Active; 'I' for Inactive)
REMARK    1  A    between atoms: C2_2  and  C3_3 
REMARK    2  A    between atoms: C7_9  and  N3_10 
REMARK    3  A    between atoms: N3_10  and  C8_11 
REMARK    4  A    between atoms: C10_13  and  O1_14 
REMARK    5  A    between atoms: C15_20  and  O2_21 
REMARK    6  A    between atoms: O2_21  and  C16_22 
REMARK    7  A    between atoms: C16_22  and  C17_23 
REMARK    8  A    between atoms: C17_23  and  N4_24 
REMARK    9  A    between atoms: N4_24  and  C18_25 
ROOT
HETATM    1  C3  UNL     1      21.194   0.306  51.803  1.00  0.00    -0.001 A 
HETATM    2  C4  UNL     1      21.364  -0.498  52.918  1.00  0.00     0.046 A 
HETATM    3  C5  UNL     1      22.531  -0.595  53.641  1.00  0.00     0.073 A 
HETATM    4  N1  UNL     1      22.678  -1.381  54.722  1.00  0.00    -0.241 NA
HETATM    5  C6  UNL     1      23.831  -1.453  55.408  1.00  0.00     0.235 A 
HETATM    6  N2  UNL     1      24.884  -0.708  54.997  1.00  0.00    -0.224 NA
HETATM    7  C7  UNL     1      24.827   0.103  53.930  1.00  0.00     0.138 A 
HETATM    8  C13 UNL     1      23.627   0.142  53.262  1.00  0.00     0.041 A 
HETATM    9  C14 UNL     1      23.463   0.943  52.152  1.00  0.00     0.055 A 
HETATM   10  C15 UNL     1      22.304   1.069  51.395  1.00  0.00     0.080 A 
ENDROOT
BRANCH   7  11
HETATM   11  N3  UNL     1      25.963   0.867  53.557  1.00  0.00    -0.363 N 
HETATM   12  H6  UNL     1      26.248   1.807  53.834  1.00  0.00     0.162 HD
BRANCH  11  13
HETATM   13  C8  UNL     1      26.871   0.216  52.634  1.00  0.00     0.134 A 
HETATM   14  C9  UNL     1      26.628  -1.245  52.504  1.00  0.00     0.040 A 
HETATM   15  C10 UNL     1      27.700  -1.946  52.857  1.00  0.00     0.085 A 
HETATM   16  C11 UNL     1      28.753  -0.992  53.255  1.00  0.00     0.065 A 
HETATM   17 CL1  UNL     1      30.395  -1.207  53.826  1.00  0.00    -0.082 Cl
HETATM   18  C12 UNL     1      28.270   0.245  53.124  1.00  0.00     0.029 A 
BRANCH  15  19
HETATM   19  O1  UNL     1      28.072  -3.299  52.946  1.00  0.00    -0.359 OA
HETATM   20  H9  UNL     1      27.406  -4.023  53.158  1.00  0.00     0.217 HD
ENDBRANCH  15  19
ENDBRANCH  11  13
ENDBRANCH   7  11
BRANCH  10  21
HETATM   21  O2  UNL     1      22.106   1.837  50.312  1.00  0.00    -0.349 OA
BRANCH  21  22
HETATM   22  C16 UNL     1      22.915   2.423  49.367  1.00  0.00     0.195 C 
BRANCH  22  23
HETATM   23  C17 UNL     1      23.377   3.826  49.651  1.00  0.00     0.141 C 
BRANCH  23  24
HETATM   24  N4  UNL     1      22.399   4.826  49.762  1.00  0.00    -0.412 N 
HETATM   25  H16 UNL     1      22.324   5.499  48.987  1.00  0.00     0.154 HD
BRANCH  24  26
HETATM   26  C18 UNL     1      21.787   5.160  50.969  1.00  0.00     0.014 C 
HETATM   27  C19 UNL     1      22.462   4.850  52.254  1.00  0.00     0.037 C 
HETATM   28  C20 UNL     1      21.595   6.698  50.956  1.00  0.00     0.037 C 
HETATM   29  C21 UNL     1      20.354   4.629  51.080  1.00  0.00     0.037 C 
ENDBRANCH  24  26
ENDBRANCH  23  24
ENDBRANCH  22  23
ENDBRANCH  21  22
ENDBRANCH  10  21
BRANCH   1  30
HETATM   30  C2  UNL     1      19.946   0.377  51.080  1.00  0.00     0.004 C 
HETATM   31  C1  UNL     1      18.721   0.177  51.594  1.00  0.00     0.012 C 
ENDBRANCH   1  30
TORSDOF 9
ENDMDL
MODEL 4
REMARK VINA RESULT:      -7.8      2.990      6.880
REMARK  9 active torsions:
REMARK  status: ('A' for Active; 'I' for Inactive)
REMARK    1  A    between atoms: C2_2  and  C3_3 
REMARK    2  A    between atoms: C7_9  and  N3_10 
REMARK    3  A    between atoms: N3_10  and  C8_11 
REMARK    4  A    between atoms: C10_13  and  O1_14 
REMARK    5  A    between atoms: C15_20  and  O2_21 
REMARK    6  A    between atoms: O2_21  and  C16_22 
REMARK    7  A    between atoms: C16_22  and  C17_23 
REMARK    8  A    between atoms: C17_23  and  N4_24 
REMARK    9  A    between atoms: N4_24  and  C18_25 
ROOT
HETATM    1  C3  UNL     1      27.058   0.514  53.381  1.00  0.00    -0.001 A 
HETATM    2  C4  UNL     1      26.513  -0.200  54.435  1.00  0.00     0.046 A 
HETATM    3  C5  UNL     1      25.186  -0.549  54.539  1.00  0.00     0.073 A 
HETATM    4  N1  UNL     1      24.674  -1.244  55.572  1.00  0.00    -0.241 NA
HETATM    5  C6  UNL     1      23.373  -1.570  55.643  1.00  0.00     0.235 A 
HETATM    6  N2  UNL     1      22.546  -1.188  54.642  1.00  0.00    -0.224 NA
HETATM    7  C7  UNL     1      22.970  -0.494  53.575  1.00  0.00     0.138 A 
HETATM    8  C13 UNL     1      24.308  -0.183  53.547  1.00  0.00     0.041 A 
HETATM    9  C14 UNL     1      24.846   0.529  52.497  1.00  0.00     0.055 A 
HETATM   10  C15 UNL     1      26.177   0.902  52.353  1.00  0.00     0.080 A 
ENDROOT
BRANCH   7  11
HETATM   11  N3  UNL     1      22.055  -0.133  52.554  1.00  0.00    -0.363 N 
HETATM   12  H6  UNL     1      22.130  -0.212  51.539  1.00  0.00     0.162 HD
BRANCH  11  13
HETATM   13  C8  UNL     1      20.808   0.445  53.015  1.00  0.00     0.134 A 
HETATM   14  C9  UNL     1      19.626  -0.015  52.238  1.00  0.00     0.040 A 
HETATM   15  C10 UNL     1      19.000   1.004  51.661  1.00  0.00     0.085 A 
HETATM   16  C11 UNL     1      19.727   2.239  52.013  1.00  0.00     0.065 A 
HETATM   17 CL1  UNL     1      19.472   3.924  51.607  1.00  0.00    -0.082 Cl
HETATM   18  C12 UNL     1      20.762   1.909  52.790  1.00  0.00     0.029 A 
BRANCH  15  19
HETATM   19  O1  UNL     1      17.876   1.201  50.839  1.00  0.00    -0.359 OA
HETATM   20  H9  UNL     1      17.895   1.825  50.050  1.00  0.00     0.217 HD
ENDBRANCH  15  19
ENDBRANCH  11  13
ENDBRANCH   7  11
BRANCH  10  21
HETATM   21  O2  UNL     1      26.737   1.591  51.347  1.00  0.00    -0.349 OA
BRANCH  21  22
HETATM   22  C16 UNL     1      26.778   2.913  50.971  1.00  0.00     0.195 C 
BRANCH  22  23
HETATM   23  C17 UNL     1      25.522   3.483  50.369  1.00  0.00     0.141 C 
BRANCH  23  24
HETATM   24  N4  UNL     1      25.020   4.675  50.914  1.00  0.00    -0.412 N 
HETATM   25  H16 UNL     1      25.695   5.307  51.367  1.00  0.00     0.154 HD
BRANCH  24  26
HETATM   26  C18 UNL     1      23.667   4.880  51.176  1.00  0.00     0.014 C 
HETATM   27  C19 UNL     1      23.031   6.174  50.827  1.00  0.00     0.037 C 
HETATM   28  C20 UNL     1      22.894   3.803  50.373  1.00  0.00     0.037 C 
HETATM   29  C21 UNL     1      23.287   4.574  52.628  1.00  0.00     0.037 C 
ENDBRANCH  24  26
ENDBRANCH  23  24
ENDBRANCH  22  23
ENDBRANCH  21  22
ENDBRANCH  10  21
BRANCH   1  30
HETATM   30  C2  UNL     1      28.460   0.852  53.314  1.00  0.00     0.004 C 
HETATM   31  C1  UNL     1      29.488   0.016  53.538  1.00  0.00     0.012 C 
ENDBRANCH   1  30
TORSDOF 9
ENDMDL
MODEL 5
REMARK VINA RESULT:      -7.7      3.608      7.359
REMARK  9 active torsions:
REMARK  status: ('A' for Active; 'I' for Inactive)
REMARK    1  A    between atoms: C2_2  and  C3_3 
REMARK    2  A    between atoms: C7_9  and  N3_10 
REMARK    3  A    between atoms: N3_10  and  C8_11 
REMARK    4  A    between atoms: C10_13  and  O1_14 
REMARK    5  A    between atoms: C15_20  and  O2_21 
REMARK    6  A    between atoms: O2_21  and  C16_22 
REMARK    7  A    between atoms: C16_22  and  C17_23 
REMARK    8  A    between atoms: C17_23  and  N4_24 
REMARK    9  A    between atoms: N4_24  and  C18_25 
ROOT
HETATM    1  C3  UNL     1      25.191   5.836  48.885  1.00  0.00    -0.001 A 
HETATM    2  C4  UNL     1      24.082   5.353  49.559  1.00  0.00     0.046 A 
HETATM    3  C5  UNL     1      24.075   4.222  50.343  1.00  0.00     0.073 A 
HETATM    4  N1  UNL     1      22.986   3.768  50.990  1.00  0.00    -0.241 NA
HETATM    5  C6  UNL     1      23.012   2.659  51.749  1.00  0.00     0.235 A 
HETATM    6  N2  UNL     1      24.174   1.974  51.868  1.00  0.00    -0.224 NA
HETATM    7  C7  UNL     1      25.307   2.355  51.259  1.00  0.00     0.138 A 
HETATM    8  C13 UNL     1      25.230   3.494  50.494  1.00  0.00     0.041 A 
HETATM    9  C14 UNL     1      26.337   3.971  49.824  1.00  0.00     0.055 A 
HETATM   10  C15 UNL     1      26.386   5.106  49.024  1.00  0.00     0.080 A 
ENDROOT
BRANCH   7  11
HETATM   11  N3  UNL     1      26.495   1.600  51.432  1.00  0.00    -0.363 N 
HETATM   12  H6  UNL     1      27.172   1.265  50.746  1.00  0.00     0.162 HD
BRANCH  11  13
HETATM   13  C8  UNL     1      26.806   1.239  52.801  1.00  0.00     0.134 A 
HETATM   14  C9  UNL     1      27.543   2.302  53.535  1.00  0.00     0.040 A 
HETATM   15  C10 UNL     1      28.724   1.868  53.957  1.00  0.00     0.085 A 
HETATM   16  C11 UNL     1      28.868   0.462  53.532  1.00  0.00     0.065 A 
HETATM   17 CL1  UNL     1      30.148  -0.716  53.737  1.00  0.00    -0.082 Cl
HETATM   18  C12 UNL     1      27.764   0.110  52.870  1.00  0.00     0.029 A 
BRANCH  15  19
HETATM   19  O1  UNL     1      29.823   2.378  54.672  1.00  0.00    -0.359 OA
HETATM   20  H9  UNL     1      30.552   2.907  54.225  1.00  0.00     0.217 HD
ENDBRANCH  15  19
ENDBRANCH  11  13
ENDBRANCH   7  11
BRANCH  10  21
HETATM   21  O2  UNL     1      27.442   5.600  48.359  1.00  0.00    -0.349 OA
BRANCH  21  22
HETATM   22  C16 UNL     1      28.795   5.354  48.348  1.00  0.00     0.195 C 
BRANCH  22  23
HETATM   23  C17 UNL     1      29.686   6.498  47.947  1.00  0.00     0.141 C 
BRANCH  23  24
HETATM   24  N4  UNL     1      29.796   7.582  48.831  1.00  0.00    -0.412 N 
HETATM   25  H16 UNL     1      28.946   7.864  49.339  1.00  0.00     0.154 HD
BRANCH  24  26
HETATM   26  C18 UNL     1      30.858   8.483  48.800  1.00  0.00     0.014 C 
HETATM   27  C19 UNL     1      31.418   8.925  47.499  1.00  0.00     0.037 C 
HETATM   28  C20 UNL     1      30.363   9.774  49.502  1.00  0.00     0.037 C 
HETATM   29  C21 UNL     1      32.041   8.044  49.669  1.00  0.00     0.037 C 
ENDBRANCH  24  26
ENDBRANCH  23  24
ENDBRANCH  22  23
ENDBRANCH  21  22
ENDBRANCH  10  21
BRANCH   1  30
HETATM   30  C2  UNL     1      25.150   7.033  48.079  1.00  0.00     0.004 C 
HETATM   31  C1  UNL     1      24.183   7.368  47.207  1.00  0.00     0.012 C 
ENDBRANCH   1  30
TORSDOF 9
ENDMDL
MODEL 6
REMARK VINA RESULT:      -7.7      2.107      5.204
REMARK  9 active torsions:
REMARK  status: ('A' for Active; 'I' for Inactive)
REMARK    1  A    between atoms: C2_2  and  C3_3 
REMARK    2  A    between atoms: C7_9  and  N3_10 
REMARK    3  A    between atoms: N3_10  and  C8_11 
REMARK    4  A    between atoms: C10_13  and  O1_14 
REMARK    5  A    between atoms: C15_20  and  O2_21 
REMARK    6  A    between atoms: O2_21  and  C16_22 
REMARK    7  A    between atoms: C16_22  and  C17_23 
REMARK    8  A    between atoms: C17_23  and  N4_24 
REMARK    9  A    between atoms: N4_24  and  C18_25 
ROOT
HETATM    1  C3  UNL     1      22.630   0.238  53.166  1.00  0.00    -0.001 A 
HETATM    2  C4  UNL     1      23.915  -0.278  53.214  1.00  0.00     0.046 A 
HETATM    3  C5  UNL     1      25.041   0.388  52.789  1.00  0.00     0.073 A 
HETATM    4  N1  UNL     1      26.282  -0.131  52.844  1.00  0.00    -0.241 NA
HETATM    5  C6  UNL     1      27.363   0.546  52.422  1.00  0.00     0.235 A 
HETATM    6  N2  UNL     1      27.200   1.794  51.923  1.00  0.00    -0.224 NA
HETATM    7  C7  UNL     1      26.001   2.388  51.832  1.00  0.00     0.138 A 
HETATM    8  C13 UNL     1      24.926   1.657  52.275  1.00  0.00     0.041 A 
HETATM    9  C14 UNL     1      23.650   2.174  52.224  1.00  0.00     0.055 A 
HETATM   10  C15 UNL     1      22.487   1.536  52.641  1.00  0.00     0.080 A 
ENDROOT
BRANCH   7  11
HETATM   11  N3  UNL     1      25.898   3.703  51.310  1.00  0.00    -0.363 N 
HETATM   12  H6  UNL     1      25.807   4.600  51.788  1.00  0.00     0.162 HD
BRANCH  11  13
HETATM   13  C8  UNL     1      25.925   3.800  49.864  1.00  0.00     0.134 A 
HETATM   14  C9  UNL     1      27.211   4.327  49.335  1.00  0.00     0.040 A 
HETATM   15  C10 UNL     1      27.027   5.446  48.643  1.00  0.00     0.085 A 
HETATM   16  C11 UNL     1      25.584   5.755  48.658  1.00  0.00     0.065 A 
HETATM   17 CL1  UNL     1      24.642   7.058  47.965  1.00  0.00    -0.082 Cl
HETATM   18  C12 UNL     1      24.960   4.806  49.360  1.00  0.00     0.029 A 
BRANCH  15  19
HETATM   19  O1  UNL     1      27.816   6.369  47.934  1.00  0.00    -0.359 OA
HETATM   20  H9  UNL     1      27.925   6.321  46.935  1.00  0.00     0.217 HD
ENDBRANCH  15  19
ENDBRANCH  11  13
ENDBRANCH   7  11
BRANCH  10  21
HETATM   21  O2  UNL     1      21.231   2.007  52.609  1.00  0.00    -0.349 OA
BRANCH  21  22
HETATM   22  C16 UNL     1      20.649   3.225  52.347  1.00  0.00     0.195 C 
BRANCH  22  23
HETATM   23  C17 UNL     1      20.199   3.467  50.931  1.00  0.00     0.141 C 
BRANCH  23  24
HETATM   24  N4  UNL     1      21.178   3.475  49.927  1.00  0.00    -0.412 N 
HETATM   25  H16 UNL     1      21.762   4.318  49.845  1.00  0.00     0.154 HD
BRANCH  24  26
HETATM   26  C18 UNL     1      21.172   2.587  48.853  1.00  0.00     0.014 C 
HETATM   27  C19 UNL     1      21.467   1.149  49.076  1.00  0.00     0.037 C 
HETATM   28  C20 UNL     1      19.745   2.632  48.250  1.00  0.00     0.037 C 
HETATM   29  C21 UNL     1      22.058   3.047  47.691  1.00  0.00     0.037 C 
ENDBRANCH  24  26
ENDBRANCH  23  24
ENDBRANCH  22  23
ENDBRANCH  21  22
ENDBRANCH  10  21
BRANCH   1  30
HETATM   30  C2  UNL     1      21.479  -0.499  53.630  1.00  0.00     0.004 C 
HETATM   31  C1  UNL     1      21.490  -1.516  54.508  1.00  0.00     0.012 C 
ENDBRANCH   1  30
TORSDOF 9
ENDMDL
MODEL 7
REMARK VINA RESULT:      -7.6      2.978      5.943
REMARK  9 active torsions:
REMARK  status: ('A' for Active; 'I' for Inactive)
REMARK    1  A    between atoms: C2_2  and  C3_3 
REMARK    2  A    between atoms: C7_9  and  N3_10 
REMARK    3  A    between atoms: N3_10  and  C8_11 
REMARK    4  A    between atoms: C10_13  and  O1_14 
REMARK    5  A    between atoms: C15_20  and  O2_21 
REMARK    6  A    between atoms: O2_21  and  C16_22 
REMARK    7  A    between atoms: C16_22  and  C17_23 
REMARK    8  A    between atoms: C17_23  and  N4_24 
REMARK    9  A    between atoms: N4_24  and  C18_25 
ROOT
HETATM    1  C3  UNL     1      26.299   0.272  52.360  1.00  0.00    -0.001 A 
HETATM    2  C4  UNL     1      26.886   1.203  51.520  1.00  0.00     0.046 A 
HETATM    3  C5  UNL     1      26.274   2.354  51.080  1.00  0.00     0.073 A 
HETATM    4  N1  UNL     1      26.862   3.247  50.263  1.00  0.00    -0.241 NA
HETATM    5  C6  UNL     1      26.237   4.363  49.851  1.00  0.00     0.235 A 
HETATM    6  N2  UNL     1      24.972   4.599  50.272  1.00  0.00    -0.224 NA
HETATM    7  C7  UNL     1      24.311   3.763  51.087  1.00  0.00     0.138 A 
HETATM    8  C13 UNL     1      24.991   2.636  51.480  1.00  0.00     0.041 A 
HETATM    9  C14 UNL     1      24.402   1.711  52.315  1.00  0.00     0.055 A 
HETATM   10  C15 UNL     1      24.982   0.538  52.782  1.00  0.00     0.080 A 
ENDROOT
BRANCH   7  11
HETATM   11  N3  UNL     1      22.990   4.073  51.501  1.00  0.00    -0.363 N 
HETATM   12  H6  UNL     1      22.536   3.954  52.406  1.00  0.00     0.162 HD
BRANCH  11  13
HETATM   13  C8  UNL     1      22.140   4.651  50.479  1.00  0.00     0.134 A 
HETATM   14  C9  UNL     1      20.858   5.181  51.014  1.00  0.00     0.040 A 
HETATM   15  C10 UNL     1      19.815   4.574  50.460  1.00  0.00     0.085 A 
HETATM   16  C11 UNL     1      20.328   3.578  49.500  1.00  0.00     0.065 A 
HETATM   17 CL1  UNL     1      19.534   2.437  48.435  1.00  0.00    -0.082 Cl
HETATM   18  C12 UNL     1      21.662   3.629  49.517  1.00  0.00     0.029 A 
BRANCH  15  19
HETATM   19  O1  UNL     1      18.412   4.633  50.548  1.00  0.00    -0.359 OA
HETATM   20  H9  UNL     1      17.822   3.924  50.147  1.00  0.00     0.217 HD
ENDBRANCH  15  19
ENDBRANCH  11  13
ENDBRANCH   7  11
BRANCH  10  21
HETATM   21  O2  UNL     1      24.442  -0.383  53.595  1.00  0.00    -0.349 OA
BRANCH  21  22
HETATM   22  C16 UNL     1      23.200  -0.594  54.147  1.00  0.00     0.195 C 
BRANCH  22  23
HETATM   23  C17 UNL     1      22.137  -1.132  53.228  1.00  0.00     0.141 C 
BRANCH  23  24
HETATM   24  N4  UNL     1      20.870  -0.532  53.273  1.00  0.00    -0.412 N 
HETATM   25  H16 UNL     1      20.189  -0.920  53.939  1.00  0.00     0.154 HD
BRANCH  24  26
HETATM   26  C18 UNL     1      20.385   0.297  52.263  1.00  0.00     0.014 C 
HETATM   27  C19 UNL     1      18.986   0.148  51.789  1.00  0.00     0.037 C 
HETATM   28  C20 UNL     1      20.495   1.750  52.792  1.00  0.00     0.037 C 
HETATM   29  C21 UNL     1      21.277   0.308  51.018  1.00  0.00     0.037 C 
ENDBRANCH  24  26
ENDBRANCH  23  24
ENDBRANCH  22  23
ENDBRANCH  21  22
ENDBRANCH  10  21
BRANCH   1  30
HETATM   30  C2  UNL     1      26.985  -0.920  52.800  1.00  0.00     0.004 C 
HETATM   31  C1  UNL     1      28.253  -0.987  53.240  1.00  0.00     0.012 C 
ENDBRANCH   1  30
TORSDOF 9
ENDMDL
MODEL 8
REMARK VINA RESULT:      -7.6      3.188      4.368
REMARK  9 active torsions:
REMARK  status: ('A' for Active; 'I' for Inactive)
REMARK    1  A    between atoms: C2_2  and  C3_3 
REMARK    2  A    between atoms: C7_9  and  N3_10 
REMARK    3  A    between atoms: N3_10  and  C8_11 
REMARK    4  A    between atoms: C10_13  and  O1_14 
REMARK    5  A    between atoms: C15_20  and  O2_21 
REMARK    6  A    between atoms: O2_21  and  C16_22 
REMARK    7  A    between atoms: C16_22  and  C17_23 
REMARK    8  A    between atoms: C17_23  and  N4_24 
REMARK    9  A    between atoms: N4_24  and  C18_25 
ROOT
HETATM    1  C3  UNL     1      23.734   3.509  49.515  1.00  0.00    -0.001 A 
HETATM    2  C4  UNL     1      23.325   4.567  48.719  1.00  0.00     0.046 A 
HETATM    3  C5  UNL     1      24.096   5.669  48.429  1.00  0.00     0.073 A 
HETATM    4  N1  UNL     1      23.681   6.688  47.654  1.00  0.00    -0.241 NA
HETATM    5  C6  UNL     1      24.458   7.751  47.388  1.00  0.00     0.235 A 
HETATM    6  N2  UNL     1      25.703   7.800  47.918  1.00  0.00    -0.224 NA
HETATM    7  C7  UNL     1      26.198   6.830  48.700  1.00  0.00     0.138 A 
HETATM    8  C13 UNL     1      25.366   5.764  48.944  1.00  0.00     0.041 A 
HETATM    9  C14 UNL     1      25.776   4.714  49.737  1.00  0.00     0.055 A 
HETATM   10  C15 UNL     1      25.031   3.585  50.055  1.00  0.00     0.080 A 
ENDROOT
BRANCH   7  11
HETATM   11  N3  UNL     1      27.515   6.936  49.216  1.00  0.00    -0.363 N 
HETATM   12  H6  UNL     1      27.843   7.036  50.177  1.00  0.00     0.162 HD
BRANCH  11  13
HETATM   13  C8  UNL     1      28.574   6.897  48.226  1.00  0.00     0.134 A 
HETATM   14  C9  UNL     1      29.260   5.580  48.153  1.00  0.00     0.040 A 
HETATM   15  C10 UNL     1      30.556   5.695  48.420  1.00  0.00     0.085 A 
HETATM   16  C11 UNL     1      30.837   7.118  48.696  1.00  0.00     0.065 A 
HETATM   17 CL1  UNL     1      32.303   7.979  49.114  1.00  0.00    -0.082 Cl
HETATM   18  C12 UNL     1      29.695   7.799  48.582  1.00  0.00     0.029 A 
BRANCH  15  19
HETATM   19  O1  UNL     1      31.678   4.851  48.505  1.00  0.00    -0.359 OA
HETATM   20  H9  UNL     1      31.862   4.138  47.819  1.00  0.00     0.217 HD
ENDBRANCH  15  19
ENDBRANCH  11  13
ENDBRANCH   7  11
BRANCH  10  21
HETATM   21  O2  UNL     1      25.397   2.544  50.820  1.00  0.00    -0.349 OA
BRANCH  21  22
HETATM   22  C16 UNL     1      26.585   1.925  51.127  1.00  0.00     0.195 C 
BRANCH  22  23
HETATM   23  C17 UNL     1      27.057   2.039  52.551  1.00  0.00     0.141 C 
BRANCH  23  24
HETATM   24  N4  UNL     1      28.227   1.352  52.909  1.00  0.00    -0.412 N 
HETATM   25  H16 UNL     1      29.104   1.654  52.465  1.00  0.00     0.154 HD
BRANCH  24  26
HETATM   26  C18 UNL     1      28.215   0.108  53.537  1.00  0.00     0.014 C 
HETATM   27  C19 UNL     1      27.481  -1.026  52.924  1.00  0.00     0.037 C 
HETATM   28  C20 UNL     1      29.693  -0.352  53.632  1.00  0.00     0.037 C 
HETATM   29  C21 UNL     1      27.777   0.182  55.003  1.00  0.00     0.037 C 
ENDBRANCH  24  26
ENDBRANCH  23  24
ENDBRANCH  22  23
ENDBRANCH  21  22
ENDBRANCH  10  21
BRANCH   1  30
HETATM   30  C2  UNL     1      22.889   2.370  49.786  1.00  0.00     0.004 C 
HETATM   31  C1  UNL     1      22.110   1.731  48.897  1.00  0.00     0.012 C 
ENDBRANCH   1  30
TORSDOF 9
ENDMDL
MODEL 9
REMARK VINA RESULT:      -7.3      2.656      5.454
REMARK  9 active torsions:
REMARK  status: ('A' for Active; 'I' for Inactive)
REMARK    1  A    between atoms: C2_2  and  C3_3 
REMARK    2  A    between atoms: C7_9  and  N3_10 
REMARK    3  A    between atoms: N3_10  and  C8_11 
REMARK    4  A    between atoms: C10_13  and  O1_14 
REMARK    5  A    between atoms: C15_20  and  O2_21 
REMARK    6  A    between atoms: O2_21  and  C16_22 
REMARK    7  A    between atoms: C16_22  and  C17_23 
REMARK    8  A    between atoms: C17_23  and  N4_24 
REMARK    9  A    between atoms: N4_24  and  C18_25 
ROOT
HETATM    1  C3  UNL     1      23.254  -0.026  53.259  1.00  0.00    -0.001 A 
HETATM    2  C4  UNL     1      24.606   0.168  53.486  1.00  0.00     0.046 A 
HETATM    3  C5  UNL     1      25.404   1.030  52.769  1.00  0.00     0.073 A 
HETATM    4  N1  UNL     1      26.717   1.204  53.005  1.00  0.00    -0.241 NA
HETATM    5  C6  UNL     1      27.469   2.055  52.287  1.00  0.00     0.235 A 
HETATM    6  N2  UNL     1      26.887   2.762  51.290  1.00  0.00    -0.224 NA
HETATM    7  C7  UNL     1      25.585   2.652  50.987  1.00  0.00     0.138 A 
HETATM    8  C13 UNL     1      24.858   1.769  51.748  1.00  0.00     0.041 A 
HETATM    9  C14 UNL     1      23.512   1.579  51.517  1.00  0.00     0.055 A 
HETATM   10  C15 UNL     1      22.672   0.720  52.216  1.00  0.00     0.080 A 
ENDROOT
BRANCH   7  11
HETATM   11  N3  UNL     1      25.032   3.430  49.937  1.00  0.00    -0.363 N 
HETATM   12  H6  UNL     1      24.534   3.144  49.094  1.00  0.00     0.162 HD
BRANCH  11  13
HETATM   13  C8  UNL     1      25.196   4.863  50.075  1.00  0.00     0.134 A 
HETATM   14  C9  UNL     1      24.377   5.445  51.170  1.00  0.00     0.040 A 
HETATM   15  C10 UNL     1      23.528   6.356  50.708  1.00  0.00     0.085 A 
HETATM   16  C11 UNL     1      23.720   6.453  49.248  1.00  0.00     0.065 A 
HETATM   17 CL1  UNL     1      22.954   7.429  48.012  1.00  0.00    -0.082 Cl
HETATM   18  C12 UNL     1      24.678   5.594  48.893  1.00  0.00     0.029 A 
BRANCH  15  19
HETATM   19  O1  UNL     1      22.540   7.212  51.226  1.00  0.00    -0.359 OA
HETATM   20  H9  UNL     1      21.698   7.424  50.720  1.00  0.00     0.217 HD
ENDBRANCH  15  19
ENDBRANCH  11  13
ENDBRANCH   7  11
BRANCH  10  21
HETATM   21  O2  UNL     1      21.361   0.510  52.022  1.00  0.00    -0.349 OA
BRANCH  21  22
HETATM   22  C16 UNL     1      20.216   1.255  52.182  1.00  0.00     0.195 C 
BRANCH  22  23
HETATM   23  C17 UNL     1      19.770   2.070  50.999  1.00  0.00     0.141 C 
BRANCH  23  24
HETATM   24  N4  UNL     1      20.084   1.588  49.719  1.00  0.00    -0.412 N 
HETATM   25  H16 UNL     1      19.946   0.582  49.547  1.00  0.00     0.154 HD
BRANCH  24  26
HETATM   26  C18 UNL     1      20.871   2.295  48.812  1.00  0.00     0.014 C 
HETATM   27  C19 UNL     1      22.002   1.621  48.127  1.00  0.00     0.037 C 
HETATM   28  C20 UNL     1      19.923   2.773  47.683  1.00  0.00     0.037 C 
HETATM   29  C21 UNL     1      21.417   3.605  49.388  1.00  0.00     0.037 C 
ENDBRANCH  24  26
ENDBRANCH  23  24
ENDBRANCH  22  23
ENDBRANCH  21  22
ENDBRANCH  10  21
BRANCH   1  30
HETATM   30  C2  UNL     1      22.456  -0.939  54.043  1.00  0.00     0.004 C 
HETATM   31  C1  UNL     1      22.776  -1.430  55.253  1.00  0.00     0.012 C 
ENDBRANCH   1  30
TORSDOF 9
ENDMDL
