MODEL 1
REMARK VINA RESULT:      -8.8      0.000      0.000
REMARK  4 active torsions:
REMARK  status: ('A' for Active; 'I' for Inactive)
REMARK    1  A    between atoms: C2_2  and  C3_3 
REMARK    2  A    between atoms: C16_20  and  N4_21 
REMARK    3  A    between atoms: C17_22  and  N5_23 
REMARK    4  A    between atoms: N5_23  and  C18_24 
ROOT
HETATM    1  C3  UNL     1      22.780   0.794  52.473  1.00  0.00     0.028 C 
HETATM    2  C4  UNL     1      21.897   0.049  51.483  1.00  0.00     0.024 C 
HETATM    3  C5  UNL     1      24.100   0.115  52.660  1.00  0.00     0.287 C 
HETATM    4  N1  UNL     1      24.455  -0.927  53.523  1.00  0.00     0.085 N 
HETATM    5  C6  UNL     1      24.601  -0.785  54.894  1.00  0.00     0.309 C 
HETATM    6  C7  UNL     1      25.988  -1.280  53.051  1.00  0.00     0.281 C 
HETATM    7  C8  UNL     1      26.446   0.146  53.125  1.00  0.00     0.079 A 
HETATM    8  C9  UNL     1      26.555   0.145  51.802  1.00  0.00     0.061 A 
HETATM    9  C10 UNL     1      26.853   1.526  52.101  1.00  0.00     0.146 A 
HETATM   10  O1  UNL     1      26.635   1.783  50.917  1.00  0.00    -0.333 OA
HETATM   11  N2  UNL     1      27.050   2.925  52.018  1.00  0.00    -0.362 N 
HETATM   12  C11 UNL     1      26.587   3.276  50.620  1.00  0.00     0.247 C 
HETATM   13  C12 UNL     1      25.175   3.282  50.433  1.00  0.00     0.041 C 
HETATM   14  C13 UNL     1      23.948   3.040  51.237  1.00  0.00     0.019 A 
HETATM   15  C14 UNL     1      23.022   2.230  51.975  1.00  0.00     0.056 A 
HETATM   16  N3  UNL     1      22.098   2.996  52.291  1.00  0.00    -0.261 NA
HETATM   17  C15 UNL     1      21.509   4.152  52.308  1.00  0.00     0.148 A 
HETATM   18  C16 UNL     1      22.302   5.022  51.621  1.00  0.00     0.071 A 
HETATM   19  C17 UNL     1      23.445   4.357  51.159  1.00  0.00     0.072 A 
HETATM   20  H16 UNL     1      27.182   3.912  51.941  1.00  0.00     0.159 HD
ENDROOT
BRANCH  19  21
HETATM   21  N5  UNL     1      24.017   5.523  50.461  1.00  0.00    -0.354 N 
HETATM   22  H22 UNL     1      24.642   5.838  51.218  1.00  0.00     0.166 HD
BRANCH  21  23
HETATM   23  C18 UNL     1      23.836   6.124  49.224  1.00  0.00     0.033 A 
HETATM   24  C19 UNL     1      22.984   6.261  48.204  1.00  0.00     0.029 A 
HETATM   25  C20 UNL     1      23.117   6.865  46.969  1.00  0.00     0.004 A 
HETATM   26  C21 UNL     1      24.407   7.421  46.825  1.00  0.00     0.019 A 
HETATM   27  C22 UNL     1      25.336   7.356  47.772  1.00  0.00     0.013 A 
HETATM   28 BR1  UNL     1      27.022   8.204  47.330  1.00  0.00    -0.051 Br
HETATM   29  C23 UNL     1      25.121   6.718  49.000  1.00  0.00     0.048 A 
ENDBRANCH  21  23
ENDBRANCH  19  21
BRANCH  18  30
HETATM   30  N4  UNL     1      21.792   6.356  51.533  1.00  0.00    -0.396 N 
HETATM   31  H20 UNL     1      22.043   6.952  52.354  1.00  0.00     0.156 HD
HETATM   32  H21 UNL     1      21.291   6.397  50.645  1.00  0.00     0.156 HD
ENDBRANCH  18  30
BRANCH   1  33
HETATM   33  C2  UNL     1      22.044   0.776  53.743  1.00  0.00    -0.012 C 
HETATM   34  C1  UNL     1      21.055   0.231  54.513  1.00  0.00     0.030 C 
ENDBRANCH   1  33
TORSDOF 4
ENDMDL
MODEL 2
REMARK VINA RESULT:      -8.2      1.900      2.666
REMARK  4 active torsions:
REMARK  status: ('A' for Active; 'I' for Inactive)
REMARK    1  A    between atoms: C2_2  and  C3_3 
REMARK    2  A    between atoms: C16_20  and  N4_21 
REMARK    3  A    between atoms: C17_22  and  N5_23 
REMARK    4  A    between atoms: N5_23  and  C18_24 
ROOT
HETATM    1  C3  UNL     1      21.346   1.522  51.125  1.00  0.00     0.028 C 
HETATM    2  C4  UNL     1      21.052   0.925  49.757  1.00  0.00     0.024 C 
HETATM    3  C5  UNL     1      21.977   0.524  52.043  1.00  0.00     0.287 C 
HETATM    4  N1  UNL     1      21.379  -0.429  52.875  1.00  0.00     0.085 N 
HETATM    5  C6  UNL     1      20.709  -0.125  54.049  1.00  0.00     0.309 C 
HETATM    6  C7  UNL     1      22.667  -1.284  53.427  1.00  0.00     0.281 C 
HETATM    7  C8  UNL     1      23.423  -0.063  53.856  1.00  0.00     0.079 A 
HETATM    8  C9  UNL     1      24.295  -0.301  52.885  1.00  0.00     0.061 A 
HETATM    9  C10 UNL     1      24.783   0.961  53.389  1.00  0.00     0.146 A 
HETATM   10  O1  UNL     1      25.418   1.083  52.341  1.00  0.00    -0.333 OA
HETATM   11  N2  UNL     1      25.434   2.210  53.533  1.00  0.00    -0.362 N 
HETATM   12  C11 UNL     1      26.049   2.459  52.172  1.00  0.00     0.247 C 
HETATM   13  C12 UNL     1      25.131   2.849  51.155  1.00  0.00     0.041 C 
HETATM   14  C13 UNL     1      23.673   3.106  51.014  1.00  0.00     0.019 A 
HETATM   15  C14 UNL     1      22.290   2.728  50.972  1.00  0.00     0.056 A 
HETATM   16  N3  UNL     1      21.675   3.772  50.698  1.00  0.00    -0.261 NA
HETATM   17  C15 UNL     1      21.612   5.037  50.421  1.00  0.00     0.148 A 
HETATM   18  C16 UNL     1      22.886   5.519  50.424  1.00  0.00     0.071 A 
HETATM   19  C17 UNL     1      23.782   4.484  50.725  1.00  0.00     0.072 A 
HETATM   20  H16 UNL     1      25.899   3.090  53.615  1.00  0.00     0.159 HD
ENDROOT
BRANCH  19  21
HETATM   21  N5  UNL     1      24.999   5.308  50.603  1.00  0.00    -0.354 N 
HETATM   22  H22 UNL     1      24.821   5.929  51.406  1.00  0.00     0.166 HD
BRANCH  21  23
HETATM   23  C18 UNL     1      26.076   5.360  49.730  1.00  0.00     0.033 A 
HETATM   24  C19 UNL     1      27.006   4.623  49.117  1.00  0.00     0.029 A 
HETATM   25  C20 UNL     1      28.095   4.974  48.341  1.00  0.00     0.004 A 
HETATM   26  C21 UNL     1      28.180   6.376  48.211  1.00  0.00     0.019 A 
HETATM   27  C22 UNL     1      27.309   7.212  48.768  1.00  0.00     0.013 A 
HETATM   28 BR1  UNL     1      27.642   9.091  48.432  1.00  0.00    -0.051 Br
HETATM   29  C23 UNL     1      26.231   6.773  49.546  1.00  0.00     0.048 A 
ENDBRANCH  21  23
ENDBRANCH  19  21
BRANCH  18  30
HETATM   30  N4  UNL     1      23.001   6.912  50.124  1.00  0.00    -0.396 N 
HETATM   31  H20 UNL     1      23.930   7.317  50.380  1.00  0.00     0.156 HD
HETATM   32  H21 UNL     1      22.107   7.176  49.708  1.00  0.00     0.156 HD
ENDBRANCH  18  30
BRANCH   1  33
HETATM   33  C2  UNL     1      20.041   1.919  51.666  1.00  0.00    -0.012 C 
HETATM   34  C1  UNL     1      18.680   1.950  51.534  1.00  0.00     0.030 C 
ENDBRANCH   1  33
TORSDOF 4
ENDMDL
MODEL 3
REMARK VINA RESULT:      -7.8      3.579      6.496
REMARK  4 active torsions:
REMARK  status: ('A' for Active; 'I' for Inactive)
REMARK    1  A    between atoms: C2_2  and  C3_3 
REMARK    2  A    between atoms: C16_20  and  N4_21 
REMARK    3  A    between atoms: C17_22  and  N5_23 
REMARK    4  A    between atoms: N5_23  and  C18_24 
ROOT
HETATM    1  C3  UNL     1      23.336   7.021  48.595  1.00  0.00     0.028 C 
HETATM    2  C4  UNL     1      22.936   7.261  47.147  1.00  0.00     0.024 C 
HETATM    3  C5  UNL     1      22.961   5.647  49.054  1.00  0.00     0.287 C 
HETATM    4  N1  UNL     1      21.752   5.179  49.581  1.00  0.00     0.085 N 
HETATM    5  C6  UNL     1      21.294   5.474  50.855  1.00  0.00     0.309 C 
HETATM    6  C7  UNL     1      22.002   3.559  49.673  1.00  0.00     0.281 C 
HETATM    7  C8  UNL     1      23.306   3.699  50.399  1.00  0.00     0.079 A 
HETATM    8  C9  UNL     1      23.921   3.244  49.314  1.00  0.00     0.061 A 
HETATM    9  C10 UNL     1      25.050   3.572  50.153  1.00  0.00     0.146 A 
HETATM   10  O1  UNL     1      25.753   3.540  49.142  1.00  0.00    -0.333 OA
HETATM   11  N2  UNL     1      26.343   3.891  50.632  1.00  0.00    -0.362 N 
HETATM   12  C11 UNL     1      27.168   4.054  49.374  1.00  0.00     0.247 C 
HETATM   13  C12 UNL     1      26.940   5.260  48.651  1.00  0.00     0.041 C 
HETATM   14  C13 UNL     1      26.095   6.479  48.764  1.00  0.00     0.019 A 
HETATM   15  C14 UNL     1      24.857   7.202  48.751  1.00  0.00     0.056 A 
HETATM   16  N3  UNL     1      25.171   8.393  48.909  1.00  0.00    -0.261 NA
HETATM   17  C15 UNL     1      26.033   9.348  49.077  1.00  0.00     0.148 A 
HETATM   18  C16 UNL     1      27.271   8.780  49.101  1.00  0.00     0.071 A 
HETATM   19  C17 UNL     1      27.158   7.392  48.941  1.00  0.00     0.072 A 
HETATM   20  H16 UNL     1      27.261   4.118  50.951  1.00  0.00     0.159 HD
ENDROOT
BRANCH  19  21
HETATM   21  N5  UNL     1      28.608   7.127  48.967  1.00  0.00    -0.354 N 
HETATM   22  H22 UNL     1      28.684   6.902  49.970  1.00  0.00     0.166 HD
BRANCH  21  23
HETATM   23  C18 UNL     1      29.640   7.167  48.040  1.00  0.00     0.033 A 
HETATM   24  C19 UNL     1      30.107   7.819  46.972  1.00  0.00     0.029 A 
HETATM   25  C20 UNL     1      31.166   7.557  46.124  1.00  0.00     0.004 A 
HETATM   26  C21 UNL     1      31.833   6.376  46.515  1.00  0.00     0.019 A 
HETATM   27  C22 UNL     1      31.467   5.647  47.564  1.00  0.00     0.013 A 
HETATM   28 BR1  UNL     1      32.552   4.076  47.894  1.00  0.00    -0.051 Br
HETATM   29  C23 UNL     1      30.374   5.982  48.372  1.00  0.00     0.048 A 
ENDBRANCH  21  23
ENDBRANCH  19  21
BRANCH  18  30
HETATM   30  N4  UNL     1      28.351   9.703  49.271  1.00  0.00    -0.396 N 
HETATM   31  H20 UNL     1      29.256   9.360  48.877  1.00  0.00     0.156 HD
HETATM   32  H21 UNL     1      27.948  10.507  49.753  1.00  0.00     0.156 HD
ENDBRANCH  18  30
BRANCH   1  33
HETATM   33  C2  UNL     1      22.588   8.011  49.377  1.00  0.00    -0.012 C 
HETATM   34  C1  UNL     1      21.579   8.932  49.440  1.00  0.00     0.030 C 
ENDBRANCH   1  33
TORSDOF 4
ENDMDL
MODEL 4
REMARK VINA RESULT:      -7.8      4.483      6.795
REMARK  4 active torsions:
REMARK  status: ('A' for Active; 'I' for Inactive)
REMARK    1  A    between atoms: C2_2  and  C3_3 
REMARK    2  A    between atoms: C16_20  and  N4_21 
REMARK    3  A    between atoms: C17_22  and  N5_23 
REMARK    4  A    between atoms: N5_23  and  C18_24 
ROOT
HETATM    1  C3  UNL     1      24.447   1.728  52.655  1.00  0.00     0.028 C 
HETATM    2  C4  UNL     1      24.457   3.177  53.117  1.00  0.00     0.024 C 
HETATM    3  C5  UNL     1      24.734   0.785  53.780  1.00  0.00     0.287 C 
HETATM    4  N1  UNL     1      25.961   0.344  54.288  1.00  0.00     0.085 N 
HETATM    5  C6  UNL     1      26.794  -0.552  53.638  1.00  0.00     0.309 C 
HETATM    6  C7  UNL     1      25.516  -0.507  55.620  1.00  0.00     0.281 C 
HETATM    7  C8  UNL     1      24.501  -1.327  54.881  1.00  0.00     0.079 A 
HETATM    8  C9  UNL     1      23.548  -0.698  55.558  1.00  0.00     0.061 A 
HETATM    9  C10 UNL     1      22.759  -1.500  54.653  1.00  0.00     0.146 A 
HETATM   10  O1  UNL     1      21.804  -0.764  54.905  1.00  0.00    -0.333 OA
HETATM   11  N2  UNL     1      21.711  -2.021  53.856  1.00  0.00    -0.362 N 
HETATM   12  C11 UNL     1      20.599  -1.005  54.004  1.00  0.00     0.247 C 
HETATM   13  C12 UNL     1      20.788   0.209  53.283  1.00  0.00     0.041 C 
HETATM   14  C13 UNL     1      21.797   0.815  52.374  1.00  0.00     0.019 A 
HETATM   15  C14 UNL     1      23.074   1.384  52.052  1.00  0.00     0.056 A 
HETATM   16  N3  UNL     1      22.991   1.718  50.859  1.00  0.00    -0.261 NA
HETATM   17  C15 UNL     1      22.358   1.834  49.732  1.00  0.00     0.148 A 
HETATM   18  C16 UNL     1      21.108   1.325  49.913  1.00  0.00     0.071 A 
HETATM   19  C17 UNL     1      20.970   0.867  51.231  1.00  0.00     0.072 A 
HETATM   20  H16 UNL     1      20.962  -2.373  53.299  1.00  0.00     0.159 HD
ENDROOT
BRANCH  19  21
HETATM   21  N5  UNL     1      19.563   0.450  51.091  1.00  0.00    -0.354 N 
HETATM   22  H22 UNL     1      19.740  -0.510  50.761  1.00  0.00     0.166 HD
BRANCH  21  23
HETATM   23  C18 UNL     1      18.327   1.056  51.270  1.00  0.00     0.033 A 
HETATM   24  C19 UNL     1      17.713   2.234  51.413  1.00  0.00     0.029 A 
HETATM   25  C20 UNL     1      16.402   2.557  51.708  1.00  0.00     0.004 A 
HETATM   26  C21 UNL     1      15.628   1.389  51.873  1.00  0.00     0.019 A 
HETATM   27  C22 UNL     1      16.125   0.164  51.748  1.00  0.00     0.013 A 
HETATM   28 BR1  UNL     1      14.851  -1.272  52.016  1.00  0.00    -0.051 Br
HETATM   29  C23 UNL     1      17.471  -0.079  51.450  1.00  0.00     0.048 A 
ENDBRANCH  21  23
ENDBRANCH  19  21
BRANCH  18  30
HETATM   30  N4  UNL     1      20.264   1.383  48.760  1.00  0.00    -0.396 N 
HETATM   31  H20 UNL     1      20.652   1.974  47.991  1.00  0.00     0.156 HD
HETATM   32  H21 UNL     1      19.457   0.800  48.984  1.00  0.00     0.156 HD
ENDBRANCH  18  30
BRANCH   1  33
HETATM   33  C2  UNL     1      25.519   1.628  51.658  1.00  0.00    -0.012 C 
HETATM   34  C1  UNL     1      26.555   2.222  50.991  1.00  0.00     0.030 C 
ENDBRANCH   1  33
TORSDOF 4
ENDMDL
MODEL 5
REMARK VINA RESULT:      -7.6      2.070      4.206
REMARK  4 active torsions:
REMARK  status: ('A' for Active; 'I' for Inactive)
REMARK    1  A    between atoms: C2_2  and  C3_3 
REMARK    2  A    between atoms: C16_20  and  N4_21 
REMARK    3  A    between atoms: C17_22  and  N5_23 
REMARK    4  A    between atoms: N5_23  and  C18_24 
ROOT
HETATM    1  C3  UNL     1      24.551   1.788  52.758  1.00  0.00     0.028 C 
HETATM    2  C4  UNL     1      25.198   2.219  54.066  1.00  0.00     0.024 C 
HETATM    3  C5  UNL     1      23.073   1.610  52.902  1.00  0.00     0.287 C 
HETATM    4  N1  UNL     1      22.344   0.495  53.330  1.00  0.00     0.085 N 
HETATM    5  C6  UNL     1      22.172  -0.656  52.577  1.00  0.00     0.309 C 
HETATM    6  C7  UNL     1      20.812   1.078  53.419  1.00  0.00     0.281 C 
HETATM    7  C8  UNL     1      20.843   1.656  52.036  1.00  0.00     0.079 A 
HETATM    8  C9  UNL     1      20.820   2.868  52.578  1.00  0.00     0.061 A 
HETATM    9  C10 UNL     1      20.975   3.194  51.180  1.00  0.00     0.146 A 
HETATM   10  O1  UNL     1      21.335   4.319  51.529  1.00  0.00    -0.333 OA
HETATM   11  N2  UNL     1      21.252   3.854  49.958  1.00  0.00    -0.362 N 
HETATM   12  C11 UNL     1      21.888   5.160  50.385  1.00  0.00     0.247 C 
HETATM   13  C12 UNL     1      23.232   5.058  50.846  1.00  0.00     0.041 C 
HETATM   14  C13 UNL     1      24.261   4.003  51.041  1.00  0.00     0.019 A 
HETATM   15  C14 UNL     1      24.824   2.844  51.671  1.00  0.00     0.056 A 
HETATM   16  N3  UNL     1      25.928   2.680  51.127  1.00  0.00    -0.261 NA
HETATM   17  C15 UNL     1      26.861   3.003  50.286  1.00  0.00     0.148 A 
HETATM   18  C16 UNL     1      26.441   4.113  49.618  1.00  0.00     0.071 A 
HETATM   19  C17 UNL     1      25.172   4.490  50.078  1.00  0.00     0.072 A 
HETATM   20  H16 UNL     1      21.456   4.334  49.107  1.00  0.00     0.159 HD
ENDROOT
BRANCH  19  21
HETATM   21  N5  UNL     1      25.057   5.683  49.220  1.00  0.00    -0.354 N 
HETATM   22  H22 UNL     1      24.540   5.242  48.446  1.00  0.00     0.166 HD
BRANCH  21  23
HETATM   23  C18 UNL     1      25.487   7.001  49.292  1.00  0.00     0.033 A 
HETATM   24  C19 UNL     1      25.961   7.938  50.118  1.00  0.00     0.029 A 
HETATM   25  C20 UNL     1      26.211   9.285  49.934  1.00  0.00     0.004 A 
HETATM   26  C21 UNL     1      25.890   9.674  48.616  1.00  0.00     0.019 A 
HETATM   27  C22 UNL     1      25.419   8.830  47.704  1.00  0.00     0.013 A 
HETATM   28 BR1  UNL     1      25.065   9.611  45.966  1.00  0.00    -0.051 Br
HETATM   29  C23 UNL     1      25.189   7.476  47.974  1.00  0.00     0.048 A 
ENDBRANCH  21  23
ENDBRANCH  19  21
BRANCH  18  30
HETATM   30  N4  UNL     1      27.365   4.614  48.647  1.00  0.00    -0.396 N 
HETATM   31  H20 UNL     1      27.059   5.511  48.207  1.00  0.00     0.156 HD
HETATM   32  H21 UNL     1      28.132   3.942  48.630  1.00  0.00     0.156 HD
ENDBRANCH  18  30
BRANCH   1  33
HETATM   33  C2  UNL     1      25.163   0.496  52.426  1.00  0.00    -0.012 C 
HETATM   34  C1  UNL     1      25.961  -0.550  52.798  1.00  0.00     0.030 C 
ENDBRANCH   1  33
TORSDOF 4
ENDMDL
MODEL 6
REMARK VINA RESULT:      -7.5      2.238      4.180
REMARK  4 active torsions:
REMARK  status: ('A' for Active; 'I' for Inactive)
REMARK    1  A    between atoms: C2_2  and  C3_3 
REMARK    2  A    between atoms: C16_20  and  N4_21 
REMARK    3  A    between atoms: C17_22  and  N5_23 
REMARK    4  A    between atoms: N5_23  and  C18_24 
ROOT
HETATM    1  C3  UNL     1      24.781   1.597  52.883  1.00  0.00     0.028 C 
HETATM    2  C4  UNL     1      25.563   1.961  54.136  1.00  0.00     0.024 C 
HETATM    3  C5  UNL     1      23.359   1.256  53.194  1.00  0.00     0.287 C 
HETATM    4  N1  UNL     1      22.796   0.037  53.587  1.00  0.00     0.085 N 
HETATM    5  C6  UNL     1      22.623  -1.047  52.740  1.00  0.00     0.309 C 
HETATM    6  C7  UNL     1      21.246   0.451  53.935  1.00  0.00     0.281 C 
HETATM    7  C8  UNL     1      21.035   1.161  52.632  1.00  0.00     0.079 A 
HETATM    8  C9  UNL     1      20.981   2.305  53.302  1.00  0.00     0.061 A 
HETATM    9  C10 UNL     1      20.912   2.781  51.941  1.00  0.00     0.146 A 
HETATM   10  O1  UNL     1      21.218   3.897  52.362  1.00  0.00    -0.333 OA
HETATM   11  N2  UNL     1      20.960   3.581  50.774  1.00  0.00    -0.362 N 
HETATM   12  C11 UNL     1      21.532   4.897  51.256  1.00  0.00     0.247 C 
HETATM   13  C12 UNL     1      22.931   4.887  51.527  1.00  0.00     0.041 C 
HETATM   14  C13 UNL     1      24.065   3.927  51.472  1.00  0.00     0.019 A 
HETATM   15  C14 UNL     1      24.808   2.776  51.893  1.00  0.00     0.056 A 
HETATM   16  N3  UNL     1      25.837   2.778  51.197  1.00  0.00    -0.261 NA
HETATM   17  C15 UNL     1      26.613   3.274  50.284  1.00  0.00     0.148 A 
HETATM   18  C16 UNL     1      26.010   4.396  49.801  1.00  0.00     0.071 A 
HETATM   19  C17 UNL     1      24.788   4.596  50.459  1.00  0.00     0.072 A 
HETATM   20  H16 UNL     1      21.002   4.159  49.961  1.00  0.00     0.159 HD
ENDROOT
BRANCH  19  21
HETATM   21  N5  UNL     1      24.452   5.849  49.760  1.00  0.00    -0.354 N 
HETATM   22  H22 UNL     1      24.618   6.491  50.549  1.00  0.00     0.166 HD
BRANCH  21  23
HETATM   23  C18 UNL     1      24.012   6.187  48.487  1.00  0.00     0.033 A 
HETATM   24  C19 UNL     1      24.048   7.138  47.550  1.00  0.00     0.029 A 
HETATM   25  C20 UNL     1      23.383   7.267  46.346  1.00  0.00     0.004 A 
HETATM   26  C21 UNL     1      22.531   6.163  46.128  1.00  0.00     0.019 A 
HETATM   27  C22 UNL     1      22.417   5.154  46.984  1.00  0.00     0.013 A 
HETATM   28 BR1  UNL     1      21.187   3.755  46.448  1.00  0.00    -0.051 Br
HETATM   29  C23 UNL     1      23.128   5.100  48.189  1.00  0.00     0.048 A 
ENDBRANCH  21  23
ENDBRANCH  19  21
BRANCH  18  30
HETATM   30  N4  UNL     1      26.743   5.080  48.782  1.00  0.00    -0.396 N 
HETATM   31  H20 UNL     1      26.454   6.077  48.660  1.00  0.00     0.156 HD
HETATM   32  H21 UNL     1      27.402   4.394  48.414  1.00  0.00     0.156 HD
ENDBRANCH  18  30
BRANCH   1  33
HETATM   33  C2  UNL     1      25.452   0.412  52.335  1.00  0.00    -0.012 C 
HETATM   34  C1  UNL     1      26.396  -0.568  52.476  1.00  0.00     0.030 C 
ENDBRANCH   1  33
TORSDOF 4
ENDMDL
MODEL 7
REMARK VINA RESULT:      -7.2      3.160      4.878
REMARK  4 active torsions:
REMARK  status: ('A' for Active; 'I' for Inactive)
REMARK    1  A    between atoms: C2_2  and  C3_3 
REMARK    2  A    between atoms: C16_20  and  N4_21 
REMARK    3  A    between atoms: C17_22  and  N5_23 
REMARK    4  A    between atoms: N5_23  and  C18_24 
ROOT
HETATM    1  C3  UNL     1      23.979   2.073  52.511  1.00  0.00     0.028 C 
HETATM    2  C4  UNL     1      24.731   2.940  53.510  1.00  0.00     0.024 C 
HETATM    3  C5  UNL     1      22.955   1.213  53.182  1.00  0.00     0.287 C 
HETATM    4  N1  UNL     1      23.095  -0.045  53.778  1.00  0.00     0.085 N 
HETATM    5  C6  UNL     1      23.276  -1.223  53.071  1.00  0.00     0.309 C 
HETATM    6  C7  UNL     1      21.624  -0.283  54.468  1.00  0.00     0.281 C 
HETATM    7  C8  UNL     1      20.870   0.040  53.213  1.00  0.00     0.079 A 
HETATM    8  C9  UNL     1      20.430   1.146  53.801  1.00  0.00     0.061 A 
HETATM    9  C10 UNL     1      19.895   1.311  52.470  1.00  0.00     0.146 A 
HETATM   10  O1  UNL     1      19.734   2.503  52.731  1.00  0.00    -0.333 OA
HETATM   11  N2  UNL     1      19.352   1.847  51.277  1.00  0.00    -0.362 N 
HETATM   12  C11 UNL     1      19.342   3.341  51.520  1.00  0.00     0.247 C 
HETATM   13  C12 UNL     1      20.615   3.976  51.440  1.00  0.00     0.041 C 
HETATM   14  C13 UNL     1      22.028   3.600  51.171  1.00  0.00     0.019 A 
HETATM   15  C14 UNL     1      23.279   2.966  51.471  1.00  0.00     0.056 A 
HETATM   16  N3  UNL     1      24.041   3.292  50.546  1.00  0.00    -0.261 NA
HETATM   17  C15 UNL     1      24.317   3.912  49.441  1.00  0.00     0.148 A 
HETATM   18  C16 UNL     1      23.190   4.569  49.050  1.00  0.00     0.071 A 
HETATM   19  C17 UNL     1      22.161   4.334  49.972  1.00  0.00     0.072 A 
HETATM   20  H16 UNL     1      18.971   2.243  50.444  1.00  0.00     0.159 HD
ENDROOT
BRANCH  19  21
HETATM   21  N5  UNL     1      21.166   5.187  49.297  1.00  0.00    -0.354 N 
HETATM   22  H22 UNL     1      20.826   4.486  48.621  1.00  0.00     0.166 HD
BRANCH  21  23
HETATM   23  C18 UNL     1      20.755   6.508  49.407  1.00  0.00     0.033 A 
HETATM   24  C19 UNL     1      20.916   7.634  50.108  1.00  0.00     0.029 A 
HETATM   25  C20 UNL     1      20.251   8.845  50.069  1.00  0.00     0.004 A 
HETATM   26  C21 UNL     1      19.234   8.821  49.091  1.00  0.00     0.019 A 
HETATM   27  C22 UNL     1      18.985   7.763  48.328  1.00  0.00     0.013 A 
HETATM   28 BR1  UNL     1      17.540   7.988  47.055  1.00  0.00    -0.051 Br
HETATM   29  C23 UNL     1      19.705   6.567  48.434  1.00  0.00     0.048 A 
ENDBRANCH  21  23
ENDBRANCH  19  21
BRANCH  18  30
HETATM   30  N4  UNL     1      23.324   5.320  47.840  1.00  0.00    -0.396 N 
HETATM   31  H20 UNL     1      22.441   5.799  47.548  1.00  0.00     0.156 HD
HETATM   32  H21 UNL     1      24.295   5.202  47.552  1.00  0.00     0.156 HD
ENDBRANCH  18  30
BRANCH   1  33
HETATM   33  C2  UNL     1      24.998   1.216  51.893  1.00  0.00    -0.012 C 
HETATM   34  C1  UNL     1      26.260   0.690  51.925  1.00  0.00     0.030 C 
ENDBRANCH   1  33
TORSDOF 4
ENDMDL
MODEL 8
REMARK VINA RESULT:      -7.1      2.838      7.254
REMARK  4 active torsions:
REMARK  status: ('A' for Active; 'I' for Inactive)
REMARK    1  A    between atoms: C2_2  and  C3_3 
REMARK    2  A    between atoms: C16_20  and  N4_21 
REMARK    3  A    between atoms: C17_22  and  N5_23 
REMARK    4  A    between atoms: N5_23  and  C18_24 
ROOT
HETATM    1  C3  UNL     1      23.617   6.381  48.188  1.00  0.00     0.028 C 
HETATM    2  C4  UNL     1      25.071   6.586  47.788  1.00  0.00     0.024 C 
HETATM    3  C5  UNL     1      22.839   5.690  47.113  1.00  0.00     0.287 C 
HETATM    4  N1  UNL     1      22.188   6.223  45.996  1.00  0.00     0.085 N 
HETATM    5  C6  UNL     1      21.007   6.947  46.058  1.00  0.00     0.309 C 
HETATM    6  C7  UNL     1      21.723   4.880  45.174  1.00  0.00     0.281 C 
HETATM    7  C8  UNL     1      21.082   4.245  46.371  1.00  0.00     0.079 A 
HETATM    8  C9  UNL     1      22.044   3.331  46.360  1.00  0.00     0.061 A 
HETATM    9  C10 UNL     1      21.334   2.967  47.563  1.00  0.00     0.146 A 
HETATM   10  O1  UNL     1      22.325   2.319  47.899  1.00  0.00    -0.333 OA
HETATM   11  N2  UNL     1      20.975   2.431  48.824  1.00  0.00    -0.362 N 
HETATM   12  C11 UNL     1      22.256   1.806  49.332  1.00  0.00     0.247 C 
HETATM   13  C12 UNL     1      23.237   2.728  49.799  1.00  0.00     0.041 C 
HETATM   14  C13 UNL     1      23.393   4.198  49.954  1.00  0.00     0.019 A 
HETATM   15  C14 UNL     1      23.546   5.542  49.476  1.00  0.00     0.056 A 
HETATM   16  N3  UNL     1      23.681   6.238  50.495  1.00  0.00    -0.261 NA
HETATM   17  C15 UNL     1      23.764   6.404  51.779  1.00  0.00     0.148 A 
HETATM   18  C16 UNL     1      23.636   5.177  52.357  1.00  0.00     0.071 A 
HETATM   19  C17 UNL     1      23.463   4.202  51.365  1.00  0.00     0.072 A 
HETATM   20  H16 UNL     1      20.741   2.048  49.715  1.00  0.00     0.159 HD
ENDROOT
BRANCH  19  21
HETATM   21  N5  UNL     1      23.410   3.060  52.294  1.00  0.00    -0.354 N 
HETATM   22  H22 UNL     1      22.580   3.359  52.827  1.00  0.00     0.166 HD
BRANCH  21  23
HETATM   23  C18 UNL     1      24.176   1.923  52.512  1.00  0.00     0.033 A 
HETATM   24  C19 UNL     1      24.122   0.595  52.654  1.00  0.00     0.029 A 
HETATM   25  C20 UNL     1      25.087  -0.333  52.997  1.00  0.00     0.004 A 
HETATM   26  C21 UNL     1      26.327   0.301  53.223  1.00  0.00     0.019 A 
HETATM   27  C22 UNL     1      26.505   1.612  53.105  1.00  0.00     0.013 A 
HETATM   28 BR1  UNL     1      28.307   2.233  53.460  1.00  0.00    -0.051 Br
HETATM   29  C23 UNL     1      25.470   2.488  52.755  1.00  0.00     0.048 A 
ENDBRANCH  21  23
ENDBRANCH  19  21
BRANCH  18  30
HETATM   30  N4  UNL     1      23.715   5.176  53.785  1.00  0.00    -0.396 N 
HETATM   31  H20 UNL     1      24.096   4.286  54.180  1.00  0.00     0.156 HD
HETATM   32  H21 UNL     1      23.369   6.090  54.077  1.00  0.00     0.156 HD
ENDBRANCH  18  30
BRANCH   1  33
HETATM   33  C2  UNL     1      23.073   7.729  48.386  1.00  0.00    -0.012 C 
HETATM   34  C1  UNL     1      23.193   9.078  48.200  1.00  0.00     0.030 C 
ENDBRANCH   1  33
TORSDOF 4
ENDMDL
MODEL 9
REMARK VINA RESULT:      -7.1      4.089      6.745
REMARK  4 active torsions:
REMARK  status: ('A' for Active; 'I' for Inactive)
REMARK    1  A    between atoms: C2_2  and  C3_3 
REMARK    2  A    between atoms: C16_20  and  N4_21 
REMARK    3  A    between atoms: C17_22  and  N5_23 
REMARK    4  A    between atoms: N5_23  and  C18_24 
ROOT
HETATM    1  C3  UNL     1      23.692   5.155  50.649  1.00  0.00     0.028 C 
HETATM    2  C4  UNL     1      23.917   6.399  51.497  1.00  0.00     0.024 C 
HETATM    3  C5  UNL     1      24.545   4.013  51.103  1.00  0.00     0.287 C 
HETATM    4  N1  UNL     1      25.863   3.690  50.764  1.00  0.00     0.085 N 
HETATM    5  C6  UNL     1      26.246   3.179  49.535  1.00  0.00     0.309 C 
HETATM    6  C7  UNL     1      26.200   2.440  51.774  1.00  0.00     0.281 C 
HETATM    7  C8  UNL     1      24.964   1.677  51.406  1.00  0.00     0.079 A 
HETATM    8  C9  UNL     1      24.497   1.905  52.627  1.00  0.00     0.061 A 
HETATM    9  C10 UNL     1      23.365   1.247  52.020  1.00  0.00     0.146 A 
HETATM   10  O1  UNL     1      22.672   1.692  52.935  1.00  0.00    -0.333 OA
HETATM   11  N2  UNL     1      22.065   0.774  51.719  1.00  0.00    -0.362 N 
HETATM   12  C11 UNL     1      21.178   1.483  52.720  1.00  0.00     0.247 C 
HETATM   13  C12 UNL     1      20.938   2.861  52.448  1.00  0.00     0.041 C 
HETATM   14  C13 UNL     1      21.307   3.870  51.421  1.00  0.00     0.019 A 
HETATM   15  C14 UNL     1      22.213   4.736  50.723  1.00  0.00     0.056 A 
HETATM   16  N3  UNL     1      21.510   5.361  49.913  1.00  0.00    -0.261 NA
HETATM   17  C15 UNL     1      20.377   5.658  49.354  1.00  0.00     0.148 A 
HETATM   18  C16 UNL     1      19.418   4.892  49.945  1.00  0.00     0.071 A 
HETATM   19  C17 UNL     1      20.001   4.075  50.923  1.00  0.00     0.072 A 
HETATM   20  H16 UNL     1      21.141   0.453  51.521  1.00  0.00     0.159 HD
ENDROOT
BRANCH  19  21
HETATM   21  N5  UNL     1      18.739   3.454  51.363  1.00  0.00    -0.354 N 
HETATM   22  H22 UNL     1      18.460   4.182  52.037  1.00  0.00     0.166 HD
BRANCH  21  23
HETATM   23  C18 UNL     1      18.061   2.277  51.077  1.00  0.00     0.033 A 
HETATM   24  C19 UNL     1      18.156   1.101  50.450  1.00  0.00     0.029 A 
HETATM   25  C20 UNL     1      17.226   0.106  50.216  1.00  0.00     0.004 A 
HETATM   26  C21 UNL     1      15.975   0.456  50.767  1.00  0.00     0.019 A 
HETATM   27  C22 UNL     1      15.761   1.593  51.419  1.00  0.00     0.013 A 
HETATM   28 BR1  UNL     1      13.957   1.833  52.086  1.00  0.00    -0.051 Br
HETATM   29  C23 UNL     1      16.760   2.555  51.610  1.00  0.00     0.048 A 
ENDBRANCH  21  23
ENDBRANCH  19  21
BRANCH  18  30
HETATM   30  N4  UNL     1      18.093   5.102  49.449  1.00  0.00    -0.396 N 
HETATM   31  H20 UNL     1      17.544   5.791  50.012  1.00  0.00     0.156 HD
HETATM   32  H21 UNL     1      18.012   4.504  48.627  1.00  0.00     0.156 HD
ENDBRANCH  18  30
BRANCH   1  33
HETATM   33  C2  UNL     1      24.082   5.535  49.287  1.00  0.00    -0.012 C 
HETATM   34  C1  UNL     1      24.606   6.471  48.438  1.00  0.00     0.030 C 
ENDBRANCH   1  33
TORSDOF 4
ENDMDL
