MODEL 1
REMARK VINA RESULT:      -7.3      0.000      0.000
REMARK  3 active torsions:
REMARK  status: ('A' for Active; 'I' for Inactive)
REMARK    1  A    between atoms: C8_8  and  O1_9 
REMARK    2  A    between atoms: O1_9  and  N1_10 
REMARK    3  A    between atoms: C13_17  and  S1_18 
ROOT
HETATM    1  N1  UNL     1      23.997   0.233  53.229  1.00  0.00    -0.216 N 
HETATM    2  C9  UNL     1      22.898  -0.220  54.018  1.00  0.00     0.238 A 
HETATM    3  N2  UNL     1      23.157  -0.969  55.060  1.00  0.00    -0.235 NA
HETATM    4  C10 UNL     1      24.512  -1.286  55.344  1.00  0.00     0.231 A 
HETATM    5  N3  UNL     1      25.539  -0.907  54.669  1.00  0.00    -0.244 NA
HETATM    6  C11 UNL     1      25.399  -0.084  53.504  1.00  0.00     0.173 A 
HETATM    7  C12 UNL     1      26.214   1.154  53.604  1.00  0.00     0.044 C 
HETATM    8  C13 UNL     1      27.512   0.887  53.628  1.00  0.00    -0.024 C 
HETATM    9  C14 UNL     1      28.077  -0.504  53.562  1.00  0.00     0.045 C 
HETATM   10  C15 UNL     1      27.326  -1.377  52.599  1.00  0.00     0.010 C 
HETATM   11  C16 UNL     1      25.930  -0.863  52.325  1.00  0.00     0.063 C 
ENDROOT
BRANCH   1  12
HETATM   12  O1  UNL     1      23.867   0.994  52.151  1.00  0.00    -0.264 OA
BRANCH  12  13
HETATM   13  C8  UNL     1      23.030   2.067  52.234  1.00  0.00     0.188 C 
HETATM   14  C2  UNL     1      23.699   3.372  52.016  1.00  0.00    -0.036 C 
HETATM   15  C1  UNL     1      23.631   4.270  52.987  1.00  0.00     0.021 C 
HETATM   16  C3  UNL     1      24.441   3.780  50.822  1.00  0.00     0.009 C 
HETATM   17  C4  UNL     1      24.266   3.329  49.585  1.00  0.00     0.000 C 
HETATM   18  C5  UNL     1      23.313   2.327  49.080  1.00  0.00    -0.004 C 
HETATM   19  C6  UNL     1      22.371   1.768  49.835  1.00  0.00    -0.024 C 
HETATM   20  C7  UNL     1      21.905   1.844  51.226  1.00  0.00     0.066 C 
ENDBRANCH  12  13
ENDBRANCH   1  12
BRANCH   8  21
HETATM   21  S1  UNL     1      28.584   2.330  53.747  1.00  0.00    -0.148 SA
HETATM   22  H13 UNL     1      29.782   2.032  53.063  1.00  0.00     0.107 HD
ENDBRANCH   8  21
TORSDOF 3
ENDMDL
MODEL 2
REMARK VINA RESULT:      -7.1      2.813      5.232
REMARK  3 active torsions:
REMARK  status: ('A' for Active; 'I' for Inactive)
REMARK    1  A    between atoms: C8_8  and  O1_9 
REMARK    2  A    between atoms: O1_9  and  N1_10 
REMARK    3  A    between atoms: C13_17  and  S1_18 
ROOT
HETATM    1  N1  UNL     1      22.987  -0.275  53.671  1.00  0.00    -0.216 N 
HETATM    2  C9  UNL     1      22.908  -1.338  54.619  1.00  0.00     0.238 A 
HETATM    3  N2  UNL     1      21.734  -1.871  54.849  1.00  0.00    -0.235 NA
HETATM    4  C10 UNL     1      20.612  -1.362  54.144  1.00  0.00     0.231 A 
HETATM    5  N3  UNL     1      20.624  -0.407  53.282  1.00  0.00    -0.244 NA
HETATM    6  C11 UNL     1      21.842   0.265  52.936  1.00  0.00     0.173 A 
HETATM    7  C12 UNL     1      22.088   0.237  51.472  1.00  0.00     0.044 C 
HETATM    8  C13 UNL     1      21.169   0.921  50.805  1.00  0.00    -0.024 C 
HETATM    9  C14 UNL     1      20.022   1.633  51.464  1.00  0.00     0.045 C 
HETATM   10  C15 UNL     1      20.430   2.308  52.741  1.00  0.00     0.010 C 
HETATM   11  C16 UNL     1      21.693   1.715  53.327  1.00  0.00     0.063 C 
ENDROOT
BRANCH   1  12
HETATM   12  O1  UNL     1      24.114   0.347  53.351  1.00  0.00    -0.264 OA
BRANCH  12  13
HETATM   13  C8  UNL     1      25.285  -0.219  53.762  1.00  0.00     0.188 C 
HETATM   14  C2  UNL     1      26.175  -0.633  52.651  1.00  0.00    -0.036 C 
HETATM   15  C1  UNL     1      26.523  -1.909  52.583  1.00  0.00     0.021 C 
HETATM   16  C3  UNL     1      26.719   0.232  51.604  1.00  0.00     0.009 C 
HETATM   17  C4  UNL     1      26.944   1.538  51.689  1.00  0.00     0.000 C 
HETATM   18  C5  UNL     1      26.719   2.455  52.819  1.00  0.00    -0.004 C 
HETATM   19  C6  UNL     1      26.317   2.049  54.021  1.00  0.00    -0.024 C 
HETATM   20  C7  UNL     1      25.974   0.783  54.683  1.00  0.00     0.066 C 
ENDBRANCH  12  13
ENDBRANCH   1  12
BRANCH   8  21
HETATM   21  S1  UNL     1      21.387   0.945  49.017  1.00  0.00    -0.148 SA
HETATM   22  H13 UNL     1      22.649   1.516  48.747  1.00  0.00     0.107 HD
ENDBRANCH   8  21
TORSDOF 3
ENDMDL
MODEL 3
REMARK VINA RESULT:      -6.9      1.970      5.326
REMARK  3 active torsions:
REMARK  status: ('A' for Active; 'I' for Inactive)
REMARK    1  A    between atoms: C8_8  and  O1_9 
REMARK    2  A    between atoms: O1_9  and  N1_10 
REMARK    3  A    between atoms: C13_17  and  S1_18 
ROOT
HETATM    1  N1  UNL     1      23.848   0.851  52.371  1.00  0.00    -0.216 N 
HETATM    2  C9  UNL     1      22.789  -0.104  52.384  1.00  0.00     0.238 A 
HETATM    3  N2  UNL     1      21.595   0.297  52.027  1.00  0.00    -0.235 NA
HETATM    4  C10 UNL     1      21.424   1.654  51.648  1.00  0.00     0.231 A 
HETATM    5  N3  UNL     1      22.340   2.557  51.618  1.00  0.00    -0.244 NA
HETATM    6  C11 UNL     1      23.692   2.254  51.985  1.00  0.00     0.173 A 
HETATM    7  C12 UNL     1      24.649   2.619  50.909  1.00  0.00     0.044 C 
HETATM    8  C13 UNL     1      24.681   3.928  50.703  1.00  0.00    -0.024 C 
HETATM    9  C14 UNL     1      23.844   4.912  51.471  1.00  0.00     0.045 C 
HETATM   10  C15 UNL     1      23.746   4.560  52.927  1.00  0.00     0.010 C 
HETATM   11  C16 UNL     1      24.042   3.098  53.186  1.00  0.00     0.063 C 
ENDROOT
BRANCH   1  12
HETATM   12  O1  UNL     1      25.099   0.571  52.711  1.00  0.00    -0.264 OA
BRANCH  12  13
HETATM   13  C8  UNL     1      25.364  -0.691  53.156  1.00  0.00     0.188 C 
HETATM   14  C2  UNL     1      26.636  -1.255  52.645  1.00  0.00    -0.036 C 
HETATM   15  C1  UNL     1      26.575  -2.385  51.956  1.00  0.00     0.021 C 
HETATM   16  C3  UNL     1      27.973  -0.688  52.822  1.00  0.00     0.009 C 
HETATM   17  C4  UNL     1      28.378   0.096  53.814  1.00  0.00     0.000 C 
HETATM   18  C5  UNL     1      27.627   0.602  54.975  1.00  0.00    -0.004 C 
HETATM   19  C6  UNL     1      26.377   0.238  55.252  1.00  0.00    -0.024 C 
HETATM   20  C7  UNL     1      25.350  -0.644  54.682  1.00  0.00     0.066 C 
ENDBRANCH  12  13
ENDBRANCH   1  12
BRANCH   8  21
HETATM   21  S1  UNL     1      25.817   4.468  49.413  1.00  0.00    -0.148 SA
HETATM   22  H13 UNL     1      26.972   4.977  50.045  1.00  0.00     0.107 HD
ENDBRANCH   8  21
TORSDOF 3
ENDMDL
MODEL 4
REMARK VINA RESULT:      -6.7      2.552      5.718
REMARK  3 active torsions:
REMARK  status: ('A' for Active; 'I' for Inactive)
REMARK    1  A    between atoms: C8_8  and  O1_9 
REMARK    2  A    between atoms: O1_9  and  N1_10 
REMARK    3  A    between atoms: C13_17  and  S1_18 
ROOT
HETATM    1  N1  UNL     1      23.927   2.393  50.868  1.00  0.00    -0.216 N 
HETATM    2  C9  UNL     1      22.812   1.558  50.564  1.00  0.00     0.238 A 
HETATM    3  N2  UNL     1      21.853   2.057  49.825  1.00  0.00    -0.235 NA
HETATM    4  C10 UNL     1      21.979   3.395  49.370  1.00  0.00     0.231 A 
HETATM    5  N3  UNL     1      22.958   4.193  49.613  1.00  0.00    -0.244 NA
HETATM    6  C11 UNL     1      24.074   3.776  50.409  1.00  0.00     0.173 A 
HETATM    7  C12 UNL     1      25.362   3.965  49.694  1.00  0.00     0.044 C 
HETATM    8  C13 UNL     1      25.617   5.246  49.470  1.00  0.00    -0.024 C 
HETATM    9  C14 UNL     1      24.704   6.362  49.893  1.00  0.00     0.045 C 
HETATM   10  C15 UNL     1      24.103   6.122  51.247  1.00  0.00     0.010 C 
HETATM   11  C16 UNL     1      24.120   4.659  51.633  1.00  0.00     0.063 C 
ENDROOT
BRANCH   1  12
HETATM   12  O1  UNL     1      24.960   2.008  51.606  1.00  0.00    -0.264 OA
BRANCH  12  13
HETATM   13  C8  UNL     1      24.700   1.556  52.866  1.00  0.00     0.188 C 
HETATM   14  C2  UNL     1      24.823   0.086  53.015  1.00  0.00    -0.036 C 
HETATM   15  C1  UNL     1      23.757  -0.583  53.430  1.00  0.00     0.021 C 
HETATM   16  C3  UNL     1      26.015  -0.719  52.747  1.00  0.00     0.009 C 
HETATM   17  C4  UNL     1      27.277  -0.312  52.804  1.00  0.00     0.000 C 
HETATM   18  C5  UNL     1      27.819   1.015  53.139  1.00  0.00    -0.004 C 
HETATM   19  C6  UNL     1      27.064   2.031  53.548  1.00  0.00    -0.024 C 
HETATM   20  C7  UNL     1      25.643   2.291  53.815  1.00  0.00     0.066 C 
ENDBRANCH  12  13
ENDBRANCH   1  12
BRANCH   8  21
HETATM   21  S1  UNL     1      27.163   5.574  48.605  1.00  0.00    -0.148 SA
HETATM   22  H13 UNL     1      27.039   6.827  47.967  1.00  0.00     0.107 HD
ENDBRANCH   8  21
TORSDOF 3
ENDMDL
MODEL 5
REMARK VINA RESULT:      -6.7      2.802      5.420
REMARK  3 active torsions:
REMARK  status: ('A' for Active; 'I' for Inactive)
REMARK    1  A    between atoms: C8_8  and  O1_9 
REMARK    2  A    between atoms: O1_9  and  N1_10 
REMARK    3  A    between atoms: C13_17  and  S1_18 
ROOT
HETATM    1  N1  UNL     1      23.800   2.341  52.836  1.00  0.00    -0.216 N 
HETATM    2  C9  UNL     1      24.064   3.732  53.009  1.00  0.00     0.238 A 
HETATM    3  N2  UNL     1      23.093   4.576  52.767  1.00  0.00    -0.235 NA
HETATM    4  C10 UNL     1      21.838   4.061  52.349  1.00  0.00     0.231 A 
HETATM    5  N3  UNL     1      21.545   2.821  52.176  1.00  0.00    -0.244 NA
HETATM    6  C11 UNL     1      22.514   1.790  52.405  1.00  0.00     0.173 A 
HETATM    7  C12 UNL     1      22.020   0.774  53.369  1.00  0.00     0.044 C 
HETATM    8  C13 UNL     1      20.980   0.106  52.889  1.00  0.00    -0.024 C 
HETATM    9  C14 UNL     1      20.384   0.357  51.534  1.00  0.00     0.045 C 
HETATM   10  C15 UNL     1      21.432   0.618  50.491  1.00  0.00     0.010 C 
HETATM   11  C16 UNL     1      22.742   1.075  51.095  1.00  0.00     0.063 C 
ENDROOT
BRANCH   1  12
HETATM   12  O1  UNL     1      24.697   1.387  53.048  1.00  0.00    -0.264 OA
BRANCH  12  13
HETATM   13  C8  UNL     1      25.514   1.049  52.009  1.00  0.00     0.188 C 
HETATM   14  C2  UNL     1      26.629   2.000  51.787  1.00  0.00    -0.036 C 
HETATM   15  C1  UNL     1      26.713   2.585  50.601  1.00  0.00     0.021 C 
HETATM   16  C3  UNL     1      27.664   2.369  52.753  1.00  0.00     0.009 C 
HETATM   17  C4  UNL     1      28.105   1.631  53.765  1.00  0.00     0.000 C 
HETATM   18  C5  UNL     1      27.695   0.281  54.189  1.00  0.00    -0.004 C 
HETATM   19  C6  UNL     1      26.831  -0.467  53.509  1.00  0.00    -0.024 C 
HETATM   20  C7  UNL     1      26.031  -0.361  52.280  1.00  0.00     0.066 C 
ENDBRANCH  12  13
ENDBRANCH   1  12
BRANCH   8  21
HETATM   21  S1  UNL     1      20.311  -1.152  53.991  1.00  0.00    -0.148 SA
HETATM   22  H13 UNL     1      18.992  -1.431  53.572  1.00  0.00     0.107 HD
ENDBRANCH   8  21
TORSDOF 3
ENDMDL
MODEL 6
REMARK VINA RESULT:      -6.7      2.850      5.533
REMARK  3 active torsions:
REMARK  status: ('A' for Active; 'I' for Inactive)
REMARK    1  A    between atoms: C8_8  and  O1_9 
REMARK    2  A    between atoms: O1_9  and  N1_10 
REMARK    3  A    between atoms: C13_17  and  S1_18 
ROOT
HETATM    1  N1  UNL     1      22.112   0.498  52.463  1.00  0.00    -0.216 N 
HETATM    2  C9  UNL     1      21.590  -0.537  53.294  1.00  0.00     0.238 A 
HETATM    3  N2  UNL     1      20.289  -0.675  53.361  1.00  0.00    -0.235 NA
HETATM    4  C10 UNL     1      19.477   0.209  52.604  1.00  0.00     0.231 A 
HETATM    5  N3  UNL     1      19.891   1.158  51.841  1.00  0.00    -0.244 NA
HETATM    6  C11 UNL     1      21.291   1.420  51.676  1.00  0.00     0.173 A 
HETATM    7  C12 UNL     1      21.690   1.400  50.245  1.00  0.00     0.044 C 
HETATM    8  C13 UNL     1      21.119   2.382  49.562  1.00  0.00    -0.024 C 
HETATM    9  C14 UNL     1      20.184   3.386  50.173  1.00  0.00     0.045 C 
HETATM   10  C15 UNL     1      20.626   3.817  51.541  1.00  0.00     0.010 C 
HETATM   11  C16 UNL     1      21.559   2.815  52.185  1.00  0.00     0.063 C 
ENDROOT
BRANCH   1  12
HETATM   12  O1  UNL     1      23.407   0.741  52.311  1.00  0.00    -0.264 OA
BRANCH  12  13
HETATM   13  C8  UNL     1      24.156   0.894  53.440  1.00  0.00     0.188 C 
HETATM   14  C2  UNL     1      25.086  -0.230  53.703  1.00  0.00    -0.036 C 
HETATM   15  C1  UNL     1      24.960  -0.879  54.850  1.00  0.00     0.021 C 
HETATM   16  C3  UNL     1      26.145  -0.708  52.814  1.00  0.00     0.009 C 
HETATM   17  C4  UNL     1      26.794   0.001  51.898  1.00  0.00     0.000 C 
HETATM   18  C5  UNL     1      26.638   1.417  51.526  1.00  0.00    -0.004 C 
HETATM   19  C6  UNL     1      25.832   2.257  52.170  1.00  0.00    -0.024 C 
HETATM   20  C7  UNL     1      24.906   2.217  53.310  1.00  0.00     0.066 C 
ENDBRANCH  12  13
ENDBRANCH   1  12
BRANCH   8  21
HETATM   21  S1  UNL     1      21.546   2.439  47.813  1.00  0.00    -0.148 SA
HETATM   22  H13 UNL     1      20.342   2.417  47.077  1.00  0.00     0.107 HD
ENDBRANCH   8  21
TORSDOF 3
ENDMDL
MODEL 7
REMARK VINA RESULT:      -6.6      2.855      5.777
REMARK  3 active torsions:
REMARK  status: ('A' for Active; 'I' for Inactive)
REMARK    1  A    between atoms: C8_8  and  O1_9 
REMARK    2  A    between atoms: O1_9  and  N1_10 
REMARK    3  A    between atoms: C13_17  and  S1_18 
ROOT
HETATM    1  N1  UNL     1      23.403   2.644  52.057  1.00  0.00    -0.216 N 
HETATM    2  C9  UNL     1      23.730   4.024  52.206  1.00  0.00     0.238 A 
HETATM    3  N2  UNL     1      22.777   4.905  52.029  1.00  0.00    -0.235 NA
HETATM    4  C10 UNL     1      21.478   4.437  51.700  1.00  0.00     0.231 A 
HETATM    5  N3  UNL     1      21.127   3.209  51.552  1.00  0.00    -0.244 NA
HETATM    6  C11 UNL     1      22.070   2.142  51.717  1.00  0.00     0.173 A 
HETATM    7  C12 UNL     1      21.606   1.146  52.716  1.00  0.00     0.044 C 
HETATM    8  C13 UNL     1      20.511   0.518  52.312  1.00  0.00    -0.024 C 
HETATM    9  C14 UNL     1      19.833   0.790  50.999  1.00  0.00     0.045 C 
HETATM   10  C15 UNL     1      20.815   1.011  49.886  1.00  0.00     0.010 C 
HETATM   11  C16 UNL     1      22.180   1.418  50.397  1.00  0.00     0.063 C 
ENDROOT
BRANCH   1  12
HETATM   12  O1  UNL     1      24.276   1.657  52.209  1.00  0.00    -0.264 OA
BRANCH  12  13
HETATM   13  C8  UNL     1      24.629   1.320  53.482  1.00  0.00     0.188 C 
HETATM   14  C2  UNL     1      24.897  -0.126  53.669  1.00  0.00    -0.036 C 
HETATM   15  C1  UNL     1      24.169  -0.777  54.565  1.00  0.00     0.021 C 
HETATM   16  C3  UNL     1      25.895  -0.925  52.958  1.00  0.00     0.009 C 
HETATM   17  C4  UNL     1      27.024  -0.486  52.415  1.00  0.00     0.000 C 
HETATM   18  C5  UNL     1      27.574   0.879  52.373  1.00  0.00    -0.004 C 
HETATM   19  C6  UNL     1      27.016   1.911  53.000  1.00  0.00    -0.024 C 
HETATM   20  C7  UNL     1      25.847   2.163  53.852  1.00  0.00     0.066 C 
ENDBRANCH  12  13
ENDBRANCH   1  12
BRANCH   8  21
HETATM   21  S1  UNL     1      19.872  -0.713  53.461  1.00  0.00    -0.148 SA
HETATM   22  H13 UNL     1      18.463  -0.622  53.448  1.00  0.00     0.107 HD
ENDBRANCH   8  21
TORSDOF 3
ENDMDL
MODEL 8
REMARK VINA RESULT:      -6.5      2.674      4.405
REMARK  3 active torsions:
REMARK  status: ('A' for Active; 'I' for Inactive)
REMARK    1  A    between atoms: C8_8  and  O1_9 
REMARK    2  A    between atoms: O1_9  and  N1_10 
REMARK    3  A    between atoms: C13_17  and  S1_18 
ROOT
HETATM    1  N1  UNL     1      24.449   2.724  50.926  1.00  0.00    -0.216 N 
HETATM    2  C9  UNL     1      24.507   3.635  49.829  1.00  0.00     0.238 A 
HETATM    3  N2  UNL     1      25.686   4.050  49.437  1.00  0.00    -0.235 NA
HETATM    4  C10 UNL     1      26.833   3.572  50.122  1.00  0.00     0.231 A 
HETATM    5  N3  UNL     1      26.840   2.753  51.114  1.00  0.00    -0.244 NA
HETATM    6  C11 UNL     1      25.620   2.221  51.645  1.00  0.00     0.173 A 
HETATM    7  C12 UNL     1      25.632   0.735  51.668  1.00  0.00     0.044 C 
HETATM    8  C13 UNL     1      26.551   0.264  52.499  1.00  0.00    -0.024 C 
HETATM    9  C14 UNL     1      27.464   1.137  53.312  1.00  0.00     0.045 C 
HETATM   10  C15 UNL     1      26.758   2.345  53.858  1.00  0.00     0.010 C 
HETATM   11  C16 UNL     1      25.505   2.679  53.079  1.00  0.00     0.063 C 
ENDROOT
BRANCH   1  12
HETATM   12  O1  UNL     1      23.320   2.232  51.418  1.00  0.00    -0.264 OA
BRANCH  12  13
HETATM   13  C8  UNL     1      22.181   2.422  50.692  1.00  0.00     0.188 C 
HETATM   14  C2  UNL     1      21.564   1.168  50.199  1.00  0.00    -0.036 C 
HETATM   15  C1  UNL     1      21.407   1.031  48.891  1.00  0.00     0.021 C 
HETATM   16  C3  UNL     1      21.105   0.045  51.017  1.00  0.00     0.009 C 
HETATM   17  C4  UNL     1      20.696   0.096  52.280  1.00  0.00     0.000 C 
HETATM   18  C5  UNL     1      20.594   1.253  53.184  1.00  0.00    -0.004 C 
HETATM   19  C6  UNL     1      20.827   2.505  52.799  1.00  0.00    -0.024 C 
HETATM   20  C7  UNL     1      21.212   3.211  51.570  1.00  0.00     0.066 C 
ENDBRANCH  12  13
ENDBRANCH   1  12
BRANCH   8  21
HETATM   21  S1  UNL     1      26.640  -1.533  52.595  1.00  0.00    -0.148 SA
HETATM   22  H13 UNL     1      25.694  -2.057  51.688  1.00  0.00     0.107 HD
ENDBRANCH   8  21
TORSDOF 3
ENDMDL
MODEL 9
REMARK VINA RESULT:      -6.3      2.815      5.373
REMARK  3 active torsions:
REMARK  status: ('A' for Active; 'I' for Inactive)
REMARK    1  A    between atoms: C8_8  and  O1_9 
REMARK    2  A    between atoms: O1_9  and  N1_10 
REMARK    3  A    between atoms: C13_17  and  S1_18 
ROOT
HETATM    1  N1  UNL     1      24.210   1.882  51.917  1.00  0.00    -0.216 N 
HETATM    2  C9  UNL     1      25.470   1.339  52.307  1.00  0.00     0.238 A 
HETATM    3  N2  UNL     1      26.548   1.819  51.740  1.00  0.00    -0.235 NA
HETATM    4  C10 UNL     1      26.402   2.849  50.774  1.00  0.00     0.231 A 
HETATM    5  N3  UNL     1      25.295   3.375  50.385  1.00  0.00    -0.244 NA
HETATM    6  C11 UNL     1      24.039   2.943  50.923  1.00  0.00     0.173 A 
HETATM    7  C12 UNL     1      23.262   4.078  51.484  1.00  0.00     0.044 C 
HETATM    8  C13 UNL     1      22.904   4.941  50.544  1.00  0.00    -0.024 C 
HETATM    9  C14 UNL     1      23.250   4.780  49.091  1.00  0.00     0.045 C 
HETATM   10  C15 UNL     1      23.141   3.353  48.635  1.00  0.00     0.010 C 
HETATM   11  C16 UNL     1      23.224   2.375  49.786  1.00  0.00     0.063 C 
ENDROOT
BRANCH   1  12
HETATM   12  O1  UNL     1      23.047   1.483  52.414  1.00  0.00    -0.264 OA
BRANCH  12  13
HETATM   13  C8  UNL     1      22.866   0.143  52.595  1.00  0.00     0.188 C 
HETATM   14  C2  UNL     1      22.366  -0.220  53.942  1.00  0.00    -0.036 C 
HETATM   15  C1  UNL     1      23.103  -1.044  54.672  1.00  0.00     0.021 C 
HETATM   16  C3  UNL     1      21.124   0.242  54.563  1.00  0.00     0.009 C 
HETATM   17  C4  UNL     1      20.021   0.636  53.937  1.00  0.00     0.000 C 
HETATM   18  C5  UNL     1      19.742   0.717  52.493  1.00  0.00    -0.004 C 
HETATM   19  C6  UNL     1      20.588   0.289  51.560  1.00  0.00    -0.024 C 
HETATM   20  C7  UNL     1      21.916  -0.337  51.501  1.00  0.00     0.066 C 
ENDBRANCH  12  13
ENDBRANCH   1  12
BRANCH   8  21
HETATM   21  S1  UNL     1      21.954   6.354  51.131  1.00  0.00    -0.148 SA
HETATM   22  H13 UNL     1      22.520   6.773  52.355  1.00  0.00     0.107 HD
ENDBRANCH   8  21
TORSDOF 3
ENDMDL
