MODEL 1
REMARK VINA RESULT:      -8.0      0.000      0.000
REMARK  4 active torsions:
REMARK  status: ('A' for Active; 'I' for Inactive)
REMARK    1  A    between atoms: C2_2  and  O1_5 
REMARK    2  A    between atoms: O1_5  and  C3_6 
REMARK    3  A    between atoms: C7_11  and  N2_12 
REMARK    4  A    between atoms: N3_14  and  C9_15 
ROOT
HETATM    1  C3  UNL     1      22.923   1.715  52.320  1.00  0.00     0.107 C 
HETATM    2  C4  UNL     1      23.120   2.247  51.128  1.00  0.00     0.128 C 
HETATM    3  C5  UNL     1      22.462   2.601  49.896  1.00  0.00     0.488 C 
HETATM    4  N1  UNL     1      23.677   2.959  49.487  1.00  0.00    -0.142 NA
HETATM    5  C6  UNL     1      24.770   2.776  50.427  1.00  0.00     0.584 C 
HETATM    6  C7  UNL     1      25.990   3.190  50.120  1.00  0.00     0.032 C 
HETATM    7  C8  UNL     1      26.737   2.784  51.284  1.00  0.00     0.177 C 
HETATM    8  N3  UNL     1      26.120   2.086  52.361  1.00  0.00    -0.375 N 
HETATM    9  C15 UNL     1      25.162   2.159  53.396  1.00  0.00     0.126 C 
HETATM   10  C16 UNL     1      23.850   1.515  53.388  1.00  0.00     0.062 C 
ENDROOT
BRANCH   8  11
HETATM   11  C9  UNL     1      26.697   0.755  52.504  1.00  0.00     0.032 A 
HETATM   12  C10 UNL     1      26.128  -0.446  52.202  1.00  0.00     0.032 A 
HETATM   13  C11 UNL     1      26.818  -1.649  52.405  1.00  0.00     0.046 A 
HETATM   14  C12 UNL     1      28.115  -1.634  52.923  1.00  0.00     0.138 A 
HETATM   15  F3  UNL     1      28.799  -2.784  53.127  1.00  0.00    -0.204 F 
HETATM   16  C13 UNL     1      28.605  -0.380  53.195  1.00  0.00     0.074 A 
HETATM   17 CL1  UNL     1      30.250  -0.394  53.863  1.00  0.00    -0.081 Cl
HETATM   18  C14 UNL     1      28.002   0.836  53.027  1.00  0.00     0.056 A 
ENDBRANCH   8  11
BRANCH   6  19
HETATM   19  N2  UNL     1      26.959   3.830  49.209  1.00  0.00    -0.402 N 
HETATM   20  H7  UNL     1      26.582   3.875  48.225  1.00  0.00     0.155 HD
HETATM   21  H8  UNL     1      27.709   4.017  49.904  1.00  0.00     0.155 HD
ENDBRANCH   6  19
BRANCH   1  22
HETATM   22  O1  UNL     1      21.726   1.183  52.930  1.00  0.00    -0.311 OA
BRANCH  22  23
HETATM   23  C2  UNL     1      21.241  -0.079  52.564  1.00  0.00     0.351 C 
HETATM   24  C1  UNL     1      20.069  -0.491  53.462  1.00  0.00     0.126 C 
HETATM   25  F1  UNL     1      22.268  -0.996  52.622  1.00  0.00    -0.176 F 
HETATM   26  F2  UNL     1      20.801  -0.026  51.231  1.00  0.00    -0.176 F 
ENDBRANCH  22  23
ENDBRANCH   1  22
TORSDOF 4
ENDMDL
MODEL 2
REMARK VINA RESULT:      -7.7      3.643      5.919
REMARK  4 active torsions:
REMARK  status: ('A' for Active; 'I' for Inactive)
REMARK    1  A    between atoms: C2_2  and  O1_5 
REMARK    2  A    between atoms: O1_5  and  C3_6 
REMARK    3  A    between atoms: C7_11  and  N2_12 
REMARK    4  A    between atoms: N3_14  and  C9_15 
ROOT
HETATM    1  C3  UNL     1      24.990   0.749  53.433  1.00  0.00     0.107 C 
HETATM    2  C4  UNL     1      23.779   0.293  53.172  1.00  0.00     0.128 C 
HETATM    3  C5  UNL     1      22.993  -0.910  53.069  1.00  0.00     0.488 C 
HETATM    4  N1  UNL     1      22.011  -0.096  52.690  1.00  0.00    -0.142 NA
HETATM    5  C6  UNL     1      22.321   1.323  52.617  1.00  0.00     0.584 C 
HETATM    6  C7  UNL     1      21.370   2.199  52.332  1.00  0.00     0.032 C 
HETATM    7  C8  UNL     1      22.107   3.438  52.328  1.00  0.00     0.177 C 
HETATM    8  N3  UNL     1      23.512   3.471  52.558  1.00  0.00    -0.375 N 
HETATM    9  C15 UNL     1      24.542   3.233  53.493  1.00  0.00     0.126 C 
HETATM   10  C16 UNL     1      25.463   2.097  53.474  1.00  0.00     0.062 C 
ENDROOT
BRANCH   8  11
HETATM   11  C9  UNL     1      24.210   3.970  51.379  1.00  0.00     0.032 A 
HETATM   12  C10 UNL     1      24.842   3.251  50.408  1.00  0.00     0.032 A 
HETATM   13  C11 UNL     1      25.478   3.885  49.332  1.00  0.00     0.046 A 
HETATM   14  C12 UNL     1      25.472   5.279  49.237  1.00  0.00     0.138 A 
HETATM   15  F3  UNL     1      26.081   5.911  48.208  1.00  0.00    -0.204 F 
HETATM   16  C13 UNL     1      24.811   5.916  50.259  1.00  0.00     0.074 A 
HETATM   17 CL1  UNL     1      24.832   7.686  50.117  1.00  0.00    -0.081 Cl
HETATM   18  C14 UNL     1      24.168   5.377  51.339  1.00  0.00     0.056 A 
ENDBRANCH   8  11
BRANCH   6  19
HETATM   19  N2  UNL     1      19.972   2.548  52.011  1.00  0.00    -0.402 N 
HETATM   20  H7  UNL     1      19.305   2.132  52.715  1.00  0.00     0.155 HD
HETATM   21  H8  UNL     1      20.157   3.110  51.156  1.00  0.00     0.155 HD
ENDBRANCH   6  19
BRANCH   1  22
HETATM   22  O1  UNL     1      26.209   0.051  53.772  1.00  0.00    -0.311 OA
BRANCH  22  23
HETATM   23  C2  UNL     1      26.919  -0.658  52.793  1.00  0.00     0.351 C 
HETATM   24  C1  UNL     1      28.389  -0.813  53.196  1.00  0.00     0.126 C 
HETATM   25  F1  UNL     1      26.793  -0.011  51.583  1.00  0.00    -0.176 F 
HETATM   26  F2  UNL     1      26.345  -1.931  52.651  1.00  0.00    -0.176 F 
ENDBRANCH  22  23
ENDBRANCH   1  22
TORSDOF 4
ENDMDL
MODEL 3
REMARK VINA RESULT:      -7.6      3.318      5.467
REMARK  4 active torsions:
REMARK  status: ('A' for Active; 'I' for Inactive)
REMARK    1  A    between atoms: C2_2  and  O1_5 
REMARK    2  A    between atoms: O1_5  and  C3_6 
REMARK    3  A    between atoms: C7_11  and  N2_12 
REMARK    4  A    between atoms: N3_14  and  C9_15 
ROOT
HETATM    1  C3  UNL     1      24.239  -0.266  53.416  1.00  0.00     0.107 C 
HETATM    2  C4  UNL     1      25.274  -0.110  54.220  1.00  0.00     0.128 C 
HETATM    3  C5  UNL     1      25.838  -0.533  55.476  1.00  0.00     0.488 C 
HETATM    4  N1  UNL     1      26.799   0.347  55.207  1.00  0.00    -0.142 NA
HETATM    5  C6  UNL     1      26.679   1.098  53.968  1.00  0.00     0.584 C 
HETATM    6  C7  UNL     1      27.642   1.926  53.594  1.00  0.00     0.032 C 
HETATM    7  C8  UNL     1      27.104   2.467  52.371  1.00  0.00     0.177 C 
HETATM    8  N3  UNL     1      25.816   2.090  51.893  1.00  0.00    -0.375 N 
HETATM    9  C15 UNL     1      25.024   1.032  51.398  1.00  0.00     0.126 C 
HETATM   10  C16 UNL     1      23.980   0.330  52.143  1.00  0.00     0.062 C 
ENDROOT
BRANCH   8  11
HETATM   11  C9  UNL     1      24.925   3.244  51.864  1.00  0.00     0.032 A 
HETATM   12  C10 UNL     1      24.095   3.691  52.849  1.00  0.00     0.032 A 
HETATM   13  C11 UNL     1      23.289   4.822  52.662  1.00  0.00     0.046 A 
HETATM   14  C12 UNL     1      23.328   5.519  51.451  1.00  0.00     0.138 A 
HETATM   15  F3  UNL     1      22.558   6.613  51.250  1.00  0.00    -0.204 F 
HETATM   16  C13 UNL     1      24.194   4.996  50.522  1.00  0.00     0.074 A 
HETATM   17 CL1  UNL     1      24.212   5.894  48.990  1.00  0.00    -0.081 Cl
HETATM   18  C14 UNL     1      25.011   3.903  50.623  1.00  0.00     0.056 A 
ENDBRANCH   8  11
BRANCH   6  19
HETATM   19  N2  UNL     1      28.953   2.577  53.792  1.00  0.00    -0.402 N 
HETATM   20  H7  UNL     1      29.467   2.154  54.610  1.00  0.00     0.155 HD
HETATM   21  H8  UNL     1      28.895   3.259  53.009  1.00  0.00     0.155 HD
ENDBRANCH   6  19
BRANCH   1  22
HETATM   22  O1  UNL     1      23.057  -1.086  53.548  1.00  0.00    -0.311 OA
BRANCH  22  23
HETATM   23  C2  UNL     1      22.061  -0.755  54.478  1.00  0.00     0.351 C 
HETATM   24  C1  UNL     1      20.812  -1.615  54.263  1.00  0.00     0.126 C 
HETATM   25  F1  UNL     1      21.774   0.589  54.377  1.00  0.00    -0.176 F 
HETATM   26  F2  UNL     1      22.558  -0.982  55.772  1.00  0.00    -0.176 F 
ENDBRANCH  22  23
ENDBRANCH   1  22
TORSDOF 4
ENDMDL
MODEL 4
REMARK VINA RESULT:      -7.2      3.756      4.869
REMARK  4 active torsions:
REMARK  status: ('A' for Active; 'I' for Inactive)
REMARK    1  A    between atoms: C2_2  and  O1_5 
REMARK    2  A    between atoms: O1_5  and  C3_6 
REMARK    3  A    between atoms: C7_11  and  N2_12 
REMARK    4  A    between atoms: N3_14  and  C9_15 
ROOT
HETATM    1  C3  UNL     1      22.742   1.007  52.491  1.00  0.00     0.107 C 
HETATM    2  C4  UNL     1      21.693   1.154  51.702  1.00  0.00     0.128 C 
HETATM    3  C5  UNL     1      20.557   0.464  51.146  1.00  0.00     0.488 C 
HETATM    4  N1  UNL     1      20.336   1.600  50.490  1.00  0.00    -0.142 NA
HETATM    5  C6  UNL     1      21.277   2.686  50.714  1.00  0.00     0.584 C 
HETATM    6  C7  UNL     1      21.070   3.871  50.162  1.00  0.00     0.032 C 
HETATM    7  C8  UNL     1      22.230   4.605  50.604  1.00  0.00     0.177 C 
HETATM    8  N3  UNL     1      23.242   3.993  51.397  1.00  0.00    -0.375 N 
HETATM    9  C15 UNL     1      23.542   3.396  52.641  1.00  0.00     0.126 C 
HETATM   10  C16 UNL     1      23.728   1.966  52.876  1.00  0.00     0.062 C 
ENDROOT
BRANCH   8  11
HETATM   11  C9  UNL     1      24.510   3.971  50.678  1.00  0.00     0.032 A 
HETATM   12  C10 UNL     1      25.447   2.981  50.652  1.00  0.00     0.032 A 
HETATM   13  C11 UNL     1      26.628   3.116  49.910  1.00  0.00     0.046 A 
HETATM   14  C12 UNL     1      26.865   4.281  49.176  1.00  0.00     0.138 A 
HETATM   15  F3  UNL     1      27.998   4.432  48.454  1.00  0.00    -0.204 F 
HETATM   16  C13 UNL     1      25.866   5.220  49.261  1.00  0.00     0.074 A 
HETATM   17 CL1  UNL     1      26.201   6.693  48.328  1.00  0.00    -0.081 Cl
HETATM   18  C14 UNL     1      24.689   5.167  49.957  1.00  0.00     0.056 A 
ENDBRANCH   8  11
BRANCH   6  19
HETATM   19  N2  UNL     1      20.281   4.804  49.332  1.00  0.00    -0.402 N 
HETATM   20  H7  UNL     1      20.014   4.361  48.413  1.00  0.00     0.155 HD
HETATM   21  H8  UNL     1      20.274   5.610  49.989  1.00  0.00     0.155 HD
ENDBRANCH   6  19
BRANCH   1  22
HETATM   22  O1  UNL     1      23.218  -0.144  53.222  1.00  0.00    -0.311 OA
BRANCH  22  23
HETATM   23  C2  UNL     1      22.434  -0.722  54.230  1.00  0.00     0.351 C 
HETATM   24  C1  UNL     1      23.315  -1.237  55.373  1.00  0.00     0.126 C 
HETATM   25  F1  UNL     1      21.667  -1.730  53.688  1.00  0.00    -0.176 F 
HETATM   26  F2  UNL     1      21.554   0.251  54.732  1.00  0.00    -0.176 F 
ENDBRANCH  22  23
ENDBRANCH   1  22
TORSDOF 4
ENDMDL
MODEL 5
REMARK VINA RESULT:      -7.1      4.036      6.299
REMARK  4 active torsions:
REMARK  status: ('A' for Active; 'I' for Inactive)
REMARK    1  A    between atoms: C2_2  and  O1_5 
REMARK    2  A    between atoms: O1_5  and  C3_6 
REMARK    3  A    between atoms: C7_11  and  N2_12 
REMARK    4  A    between atoms: N3_14  and  C9_15 
ROOT
HETATM    1  C3  UNL     1      24.464   5.008  50.421  1.00  0.00     0.107 C 
HETATM    2  C4  UNL     1      25.562   4.327  50.148  1.00  0.00     0.128 C 
HETATM    3  C5  UNL     1      26.731   4.305  49.305  1.00  0.00     0.488 C 
HETATM    4  N1  UNL     1      26.998   3.149  49.906  1.00  0.00    -0.142 NA
HETATM    5  C6  UNL     1      26.048   2.688  50.905  1.00  0.00     0.584 C 
HETATM    6  C7  UNL     1      26.295   1.592  51.604  1.00  0.00     0.032 C 
HETATM    7  C8  UNL     1      25.110   1.494  52.421  1.00  0.00     0.177 C 
HETATM    8  N3  UNL     1      24.046   2.433  52.307  1.00  0.00    -0.375 N 
HETATM    9  C15 UNL     1      23.663   3.782  52.476  1.00  0.00     0.126 C 
HETATM   10  C16 UNL     1      23.457   4.749  51.401  1.00  0.00     0.062 C 
ENDROOT
BRANCH   8  11
HETATM   11  C9  UNL     1      22.828   1.772  51.855  1.00  0.00     0.032 A 
HETATM   12  C10 UNL     1      22.348   1.671  50.583  1.00  0.00     0.032 A 
HETATM   13  C11 UNL     1      21.147   1.002  50.310  1.00  0.00     0.046 A 
HETATM   14  C12 UNL     1      20.417   0.420  51.350  1.00  0.00     0.138 A 
HETATM   15  F3  UNL     1      19.255  -0.229  51.109  1.00  0.00    -0.204 F 
HETATM   16  C13 UNL     1      20.979   0.572  52.594  1.00  0.00     0.074 A 
HETATM   17 CL1  UNL     1      20.023  -0.166  53.896  1.00  0.00    -0.081 Cl
HETATM   18  C14 UNL     1      22.140   1.206  52.945  1.00  0.00     0.056 A 
ENDBRANCH   8  11
BRANCH   6  19
HETATM   19  N2  UNL     1      27.139   0.433  51.959  1.00  0.00    -0.402 N 
HETATM   20  H7  UNL     1      26.773  -0.452  51.517  1.00  0.00     0.155 HD
HETATM   21  H8  UNL     1      27.829   0.934  52.553  1.00  0.00     0.155 HD
ENDBRANCH   6  19
BRANCH   1  22
HETATM   22  O1  UNL     1      23.937   6.221  49.840  1.00  0.00    -0.311 OA
BRANCH  22  23
HETATM   23  C2  UNL     1      24.438   7.471  50.227  1.00  0.00     0.351 C 
HETATM   24  C1  UNL     1      24.571   8.399  49.014  1.00  0.00     0.126 C 
HETATM   25  F1  UNL     1      25.646   7.299  50.866  1.00  0.00    -0.176 F 
HETATM   26  F2  UNL     1      23.551   8.048  51.151  1.00  0.00    -0.176 F 
ENDBRANCH  22  23
ENDBRANCH   1  22
TORSDOF 4
ENDMDL
MODEL 6
REMARK VINA RESULT:      -7.0      3.745      5.554
REMARK  4 active torsions:
REMARK  status: ('A' for Active; 'I' for Inactive)
REMARK    1  A    between atoms: C2_2  and  O1_5 
REMARK    2  A    between atoms: O1_5  and  C3_6 
REMARK    3  A    between atoms: C7_11  and  N2_12 
REMARK    4  A    between atoms: N3_14  and  C9_15 
ROOT
HETATM    1  C3  UNL     1      23.486   2.384  51.919  1.00  0.00     0.107 C 
HETATM    2  C4  UNL     1      22.648   1.982  50.981  1.00  0.00     0.128 C 
HETATM    3  C5  UNL     1      21.833   0.873  50.556  1.00  0.00     0.488 C 
HETATM    4  N1  UNL     1      21.558   1.632  49.498  1.00  0.00    -0.142 NA
HETATM    5  C6  UNL     1      22.190   2.941  49.443  1.00  0.00     0.584 C 
HETATM    6  C7  UNL     1      21.894   3.783  48.465  1.00  0.00     0.032 C 
HETATM    7  C8  UNL     1      22.751   4.901  48.774  1.00  0.00     0.177 C 
HETATM    8  N3  UNL     1      23.644   4.872  49.883  1.00  0.00    -0.375 N 
HETATM    9  C15 UNL     1      23.749   4.814  51.290  1.00  0.00     0.126 C 
HETATM   10  C16 UNL     1      24.148   3.642  52.066  1.00  0.00     0.062 C 
ENDROOT
BRANCH   8  11
HETATM   11  C9  UNL     1      25.026   4.957  49.427  1.00  0.00     0.032 A 
HETATM   12  C10 UNL     1      25.983   3.986  49.457  1.00  0.00     0.032 A 
HETATM   13  C11 UNL     1      27.279   4.229  48.982  1.00  0.00     0.046 A 
HETATM   14  C12 UNL     1      27.613   5.483  48.464  1.00  0.00     0.138 A 
HETATM   15  F3  UNL     1      28.858   5.739  48.001  1.00  0.00    -0.204 F 
HETATM   16  C13 UNL     1      26.585   6.394  48.474  1.00  0.00     0.074 A 
HETATM   17 CL1  UNL     1      27.042   7.981  47.821  1.00  0.00    -0.081 Cl
HETATM   18  C14 UNL     1      25.299   6.240  48.915  1.00  0.00     0.056 A 
ENDBRANCH   8  11
BRANCH   6  19
HETATM   19  N2  UNL     1      21.161   4.151  47.237  1.00  0.00    -0.402 N 
HETATM   20  H7  UNL     1      20.762   3.297  46.764  1.00  0.00     0.155 HD
HETATM   21  H8  UNL     1      21.311   5.179  47.283  1.00  0.00     0.155 HD
ENDBRANCH   6  19
BRANCH   1  22
HETATM   22  O1  UNL     1      23.989   1.703  53.090  1.00  0.00    -0.311 OA
BRANCH  22  23
HETATM   23  C2  UNL     1      24.828   0.588  52.960  1.00  0.00     0.351 C 
HETATM   24  C1  UNL     1      25.859   0.551  54.093  1.00  0.00     0.126 C 
HETATM   25  F1  UNL     1      25.437   0.619  51.724  1.00  0.00    -0.176 F 
HETATM   26  F2  UNL     1      24.045  -0.576  53.013  1.00  0.00    -0.176 F 
ENDBRANCH  22  23
ENDBRANCH   1  22
TORSDOF 4
ENDMDL
MODEL 7
REMARK VINA RESULT:      -7.0      1.716      2.116
REMARK  4 active torsions:
REMARK  status: ('A' for Active; 'I' for Inactive)
REMARK    1  A    between atoms: C2_2  and  O1_5 
REMARK    2  A    between atoms: O1_5  and  C3_6 
REMARK    3  A    between atoms: C7_11  and  N2_12 
REMARK    4  A    between atoms: N3_14  and  C9_15 
ROOT
HETATM    1  C3  UNL     1      22.383   0.523  52.228  1.00  0.00     0.107 C 
HETATM    2  C4  UNL     1      22.344   1.047  51.017  1.00  0.00     0.128 C 
HETATM    3  C5  UNL     1      21.678   0.964  49.741  1.00  0.00     0.488 C 
HETATM    4  N1  UNL     1      22.543   1.901  49.362  1.00  0.00    -0.142 NA
HETATM    5  C6  UNL     1      23.506   2.353  50.353  1.00  0.00     0.584 C 
HETATM    6  C7  UNL     1      24.338   3.343  50.072  1.00  0.00     0.032 C 
HETATM    7  C8  UNL     1      25.111   3.428  51.287  1.00  0.00     0.177 C 
HETATM    8  N3  UNL     1      24.889   2.537  52.376  1.00  0.00    -0.375 N 
HETATM    9  C15 UNL     1      23.974   2.117  53.366  1.00  0.00     0.126 C 
HETATM   10  C16 UNL     1      23.205   0.875  53.342  1.00  0.00     0.062 C 
ENDROOT
BRANCH   8  11
HETATM   11  C9  UNL     1      26.073   1.721  52.616  1.00  0.00     0.032 A 
HETATM   12  C10 UNL     1      27.283   2.115  53.104  1.00  0.00     0.032 A 
HETATM   13  C11 UNL     1      28.332   1.201  53.273  1.00  0.00     0.046 A 
HETATM   14  C12 UNL     1      28.149  -0.144  52.942  1.00  0.00     0.138 A 
HETATM   15  F3  UNL     1      29.149  -1.042  53.097  1.00  0.00    -0.204 F 
HETATM   16  C13 UNL     1      26.899  -0.447  52.461  1.00  0.00     0.074 A 
HETATM   17 CL1  UNL     1      26.702  -2.160  52.037  1.00  0.00    -0.081 Cl
HETATM   18  C14 UNL     1      25.826   0.379  52.267  1.00  0.00     0.056 A 
ENDBRANCH   8  11
BRANCH   6  19
HETATM   19  N2  UNL     1      24.878   4.376  49.165  1.00  0.00    -0.402 N 
HETATM   20  H7  UNL     1      24.815   4.067  48.159  1.00  0.00     0.155 HD
HETATM   21  H8  UNL     1      25.141   5.077  49.887  1.00  0.00     0.155 HD
ENDBRANCH   6  19
BRANCH   1  22
HETATM   22  O1  UNL     1      21.612  -0.546  52.819  1.00  0.00    -0.311 OA
BRANCH  22  23
HETATM   23  C2  UNL     1      20.378  -0.281  53.430  1.00  0.00     0.351 C 
HETATM   24  C1  UNL     1      19.278  -0.115  52.376  1.00  0.00     0.126 C 
HETATM   25  F1  UNL     1      20.494   0.841  54.221  1.00  0.00    -0.176 F 
HETATM   26  F2  UNL     1      20.049  -1.356  54.271  1.00  0.00    -0.176 F 
ENDBRANCH  22  23
ENDBRANCH   1  22
TORSDOF 4
ENDMDL
MODEL 8
REMARK VINA RESULT:      -7.0      3.862      5.560
REMARK  4 active torsions:
REMARK  status: ('A' for Active; 'I' for Inactive)
REMARK    1  A    between atoms: C2_2  and  O1_5 
REMARK    2  A    between atoms: O1_5  and  C3_6 
REMARK    3  A    between atoms: C7_11  and  N2_12 
REMARK    4  A    between atoms: N3_14  and  C9_15 
ROOT
HETATM    1  C3  UNL     1      20.493   0.720  52.403  1.00  0.00     0.107 C 
HETATM    2  C4  UNL     1      21.204   0.081  53.314  1.00  0.00     0.128 C 
HETATM    3  C5  UNL     1      21.105  -0.686  54.530  1.00  0.00     0.488 C 
HETATM    4  N1  UNL     1      22.436  -0.684  54.500  1.00  0.00    -0.142 NA
HETATM    5  C6  UNL     1      23.070   0.018  53.396  1.00  0.00     0.584 C 
HETATM    6  C7  UNL     1      24.386  -0.014  53.254  1.00  0.00     0.032 C 
HETATM    7  C8  UNL     1      24.574   0.819  52.092  1.00  0.00     0.177 C 
HETATM    8  N3  UNL     1      23.476   1.451  51.442  1.00  0.00    -0.375 N 
HETATM    9  C15 UNL     1      22.287   1.249  50.709  1.00  0.00     0.126 C 
HETATM   10  C16 UNL     1      20.930   1.405  51.228  1.00  0.00     0.062 C 
ENDROOT
BRANCH   8  11
HETATM   11  C9  UNL     1      23.602   2.901  51.522  1.00  0.00     0.032 A 
HETATM   12  C10 UNL     1      23.346   3.711  52.588  1.00  0.00     0.032 A 
HETATM   13  C11 UNL     1      23.511   5.100  52.503  1.00  0.00     0.046 A 
HETATM   14  C12 UNL     1      23.948   5.681  51.309  1.00  0.00     0.138 A 
HETATM   15  F3  UNL     1      24.113   7.020  51.205  1.00  0.00    -0.204 F 
HETATM   16  C13 UNL     1      24.181   4.788  50.293  1.00  0.00     0.074 A 
HETATM   17 CL1  UNL     1      24.723   5.558  48.787  1.00  0.00    -0.081 Cl
HETATM   18  C14 UNL     1      24.047   3.426  50.293  1.00  0.00     0.056 A 
ENDBRANCH   8  11
BRANCH   6  19
HETATM   19  N2  UNL     1      25.734  -0.446  53.676  1.00  0.00    -0.402 N 
HETATM   20  H7  UNL     1      26.482   0.094  53.165  1.00  0.00     0.155 HD
HETATM   21  H8  UNL     1      25.444  -1.169  54.364  1.00  0.00     0.155 HD
ENDBRANCH   6  19
BRANCH   1  22
HETATM   22  O1  UNL     1      19.067   0.922  52.290  1.00  0.00    -0.311 OA
BRANCH  22  23
HETATM   23  C2  UNL     1      18.237  -0.110  51.828  1.00  0.00     0.351 C 
HETATM   24  C1  UNL     1      16.761   0.279  51.968  1.00  0.00     0.126 C 
HETATM   25  F1  UNL     1      18.523  -1.267  52.518  1.00  0.00    -0.176 F 
HETATM   26  F2  UNL     1      18.523  -0.347  50.473  1.00  0.00    -0.176 F 
ENDBRANCH  22  23
ENDBRANCH   1  22
TORSDOF 4
ENDMDL
MODEL 9
REMARK VINA RESULT:      -7.0      3.629      6.343
REMARK  4 active torsions:
REMARK  status: ('A' for Active; 'I' for Inactive)
REMARK    1  A    between atoms: C2_2  and  O1_5 
REMARK    2  A    between atoms: O1_5  and  C3_6 
REMARK    3  A    between atoms: C7_11  and  N2_12 
REMARK    4  A    between atoms: N3_14  and  C9_15 
ROOT
HETATM    1  C3  UNL     1      23.188   1.315  52.692  1.00  0.00     0.107 C 
HETATM    2  C4  UNL     1      24.455   1.677  52.765  1.00  0.00     0.128 C 
HETATM    3  C5  UNL     1      25.620   1.648  53.613  1.00  0.00     0.488 C 
HETATM    4  N1  UNL     1      26.194   2.364  52.650  1.00  0.00    -0.142 NA
HETATM    5  C6  UNL     1      25.376   2.694  51.495  1.00  0.00     0.584 C 
HETATM    6  C7  UNL     1      25.907   3.328  50.461  1.00  0.00     0.032 C 
HETATM    7  C8  UNL     1      24.765   3.477  49.593  1.00  0.00     0.177 C 
HETATM    8  N3  UNL     1      23.473   3.017  49.975  1.00  0.00    -0.375 N 
HETATM    9  C15 UNL     1      22.686   1.886  50.285  1.00  0.00     0.126 C 
HETATM   10  C16 UNL     1      22.255   1.491  51.624  1.00  0.00     0.062 C 
ENDROOT
BRANCH   8  11
HETATM   11  C9  UNL     1      22.543   4.135  50.078  1.00  0.00     0.032 A 
HETATM   12  C10 UNL     1      22.495   5.104  51.036  1.00  0.00     0.032 A 
HETATM   13  C11 UNL     1      21.527   6.117  50.998  1.00  0.00     0.046 A 
HETATM   14  C12 UNL     1      20.588   6.150  49.964  1.00  0.00     0.138 A 
HETATM   15  F3  UNL     1      19.645   7.118  49.909  1.00  0.00    -0.204 F 
HETATM   16  C13 UNL     1      20.715   5.136  49.047  1.00  0.00     0.074 A 
HETATM   17 CL1  UNL     1      19.500   5.197  47.753  1.00  0.00    -0.081 Cl
HETATM   18  C14 UNL     1      21.625   4.115  49.010  1.00  0.00     0.056 A 
ENDBRANCH   8  11
BRANCH   6  19
HETATM   19  N2  UNL     1      27.043   3.960  49.761  1.00  0.00    -0.402 N 
HETATM   20  H7  UNL     1      26.731   4.810  49.222  1.00  0.00     0.155 HD
HETATM   21  H8  UNL     1      27.786   3.300  50.069  1.00  0.00     0.155 HD
ENDBRANCH   6  19
BRANCH   1  22
HETATM   22  O1  UNL     1      22.348   0.621  53.641  1.00  0.00    -0.311 OA
BRANCH  22  23
HETATM   23  C2  UNL     1      22.588  -0.724  53.953  1.00  0.00     0.351 C 
HETATM   24  C1  UNL     1      21.333  -1.375  54.545  1.00  0.00     0.126 C 
HETATM   25  F1  UNL     1      23.656  -0.806  54.821  1.00  0.00    -0.176 F 
HETATM   26  F2  UNL     1      22.948  -1.404  52.779  1.00  0.00    -0.176 F 
ENDBRANCH  22  23
ENDBRANCH   1  22
TORSDOF 4
ENDMDL
