MODEL 1
REMARK VINA RESULT:      -8.6      0.000      0.000
REMARK  2 active torsions:
REMARK  status: ('A' for Active; 'I' for Inactive)
REMARK    1  A    between atoms: C2_2  and  C3_3 
REMARK    2  A    between atoms: C12_14  and  C13_15 
ROOT
HETATM    1  C3  UNL     1      24.017   2.887  50.458  1.00  0.00     0.162 C 
HETATM    2  O1  UNL     1      24.991   2.071  50.922  1.00  0.00    -0.363 OA
HETATM    3  C4  UNL     1      25.208   1.942  52.245  1.00  0.00     0.120 C 
HETATM    4  C5  UNL     1      26.707   2.013  52.437  1.00  0.00     0.030 C 
HETATM    5  C6  UNL     1      27.659   2.330  53.316  1.00  0.00     0.082 C 
HETATM    6  N1  UNL     1      28.986   2.524  53.860  1.00  0.00    -0.398 N 
HETATM    7  C7  UNL     1      29.554   1.435  54.738  1.00  0.00     0.130 C 
HETATM    8  C8  UNL     1      29.345   0.162  53.929  1.00  0.00    -0.005 A 
HETATM    9  C9  UNL     1      28.697  -0.821  53.207  1.00  0.00     0.009 A 
HETATM   10  C10 UNL     1      27.386  -1.116  53.038  1.00  0.00     0.041 A 
HETATM   11  C11 UNL     1      26.043  -1.273  52.978  1.00  0.00     0.244 A 
HETATM   12  C12 UNL     1      26.539  -0.198  53.814  1.00  0.00     0.043 A 
HETATM   13  C13 UNL     1      27.929   0.021  53.903  1.00  0.00     0.011 A 
HETATM   14  N2  UNL     1      24.743  -0.691  53.228  1.00  0.00     0.329 N 
HETATM   15  C14 UNL     1      24.691   0.635  52.828  1.00  0.00     0.340 C 
HETATM   16  C15 UNL     1      24.606   3.055  53.056  1.00  0.00     0.073 C 
HETATM   17  C16 UNL     1      23.196   3.237  52.617  1.00  0.00    -0.006 C 
HETATM   18  C17 UNL     1      22.878   3.159  51.331  1.00  0.00     0.014 C 
HETATM   19 BR1  UNL     1      21.056   3.400  50.809  1.00  0.00    -0.053 Br
HETATM   20  H9  UNL     1      29.308   3.461  53.501  1.00  0.00     0.158 HD
ENDROOT
BRANCH   1  21
HETATM   21  C2  UNL     1      24.545   4.219  49.927  1.00  0.00     0.033 C 
HETATM   22  C1  UNL     1      25.971   4.093  49.442  1.00  0.00     0.008 C 
ENDBRANCH   1  21
TORSDOF 2
ENDMDL
MODEL 2
REMARK VINA RESULT:      -8.0      3.399      5.976
REMARK  2 active torsions:
REMARK  status: ('A' for Active; 'I' for Inactive)
REMARK    1  A    between atoms: C2_2  and  C3_3 
REMARK    2  A    between atoms: C12_14  and  C13_15 
ROOT
HETATM    1  C3  UNL     1      27.188   1.002  53.945  1.00  0.00     0.162 C 
HETATM    2  O1  UNL     1      25.842   0.974  54.085  1.00  0.00    -0.363 OA
HETATM    3  C4  UNL     1      25.097   0.097  53.385  1.00  0.00     0.120 C 
HETATM    4  C5  UNL     1      23.916   0.878  52.850  1.00  0.00     0.030 C 
HETATM    5  C6  UNL     1      23.014   0.913  51.869  1.00  0.00     0.082 C 
HETATM    6  N1  UNL     1      21.892   1.376  51.081  1.00  0.00    -0.398 N 
HETATM    7  C7  UNL     1      20.554   0.711  51.302  1.00  0.00     0.130 C 
HETATM    8  C8  UNL     1      20.368   0.749  52.813  1.00  0.00    -0.005 A 
HETATM    9  C9  UNL     1      20.633   0.559  54.155  1.00  0.00     0.009 A 
HETATM   10  C10 UNL     1      21.545  -0.201  54.807  1.00  0.00     0.041 A 
HETATM   11  C11 UNL     1      22.511  -1.013  55.296  1.00  0.00     0.244 A 
HETATM   12  C12 UNL     1      22.365  -0.966  53.855  1.00  0.00     0.043 A 
HETATM   13  C13 UNL     1      21.384  -0.126  53.289  1.00  0.00     0.011 A 
HETATM   14  N2  UNL     1      23.706  -1.778  55.018  1.00  0.00     0.329 N 
HETATM   15  C14 UNL     1      24.587  -1.074  54.213  1.00  0.00     0.340 C 
HETATM   16  C15 UNL     1      25.818  -0.481  52.200  1.00  0.00     0.073 C 
HETATM   17  C16 UNL     1      27.157  -0.943  52.653  1.00  0.00    -0.006 C 
HETATM   18  C17 UNL     1      27.858  -0.223  53.520  1.00  0.00     0.014 C 
HETATM   19 BR1  UNL     1      29.574  -0.852  54.075  1.00  0.00    -0.053 Br
HETATM   20  H9  UNL     1      22.270   2.143  50.467  1.00  0.00     0.158 HD
ENDROOT
BRANCH   1  21
HETATM   21  C2  UNL     1      27.681   2.151  53.066  1.00  0.00     0.033 C 
HETATM   22  C1  UNL     1      29.012   2.682  53.548  1.00  0.00     0.008 C 
ENDBRANCH   1  21
TORSDOF 2
ENDMDL
MODEL 3
REMARK VINA RESULT:      -8.0      3.157      6.355
REMARK  2 active torsions:
REMARK  status: ('A' for Active; 'I' for Inactive)
REMARK    1  A    between atoms: C2_2  and  C3_3 
REMARK    2  A    between atoms: C12_14  and  C13_15 
ROOT
HETATM    1  C3  UNL     1      27.221  -0.810  52.605  1.00  0.00     0.162 C 
HETATM    2  O1  UNL     1      25.954  -0.473  52.271  1.00  0.00    -0.363 OA
HETATM    3  C4  UNL     1      25.129   0.085  53.178  1.00  0.00     0.120 C 
HETATM    4  C5  UNL     1      23.801  -0.625  53.034  1.00  0.00     0.030 C 
HETATM    5  C6  UNL     1      22.689  -0.957  53.692  1.00  0.00     0.082 C 
HETATM    6  N1  UNL     1      21.380  -1.524  53.933  1.00  0.00    -0.398 N 
HETATM    7  C7  UNL     1      20.186  -0.602  53.852  1.00  0.00     0.130 C 
HETATM    8  C8  UNL     1      20.366   0.118  52.523  1.00  0.00    -0.005 A 
HETATM    9  C9  UNL     1      20.958   0.872  51.529  1.00  0.00     0.009 A 
HETATM   10  C10 UNL     1      22.054   1.669  51.517  1.00  0.00     0.041 A 
HETATM   11  C11 UNL     1      23.165   2.423  51.679  1.00  0.00     0.244 A 
HETATM   12  C12 UNL     1      22.676   1.723  52.849  1.00  0.00     0.043 A 
HETATM   13  C13 UNL     1      21.528   0.911  52.736  1.00  0.00     0.011 A 
HETATM   14  N2  UNL     1      24.312   2.730  52.505  1.00  0.00     0.329 N 
HETATM   15  C14 UNL     1      24.920   1.580  52.982  1.00  0.00     0.340 C 
HETATM   16  C15 UNL     1      25.585  -0.114  54.596  1.00  0.00     0.073 C 
HETATM   17  C16 UNL     1      27.024   0.253  54.675  1.00  0.00    -0.006 C 
HETATM   18  C17 UNL     1      27.858  -0.082  53.699  1.00  0.00     0.014 C 
HETATM   19 BR1  UNL     1      29.699   0.409  53.840  1.00  0.00    -0.053 Br
HETATM   20  H9  UNL     1      21.542  -2.546  54.130  1.00  0.00     0.158 HD
ENDROOT
BRANCH   1  21
HETATM   21  C2  UNL     1      27.403  -2.307  52.854  1.00  0.00     0.033 C 
HETATM   22  C1  UNL     1      28.860  -2.661  53.048  1.00  0.00     0.008 C 
ENDBRANCH   1  21
TORSDOF 2
ENDMDL
MODEL 4
REMARK VINA RESULT:      -7.7      2.849      4.869
REMARK  2 active torsions:
REMARK  status: ('A' for Active; 'I' for Inactive)
REMARK    1  A    between atoms: C2_2  and  C3_3 
REMARK    2  A    between atoms: C12_14  and  C13_15 
ROOT
HETATM    1  C3  UNL     1      24.244   4.360  51.616  1.00  0.00     0.162 C 
HETATM    2  O1  UNL     1      23.949   3.322  52.432  1.00  0.00    -0.363 OA
HETATM    3  C4  UNL     1      23.582   2.130  51.923  1.00  0.00     0.120 C 
HETATM    4  C5  UNL     1      22.392   1.671  52.738  1.00  0.00     0.030 C 
HETATM    5  C6  UNL     1      21.296   0.913  52.695  1.00  0.00     0.082 C 
HETATM    6  N1  UNL     1      20.077   0.274  53.142  1.00  0.00    -0.398 N 
HETATM    7  C7  UNL     1      20.165  -1.155  53.623  1.00  0.00     0.130 C 
HETATM    8  C8  UNL     1      21.312  -1.138  54.623  1.00  0.00    -0.005 A 
HETATM    9  C9  UNL     1      22.578  -0.934  55.138  1.00  0.00     0.009 A 
HETATM   10  C10 UNL     1      23.768  -0.657  54.554  1.00  0.00     0.041 A 
HETATM   11  C11 UNL     1      24.869  -0.387  53.814  1.00  0.00     0.244 A 
HETATM   12  C12 UNL     1      23.632  -0.599  53.091  1.00  0.00     0.043 A 
HETATM   13  C13 UNL     1      22.449  -0.870  53.811  1.00  0.00     0.011 A 
HETATM   14  N2  UNL     1      25.396   0.020  52.531  1.00  0.00     0.329 N 
HETATM   15  C14 UNL     1      24.672   1.070  51.991  1.00  0.00     0.340 C 
HETATM   16  C15 UNL     1      23.133   2.209  50.491  1.00  0.00     0.073 C 
HETATM   17  C16 UNL     1      24.148   2.985  49.730  1.00  0.00    -0.006 C 
HETATM   18  C17 UNL     1      24.715   4.058  50.266  1.00  0.00     0.014 C 
HETATM   19 BR1  UNL     1      26.014   5.026  49.255  1.00  0.00    -0.053 Br
HETATM   20  H9  UNL     1      19.318   0.995  53.030  1.00  0.00     0.158 HD
ENDROOT
BRANCH   1  21
HETATM   21  C2  UNL     1      23.117   5.388  51.513  1.00  0.00     0.033 C 
HETATM   22  C1  UNL     1      23.655   6.764  51.189  1.00  0.00     0.008 C 
ENDBRANCH   1  21
TORSDOF 2
ENDMDL
MODEL 5
REMARK VINA RESULT:      -7.6      1.824      2.429
REMARK  2 active torsions:
REMARK  status: ('A' for Active; 'I' for Inactive)
REMARK    1  A    between atoms: C2_2  and  C3_3 
REMARK    2  A    between atoms: C12_14  and  C13_15 
ROOT
HETATM    1  C3  UNL     1      21.319   2.170  50.224  1.00  0.00     0.162 C 
HETATM    2  O1  UNL     1      22.422   1.530  50.676  1.00  0.00    -0.363 OA
HETATM    3  C4  UNL     1      23.031   1.927  51.810  1.00  0.00     0.120 C 
HETATM    4  C5  UNL     1      24.514   1.941  51.511  1.00  0.00     0.030 C 
HETATM    5  C6  UNL     1      25.670   2.503  51.865  1.00  0.00     0.082 C 
HETATM    6  N1  UNL     1      27.090   2.786  51.870  1.00  0.00    -0.398 N 
HETATM    7  C7  UNL     1      27.942   2.099  52.910  1.00  0.00     0.130 C 
HETATM    8  C8  UNL     1      27.556   0.631  52.792  1.00  0.00    -0.005 A 
HETATM    9  C9  UNL     1      26.764  -0.501  52.759  1.00  0.00     0.009 A 
HETATM   10  C10 UNL     1      25.477  -0.727  53.114  1.00  0.00     0.041 A 
HETATM   11  C11 UNL     1      24.186  -0.779  53.517  1.00  0.00     0.244 A 
HETATM   12  C12 UNL     1      24.862   0.495  53.656  1.00  0.00     0.043 A 
HETATM   13  C13 UNL     1      26.205   0.612  53.239  1.00  0.00     0.011 A 
HETATM   14  N2  UNL     1      22.997  -0.037  53.873  1.00  0.00     0.329 N 
HETATM   15  C14 UNL     1      22.770   1.014  53.000  1.00  0.00     0.340 C 
HETATM   16  C15 UNL     1      22.651   3.319  52.231  1.00  0.00     0.073 C 
HETATM   17  C16 UNL     1      21.169   3.428  52.186  1.00  0.00    -0.006 C 
HETATM   18  C17 UNL     1      20.483   2.866  51.199  1.00  0.00     0.014 C 
HETATM   19 BR1  UNL     1      18.580   3.031  51.178  1.00  0.00    -0.053 Br
HETATM   20  H9  UNL     1      27.249   3.468  51.083  1.00  0.00     0.158 HD
ENDROOT
BRANCH   1  21
HETATM   21  C2  UNL     1      21.605   3.125  49.066  1.00  0.00     0.033 C 
HETATM   22  C1  UNL     1      22.628   2.547  48.114  1.00  0.00     0.008 C 
ENDBRANCH   1  21
TORSDOF 2
ENDMDL
MODEL 6
REMARK VINA RESULT:      -7.6      3.035      6.339
REMARK  2 active torsions:
REMARK  status: ('A' for Active; 'I' for Inactive)
REMARK    1  A    between atoms: C2_2  and  C3_3 
REMARK    2  A    between atoms: C12_14  and  C13_15 
ROOT
HETATM    1  C3  UNL     1      26.806   0.586  52.455  1.00  0.00     0.162 C 
HETATM    2  O1  UNL     1      25.731   0.683  51.639  1.00  0.00    -0.363 OA
HETATM    3  C4  UNL     1      24.714   1.514  51.939  1.00  0.00     0.120 C 
HETATM    4  C5  UNL     1      23.443   0.731  51.693  1.00  0.00     0.030 C 
HETATM    5  C6  UNL     1      22.162   0.633  52.050  1.00  0.00     0.082 C 
HETATM    6  N1  UNL     1      20.802   0.139  52.083  1.00  0.00    -0.398 N 
HETATM    7  C7  UNL     1      19.764   0.877  51.272  1.00  0.00     0.130 C 
HETATM    8  C8  UNL     1      20.394   1.001  49.891  1.00  0.00    -0.005 A 
HETATM    9  C9  UNL     1      21.317   1.316  48.913  1.00  0.00     0.009 A 
HETATM   10  C10 UNL     1      22.421   2.100  48.918  1.00  0.00     0.041 A 
HETATM   11  C11 UNL     1      23.485   2.918  49.095  1.00  0.00     0.244 A 
HETATM   12  C12 UNL     1      22.610   2.730  50.234  1.00  0.00     0.043 A 
HETATM   13  C13 UNL     1      21.493   1.877  50.112  1.00  0.00     0.011 A 
HETATM   14  N2  UNL     1      24.345   3.601  50.035  1.00  0.00     0.329 N 
HETATM   15  C14 UNL     1      24.690   2.783  51.099  1.00  0.00     0.340 C 
HETATM   16  C15 UNL     1      24.700   1.938  53.380  1.00  0.00     0.073 C 
HETATM   17  C16 UNL     1      26.070   2.389  53.744  1.00  0.00    -0.006 C 
HETATM   18  C17 UNL     1      27.134   1.733  53.297  1.00  0.00     0.014 C 
HETATM   19 BR1  UNL     1      28.875   2.345  53.788  1.00  0.00    -0.053 Br
HETATM   20  H9  UNL     1      20.818  -0.701  52.718  1.00  0.00     0.158 HD
ENDROOT
BRANCH   1  21
HETATM   21  C2  UNL     1      26.789  -0.666  53.332  1.00  0.00     0.033 C 
HETATM   22  C1  UNL     1      26.804  -1.925  52.496  1.00  0.00     0.008 C 
ENDBRANCH   1  21
TORSDOF 2
ENDMDL
MODEL 7
REMARK VINA RESULT:      -7.3      2.883      6.169
REMARK  2 active torsions:
REMARK  status: ('A' for Active; 'I' for Inactive)
REMARK    1  A    between atoms: C2_2  and  C3_3 
REMARK    2  A    between atoms: C12_14  and  C13_15 
ROOT
HETATM    1  C3  UNL     1      26.176  -0.099  52.771  1.00  0.00     0.162 C 
HETATM    2  O1  UNL     1      25.505   0.749  51.959  1.00  0.00    -0.363 OA
HETATM    3  C4  UNL     1      25.560   2.081  52.159  1.00  0.00     0.120 C 
HETATM    4  C5  UNL     1      24.141   2.587  52.025  1.00  0.00     0.030 C 
HETATM    5  C6  UNL     1      23.314   3.563  52.404  1.00  0.00     0.082 C 
HETATM    6  N1  UNL     1      22.095   4.336  52.511  1.00  0.00    -0.398 N 
HETATM    7  C7  UNL     1      21.947   5.547  51.621  1.00  0.00     0.130 C 
HETATM    8  C8  UNL     1      22.286   5.026  50.231  1.00  0.00    -0.005 A 
HETATM    9  C9  UNL     1      22.996   4.421  49.213  1.00  0.00     0.009 A 
HETATM   10  C10 UNL     1      24.289   4.030  49.107  1.00  0.00     0.041 A 
HETATM   11  C11 UNL     1      25.600   3.703  49.169  1.00  0.00     0.244 A 
HETATM   12  C12 UNL     1      25.036   4.360  50.331  1.00  0.00     0.043 A 
HETATM   13  C13 UNL     1      23.670   4.711  50.328  1.00  0.00     0.011 A 
HETATM   14  N2  UNL     1      26.763   3.509  50.008  1.00  0.00     0.329 N 
HETATM   15  C14 UNL     1      26.448   2.815  51.165  1.00  0.00     0.340 C 
HETATM   16  C15 UNL     1      26.036   2.455  53.534  1.00  0.00     0.073 C 
HETATM   17  C16 UNL     1      27.269   1.676  53.826  1.00  0.00    -0.006 C 
HETATM   18  C17 UNL     1      27.363   0.404  53.457  1.00  0.00     0.014 C 
HETATM   19 BR1  UNL     1      28.964  -0.560  53.851  1.00  0.00    -0.053 Br
HETATM   20  H9  UNL     1      21.516   3.856  53.247  1.00  0.00     0.158 HD
ENDROOT
BRANCH   1  21
HETATM   21  C2  UNL     1      25.281  -0.787  53.801  1.00  0.00     0.033 C 
HETATM   22  C1  UNL     1      23.823  -0.699  53.411  1.00  0.00     0.008 C 
ENDBRANCH   1  21
TORSDOF 2
ENDMDL
MODEL 8
REMARK VINA RESULT:      -7.0      3.276      4.638
REMARK  2 active torsions:
REMARK  status: ('A' for Active; 'I' for Inactive)
REMARK    1  A    between atoms: C2_2  and  C3_3 
REMARK    2  A    between atoms: C12_14  and  C13_15 
ROOT
HETATM    1  C3  UNL     1      24.020   4.701  50.130  1.00  0.00     0.162 C 
HETATM    2  O1  UNL     1      23.487   3.520  50.517  1.00  0.00    -0.363 OA
HETATM    3  C4  UNL     1      23.152   3.304  51.804  1.00  0.00     0.120 C 
HETATM    4  C5  UNL     1      23.666   1.924  52.149  1.00  0.00     0.030 C 
HETATM    5  C6  UNL     1      24.077   1.159  53.161  1.00  0.00     0.082 C 
HETATM    6  N1  UNL     1      24.571  -0.010  53.857  1.00  0.00    -0.398 N 
HETATM    7  C7  UNL     1      23.565  -0.892  54.556  1.00  0.00     0.130 C 
HETATM    8  C8  UNL     1      22.501  -1.148  53.497  1.00  0.00    -0.005 A 
HETATM    9  C9  UNL     1      21.542  -0.891  52.537  1.00  0.00     0.009 A 
HETATM   10  C10 UNL     1      20.878   0.237  52.187  1.00  0.00     0.041 A 
HETATM   11  C11 UNL     1      20.309   1.445  51.969  1.00  0.00     0.244 A 
HETATM   12  C12 UNL     1      21.278   1.365  53.043  1.00  0.00     0.043 A 
HETATM   13  C13 UNL     1      21.914   0.134  53.307  1.00  0.00     0.011 A 
HETATM   14  N2  UNL     1      20.365   2.871  52.202  1.00  0.00     0.329 N 
HETATM   15  C14 UNL     1      21.654   3.360  52.067  1.00  0.00     0.340 C 
HETATM   16  C15 UNL     1      23.803   4.269  52.755  1.00  0.00     0.073 C 
HETATM   17  C16 UNL     1      23.606   5.645  52.226  1.00  0.00    -0.006 C 
HETATM   18  C17 UNL     1      23.708   5.886  50.925  1.00  0.00     0.014 C 
HETATM   19 BR1  UNL     1      23.448   7.668  50.288  1.00  0.00    -0.053 Br
HETATM   20  H9  UNL     1      25.616  -0.003  53.722  1.00  0.00     0.158 HD
ENDROOT
BRANCH   1  21
HETATM   21  C2  UNL     1      25.533   4.644  49.924  1.00  0.00     0.033 C 
HETATM   22  C1  UNL     1      25.991   3.244  49.586  1.00  0.00     0.008 C 
ENDBRANCH   1  21
TORSDOF 2
ENDMDL
MODEL 9
REMARK VINA RESULT:      -6.9      3.543      6.319
REMARK  2 active torsions:
REMARK  status: ('A' for Active; 'I' for Inactive)
REMARK    1  A    between atoms: C2_2  and  C3_3 
REMARK    2  A    between atoms: C12_14  and  C13_15 
ROOT
HETATM    1  C3  UNL     1      23.398   2.191  51.881  1.00  0.00     0.162 C 
HETATM    2  O1  UNL     1      23.940   3.409  51.647  1.00  0.00    -0.363 OA
HETATM    3  C4  UNL     1      23.980   3.915  50.399  1.00  0.00     0.120 C 
HETATM    4  C5  UNL     1      25.370   4.487  50.220  1.00  0.00     0.030 C 
HETATM    5  C6  UNL     1      26.293   4.784  49.305  1.00  0.00     0.082 C 
HETATM    6  N1  UNL     1      27.543   5.260  48.751  1.00  0.00    -0.398 N 
HETATM    7  C7  UNL     1      27.572   6.656  48.176  1.00  0.00     0.130 C 
HETATM    8  C8  UNL     1      26.956   7.519  49.269  1.00  0.00    -0.005 A 
HETATM    9  C9  UNL     1      26.042   7.970  50.200  1.00  0.00     0.009 A 
HETATM   10  C10 UNL     1      24.737   7.677  50.416  1.00  0.00     0.041 A 
HETATM   11  C11 UNL     1      23.448   7.273  50.491  1.00  0.00     0.244 A 
HETATM   12  C12 UNL     1      24.248   6.706  49.425  1.00  0.00     0.043 A 
HETATM   13  C13 UNL     1      25.603   7.080  49.306  1.00  0.00     0.011 A 
HETATM   14  N2  UNL     1      22.456   6.301  50.085  1.00  0.00     0.329 N 
HETATM   15  C14 UNL     1      22.953   5.009  50.147  1.00  0.00     0.340 C 
HETATM   16  C15 UNL     1      23.789   2.876  49.331  1.00  0.00     0.073 C 
HETATM   17  C16 UNL     1      22.601   2.056  49.689  1.00  0.00    -0.006 C 
HETATM   18  C17 UNL     1      22.384   1.703  50.950  1.00  0.00     0.014 C 
HETATM   19 BR1  UNL     1      20.846   0.650  51.368  1.00  0.00    -0.053 Br
HETATM   20  H9  UNL     1      28.229   4.471  48.873  1.00  0.00     0.158 HD
ENDROOT
BRANCH   1  21
HETATM   21  C2  UNL     1      24.441   1.091  52.076  1.00  0.00     0.033 C 
HETATM   22  C1  UNL     1      24.122   0.238  53.283  1.00  0.00     0.008 C 
ENDBRANCH   1  21
TORSDOF 2
ENDMDL
