MODEL 1
REMARK VINA RESULT:      -7.6      0.000      0.000
REMARK  6 active torsions:
REMARK  status: ('A' for Active; 'I' for Inactive)
REMARK    1  A    between atoms: C1_1  and  C2_2 
REMARK    2  A    between atoms: C1_1  and  C11_14 
REMARK    3  A    between atoms: C2_2  and  N1_3 
REMARK    4  A    between atoms: N1_3  and  C3_4 
REMARK    5  A    between atoms: C11_14  and  C12_15 
REMARK    6  A    between atoms: C13_16  and  C14_17 
ROOT
HETATM    1  N1  UNL     1      26.354   1.277  51.463  1.00  0.00    -0.366 N 
HETATM    2  H3  UNL     1      26.333   0.318  51.002  1.00  0.00     0.162 HD
ENDROOT
BRANCH   1   3
HETATM    3  C2  UNL     1      26.420   2.400  50.608  1.00  0.00     0.082 C 
BRANCH   3   4
HETATM    4  C1  UNL     1      26.415   3.299  49.651  1.00  0.00    -0.006 C 
BRANCH   4   5
HETATM    5  C11 UNL     1      25.847   4.640  49.278  1.00  0.00     0.055 C 
BRANCH   5   6
HETATM    6  C12 UNL     1      26.966   5.474  48.825  1.00  0.00    -0.021 C 
HETATM    7  C13 UNL     1      28.135   4.982  48.511  1.00  0.00     0.028 C 
BRANCH   7   8
HETATM    8  C14 UNL     1      29.242   5.806  48.063  1.00  0.00     0.059 A 
HETATM    9  C15 UNL     1      29.006   7.038  47.447  1.00  0.00     0.051 A 
HETATM   10  C16 UNL     1      30.087   7.817  47.023  1.00  0.00     0.120 A 
HETATM   11  N3  UNL     1      31.344   7.362  47.217  1.00  0.00    -0.254 NA
HETATM   12  C17 UNL     1      31.567   6.160  47.817  1.00  0.00     0.233 A 
HETATM   13  N4  UNL     1      30.507   5.435  48.214  1.00  0.00    -0.242 NA
ENDBRANCH   7   8
ENDBRANCH   5   6
ENDBRANCH   4   5
ENDBRANCH   3   4
ENDBRANCH   1   3
BRANCH   1  14
HETATM   14  C3  UNL     1      26.324   1.730  52.863  1.00  0.00     0.151 C 
HETATM   15  C4  UNL     1      25.052   2.466  53.095  1.00  0.00     0.028 C 
HETATM   16  C5  UNL     1      23.927   1.767  53.209  1.00  0.00    -0.022 C 
HETATM   17  C6  UNL     1      23.946   0.277  53.107  1.00  0.00     0.054 C 
HETATM   18  C7  UNL     1      25.190  -0.164  53.820  1.00  0.00    -0.011 C 
HETATM   19  C8  UNL     1      26.313   0.530  53.699  1.00  0.00    -0.003 C 
HETATM   20  C9  UNL     1      27.474   0.029  54.426  1.00  0.00     0.062 C 
HETATM   21  S1  UNL     1      28.829   0.940  54.476  1.00  0.00    -0.096 SA
HETATM   22  C10 UNL     1      28.705   2.356  53.671  1.00  0.00     0.136 C 
HETATM   23  N2  UNL     1      27.447   2.586  53.050  1.00  0.00    -0.360 N 
HETATM   24  H11 UNL     1      27.287   3.555  52.647  1.00  0.00     0.162 HD
ENDBRANCH   1  14
TORSDOF 6
ENDMDL
MODEL 2
REMARK VINA RESULT:      -7.4      3.687      5.445
REMARK  6 active torsions:
REMARK  status: ('A' for Active; 'I' for Inactive)
REMARK    1  A    between atoms: C1_1  and  C2_2 
REMARK    2  A    between atoms: C1_1  and  C11_14 
REMARK    3  A    between atoms: C2_2  and  N1_3 
REMARK    4  A    between atoms: N1_3  and  C3_4 
REMARK    5  A    between atoms: C11_14  and  C12_15 
REMARK    6  A    between atoms: C13_16  and  C14_17 
ROOT
HETATM    1  N1  UNL     1      26.512  -0.113  54.426  1.00  0.00    -0.366 N 
HETATM    2  H3  UNL     1      26.739   0.162  55.428  1.00  0.00     0.162 HD
ENDROOT
BRANCH   1   3
HETATM    3  C2  UNL     1      25.165  -0.427  54.135  1.00  0.00     0.082 C 
BRANCH   3   4
HETATM    4  C1  UNL     1      23.875  -0.499  53.902  1.00  0.00    -0.006 C 
BRANCH   4   5
HETATM    5  C11 UNL     1      22.784   0.077  53.041  1.00  0.00     0.055 C 
BRANCH   5   6
HETATM    6  C12 UNL     1      23.214   1.421  52.640  1.00  0.00    -0.021 C 
HETATM    7  C13 UNL     1      23.446   1.750  51.397  1.00  0.00     0.028 C 
BRANCH   7   8
HETATM    8  C14 UNL     1      23.871   3.080  51.000  1.00  0.00     0.059 A 
HETATM    9  C15 UNL     1      24.713   3.257  49.899  1.00  0.00     0.051 A 
HETATM   10  C16 UNL     1      25.110   4.547  49.533  1.00  0.00     0.120 A 
HETATM   11  N3  UNL     1      24.672   5.601  50.254  1.00  0.00    -0.254 NA
HETATM   12  C17 UNL     1      23.852   5.421  51.326  1.00  0.00     0.233 A 
HETATM   13  N4  UNL     1      23.487   4.169  51.653  1.00  0.00    -0.242 NA
ENDBRANCH   7   8
ENDBRANCH   5   6
ENDBRANCH   4   5
ENDBRANCH   3   4
ENDBRANCH   1   3
BRANCH   1  14
HETATM   14  C3  UNL     1      27.320  -0.246  53.203  1.00  0.00     0.151 C 
HETATM   15  C4  UNL     1      26.866   0.779  52.222  1.00  0.00     0.028 C 
HETATM   16  C5  UNL     1      27.220   2.045  52.420  1.00  0.00    -0.022 C 
HETATM   17  C6  UNL     1      28.055   2.424  53.599  1.00  0.00     0.054 C 
HETATM   18  C7  UNL     1      29.058   1.321  53.759  1.00  0.00    -0.011 C 
HETATM   19  C8  UNL     1      28.702   0.058  53.570  1.00  0.00    -0.003 C 
HETATM   20  C9  UNL     1      29.742  -0.949  53.747  1.00  0.00     0.062 C 
HETATM   21  S1  UNL     1      29.419  -2.499  53.340  1.00  0.00    -0.096 SA
HETATM   22  C10 UNL     1      27.908  -2.730  52.761  1.00  0.00     0.136 C 
HETATM   23  N2  UNL     1      27.103  -1.560  52.699  1.00  0.00    -0.360 N 
HETATM   24  H11 UNL     1      26.175  -1.651  52.193  1.00  0.00     0.162 HD
ENDBRANCH   1  14
TORSDOF 6
ENDMDL
MODEL 3
REMARK VINA RESULT:      -7.4      5.406      7.380
REMARK  6 active torsions:
REMARK  status: ('A' for Active; 'I' for Inactive)
REMARK    1  A    between atoms: C1_1  and  C2_2 
REMARK    2  A    between atoms: C1_1  and  C11_14 
REMARK    3  A    between atoms: C2_2  and  N1_3 
REMARK    4  A    between atoms: N1_3  and  C3_4 
REMARK    5  A    between atoms: C11_14  and  C12_15 
REMARK    6  A    between atoms: C13_16  and  C14_17 
ROOT
HETATM    1  N1  UNL     1      26.279  -0.271  55.084  1.00  0.00    -0.366 N 
HETATM    2  H3  UNL     1      26.689   0.062  56.007  1.00  0.00     0.162 HD
ENDROOT
BRANCH   1   3
HETATM    3  C2  UNL     1      24.989  -0.847  55.124  1.00  0.00     0.082 C 
BRANCH   3   4
HETATM    4  C1  UNL     1      23.801  -1.341  55.384  1.00  0.00    -0.006 C 
BRANCH   4   5
HETATM    5  C11 UNL     1      22.401  -1.431  54.841  1.00  0.00     0.055 C 
BRANCH   5   6
HETATM    6  C12 UNL     1      22.267  -0.389  53.817  1.00  0.00    -0.021 C 
HETATM    7  C13 UNL     1      21.241   0.417  53.756  1.00  0.00     0.028 C 
BRANCH   7   8
HETATM    8  C14 UNL     1      21.108   1.448  52.742  1.00  0.00     0.059 A 
HETATM    9  C15 UNL     1      21.842   1.375  51.555  1.00  0.00     0.051 A 
HETATM   10  C16 UNL     1      21.699   2.378  50.592  1.00  0.00     0.120 A 
HETATM   11  N3  UNL     1      20.851   3.402  50.827  1.00  0.00    -0.254 NA
HETATM   12  C17 UNL     1      20.139   3.467  51.986  1.00  0.00     0.233 A 
HETATM   13  N4  UNL     1      20.298   2.488  52.893  1.00  0.00    -0.242 NA
ENDBRANCH   7   8
ENDBRANCH   5   6
ENDBRANCH   4   5
ENDBRANCH   3   4
ENDBRANCH   1   3
BRANCH   1  14
HETATM   14  C3  UNL     1      26.769  -0.267  53.696  1.00  0.00     0.151 C 
HETATM   15  C4  UNL     1      25.653   0.144  52.801  1.00  0.00     0.028 C 
HETATM   16  C5  UNL     1      25.305   1.427  52.771  1.00  0.00    -0.022 C 
HETATM   17  C6  UNL     1      26.021   2.427  53.616  1.00  0.00     0.054 C 
HETATM   18  C7  UNL     1      27.468   2.032  53.578  1.00  0.00    -0.011 C 
HETATM   19  C8  UNL     1      27.814   0.753  53.616  1.00  0.00    -0.003 C 
HETATM   20  C9  UNL     1      29.243   0.460  53.575  1.00  0.00     0.062 C 
HETATM   21  S1  UNL     1      29.726  -1.093  53.422  1.00  0.00    -0.096 SA
HETATM   22  C10 UNL     1      28.496  -2.164  53.332  1.00  0.00     0.136 C 
HETATM   23  N2  UNL     1      27.196  -1.592  53.399  1.00  0.00    -0.360 N 
HETATM   24  H11 UNL     1      26.382  -2.242  53.196  1.00  0.00     0.162 HD
ENDBRANCH   1  14
TORSDOF 6
ENDMDL
MODEL 4
REMARK VINA RESULT:      -7.3      5.539      7.478
REMARK  6 active torsions:
REMARK  status: ('A' for Active; 'I' for Inactive)
REMARK    1  A    between atoms: C1_1  and  C2_2 
REMARK    2  A    between atoms: C1_1  and  C11_14 
REMARK    3  A    between atoms: C2_2  and  N1_3 
REMARK    4  A    between atoms: N1_3  and  C3_4 
REMARK    5  A    between atoms: C11_14  and  C12_15 
REMARK    6  A    between atoms: C13_16  and  C14_17 
ROOT
HETATM    1  N1  UNL     1      20.764   1.592  53.162  1.00  0.00    -0.366 N 
HETATM    2  H3  UNL     1      20.403   1.944  54.098  1.00  0.00     0.162 HD
ENDROOT
BRANCH   1   3
HETATM    3  C2  UNL     1      21.549   2.486  52.399  1.00  0.00     0.082 C 
BRANCH   3   4
HETATM    4  C1  UNL     1      22.453   3.185  51.751  1.00  0.00    -0.006 C 
BRANCH   4   5
HETATM    5  C11 UNL     1      23.629   3.046  50.825  1.00  0.00     0.055 C 
BRANCH   5   6
HETATM    6  C12 UNL     1      24.505   2.013  51.389  1.00  0.00    -0.021 C 
HETATM    7  C13 UNL     1      25.142   2.165  52.519  1.00  0.00     0.028 C 
BRANCH   7   8
HETATM    8  C14 UNL     1      26.009   1.143  53.078  1.00  0.00     0.059 A 
HETATM    9  C15 UNL     1      26.285  -0.023  52.360  1.00  0.00     0.051 A 
HETATM   10  C16 UNL     1      27.123  -0.995  52.916  1.00  0.00     0.120 A 
HETATM   11  N3  UNL     1      27.651  -0.788  54.141  1.00  0.00    -0.254 NA
HETATM   12  C17 UNL     1      27.377   0.351  54.836  1.00  0.00     0.233 A 
HETATM   13  N4  UNL     1      26.568   1.267  54.275  1.00  0.00    -0.242 NA
ENDBRANCH   7   8
ENDBRANCH   5   6
ENDBRANCH   4   5
ENDBRANCH   3   4
ENDBRANCH   1   3
BRANCH   1  14
HETATM   14  C3  UNL     1      20.632   0.318  52.438  1.00  0.00     0.151 C 
HETATM   15  C4  UNL     1      21.995  -0.220  52.173  1.00  0.00     0.028 C 
HETATM   16  C5  UNL     1      22.667  -0.766  53.182  1.00  0.00    -0.022 C 
HETATM   17  C6  UNL     1      22.063  -0.836  54.546  1.00  0.00     0.054 C 
HETATM   18  C7  UNL     1      20.614  -1.163  54.334  1.00  0.00    -0.011 C 
HETATM   19  C8  UNL     1      19.943  -0.611  53.332  1.00  0.00    -0.003 C 
HETATM   20  C9  UNL     1      18.539  -0.985  53.201  1.00  0.00     0.062 C 
HETATM   21  S1  UNL     1      17.711  -0.496  51.880  1.00  0.00    -0.096 SA
HETATM   22  C10 UNL     1      18.601   0.387  50.831  1.00  0.00     0.136 C 
HETATM   23  N2  UNL     1      19.952   0.598  51.218  1.00  0.00    -0.360 N 
HETATM   24  H11 UNL     1      20.589   1.038  50.493  1.00  0.00     0.162 HD
ENDBRANCH   1  14
TORSDOF 6
ENDMDL
MODEL 5
REMARK VINA RESULT:      -7.3      4.433      7.351
REMARK  6 active torsions:
REMARK  status: ('A' for Active; 'I' for Inactive)
REMARK    1  A    between atoms: C1_1  and  C2_2 
REMARK    2  A    between atoms: C1_1  and  C11_14 
REMARK    3  A    between atoms: C2_2  and  N1_3 
REMARK    4  A    between atoms: N1_3  and  C3_4 
REMARK    5  A    between atoms: C11_14  and  C12_15 
REMARK    6  A    between atoms: C13_16  and  C14_17 
ROOT
HETATM    1  N1  UNL     1      23.366   2.195  50.483  1.00  0.00    -0.366 N 
HETATM    2  H3  UNL     1      23.460   1.923  49.459  1.00  0.00     0.162 HD
ENDROOT
BRANCH   1   3
HETATM    3  C2  UNL     1      22.608   1.334  51.309  1.00  0.00     0.082 C 
BRANCH   3   4
HETATM    4  C1  UNL     1      22.103   0.444  52.132  1.00  0.00    -0.006 C 
BRANCH   4   5
HETATM    5  C11 UNL     1      22.483  -0.543  53.200  1.00  0.00     0.055 C 
BRANCH   5   6
HETATM    6  C12 UNL     1      23.942  -0.690  53.155  1.00  0.00    -0.021 C 
HETATM    7  C13 UNL     1      24.723  -0.306  54.129  1.00  0.00     0.028 C 
BRANCH   7   8
HETATM    8  C14 UNL     1      26.167  -0.451  54.084  1.00  0.00     0.059 A 
HETATM    9  C15 UNL     1      26.778  -1.157  53.045  1.00  0.00     0.051 A 
HETATM   10  C16 UNL     1      28.170  -1.285  53.020  1.00  0.00     0.120 A 
HETATM   11  N3  UNL     1      28.901  -0.720  54.006  1.00  0.00    -0.254 NA
HETATM   12  C17 UNL     1      28.299  -0.033  55.016  1.00  0.00     0.233 A 
HETATM   13  N4  UNL     1      26.959   0.072  55.011  1.00  0.00    -0.242 NA
ENDBRANCH   7   8
ENDBRANCH   5   6
ENDBRANCH   4   5
ENDBRANCH   3   4
ENDBRANCH   1   3
BRANCH   1  14
HETATM   14  C3  UNL     1      23.873   3.320  51.285  1.00  0.00     0.151 C 
HETATM   15  C4  UNL     1      24.880   2.797  52.250  1.00  0.00     0.028 C 
HETATM   16  C5  UNL     1      26.084   2.469  51.794  1.00  0.00    -0.022 C 
HETATM   17  C6  UNL     1      26.415   2.625  50.346  1.00  0.00     0.054 C 
HETATM   18  C7  UNL     1      25.762   3.904  49.914  1.00  0.00    -0.011 C 
HETATM   19  C8  UNL     1      24.557   4.226  50.363  1.00  0.00    -0.003 C 
HETATM   20  C9  UNL     1      23.998   5.488  49.891  1.00  0.00     0.062 C 
HETATM   21  S1  UNL     1      22.608   6.034  50.555  1.00  0.00    -0.096 SA
HETATM   22  C10 UNL     1      21.998   5.056  51.713  1.00  0.00     0.136 C 
HETATM   23  N2  UNL     1      22.759   3.882  51.969  1.00  0.00    -0.360 N 
HETATM   24  H11 UNL     1      22.469   3.306  52.812  1.00  0.00     0.162 HD
ENDBRANCH   1  14
TORSDOF 6
ENDMDL
MODEL 6
REMARK VINA RESULT:      -7.2      3.432      6.188
REMARK  6 active torsions:
REMARK  status: ('A' for Active; 'I' for Inactive)
REMARK    1  A    between atoms: C1_1  and  C2_2 
REMARK    2  A    between atoms: C1_1  and  C11_14 
REMARK    3  A    between atoms: C2_2  and  N1_3 
REMARK    4  A    between atoms: N1_3  and  C3_4 
REMARK    5  A    between atoms: C11_14  and  C12_15 
REMARK    6  A    between atoms: C13_16  and  C14_17 
ROOT
HETATM    1  N1  UNL     1      26.625   1.302  51.477  1.00  0.00    -0.366 N 
HETATM    2  H3  UNL     1      26.770   0.384  50.960  1.00  0.00     0.162 HD
ENDROOT
BRANCH   1   3
HETATM    3  C2  UNL     1      26.458   2.463  50.689  1.00  0.00     0.082 C 
BRANCH   3   4
HETATM    4  C1  UNL     1      26.133   3.428  49.860  1.00  0.00    -0.006 C 
BRANCH   4   5
HETATM    5  C11 UNL     1      24.959   4.216  49.347  1.00  0.00     0.055 C 
BRANCH   5   6
HETATM    6  C12 UNL     1      23.776   3.759  50.086  1.00  0.00    -0.021 C 
HETATM    7  C13 UNL     1      23.089   2.704  49.739  1.00  0.00     0.028 C 
BRANCH   7   8
HETATM    8  C14 UNL     1      21.919   2.251  50.469  1.00  0.00     0.059 A 
HETATM    9  C15 UNL     1      21.539   0.907  50.439  1.00  0.00     0.051 A 
HETATM   10  C16 UNL     1      20.408   0.492  51.149  1.00  0.00     0.120 A 
HETATM   11  N3  UNL     1      19.702   1.402  51.854  1.00  0.00    -0.254 NA
HETATM   12  C17 UNL     1      20.078   2.711  51.880  1.00  0.00     0.233 A 
HETATM   13  N4  UNL     1      21.169   3.078  51.187  1.00  0.00    -0.242 NA
ENDBRANCH   7   8
ENDBRANCH   5   6
ENDBRANCH   4   5
ENDBRANCH   3   4
ENDBRANCH   1   3
BRANCH   1  14
HETATM   14  C3  UNL     1      26.550   1.663  52.901  1.00  0.00     0.151 C 
HETATM   15  C4  UNL     1      25.226   2.291  53.162  1.00  0.00     0.028 C 
HETATM   16  C5  UNL     1      24.153   1.508  53.216  1.00  0.00    -0.022 C 
HETATM   17  C6  UNL     1      24.280   0.033  53.022  1.00  0.00     0.054 C 
HETATM   18  C7  UNL     1      25.546  -0.363  53.724  1.00  0.00    -0.011 C 
HETATM   19  C8  UNL     1      26.617   0.415  53.661  1.00  0.00    -0.003 C 
HETATM   20  C9  UNL     1      27.804  -0.047  54.372  1.00  0.00     0.062 C 
HETATM   21  S1  UNL     1      29.090   0.953  54.497  1.00  0.00    -0.096 SA
HETATM   22  C10 UNL     1      28.872   2.405  53.780  1.00  0.00     0.136 C 
HETATM   23  N2  UNL     1      27.606   2.582  53.156  1.00  0.00    -0.360 N 
HETATM   24  H11 UNL     1      27.382   3.561  52.813  1.00  0.00     0.162 HD
ENDBRANCH   1  14
TORSDOF 6
ENDMDL
MODEL 7
REMARK VINA RESULT:      -7.0      5.412      7.348
REMARK  6 active torsions:
REMARK  status: ('A' for Active; 'I' for Inactive)
REMARK    1  A    between atoms: C1_1  and  C2_2 
REMARK    2  A    between atoms: C1_1  and  C11_14 
REMARK    3  A    between atoms: C2_2  and  N1_3 
REMARK    4  A    between atoms: N1_3  and  C3_4 
REMARK    5  A    between atoms: C11_14  and  C12_15 
REMARK    6  A    between atoms: C13_16  and  C14_17 
ROOT
HETATM    1  N1  UNL     1      22.003   1.741  52.812  1.00  0.00    -0.366 N 
HETATM    2  H3  UNL     1      21.529   2.436  53.463  1.00  0.00     0.162 HD
ENDROOT
BRANCH   1   3
HETATM    3  C2  UNL     1      23.363   1.974  52.505  1.00  0.00     0.082 C 
BRANCH   3   4
HETATM    4  C1  UNL     1      24.616   2.348  52.382  1.00  0.00    -0.006 C 
BRANCH   4   5
HETATM    5  C11 UNL     1      25.737   2.451  51.386  1.00  0.00     0.055 C 
BRANCH   5   6
HETATM    6  C12 UNL     1      26.748   1.458  51.769  1.00  0.00    -0.021 C 
HETATM    7  C13 UNL     1      26.459   0.376  52.441  1.00  0.00     0.028 C 
BRANCH   7   8
HETATM    8  C14 UNL     1      27.458  -0.606  52.820  1.00  0.00     0.059 A 
HETATM    9  C15 UNL     1      28.690  -0.201  53.341  1.00  0.00     0.051 A 
HETATM   10  C16 UNL     1      29.639  -1.163  53.700  1.00  0.00     0.120 A 
HETATM   11  N3  UNL     1      29.346  -2.471  53.536  1.00  0.00    -0.254 NA
HETATM   12  C17 UNL     1      28.144  -2.859  53.027  1.00  0.00     0.233 A 
HETATM   13  N4  UNL     1      27.253  -1.911  52.691  1.00  0.00    -0.242 NA
ENDBRANCH   7   8
ENDBRANCH   5   6
ENDBRANCH   4   5
ENDBRANCH   3   4
ENDBRANCH   1   3
BRANCH   1  14
HETATM   14  C3  UNL     1      21.547   0.524  52.122  1.00  0.00     0.151 C 
HETATM   15  C4  UNL     1      22.423  -0.608  52.532  1.00  0.00     0.028 C 
HETATM   16  C5  UNL     1      22.257  -1.131  53.743  1.00  0.00    -0.022 C 
HETATM   17  C6  UNL     1      21.214  -0.592  54.665  1.00  0.00     0.054 C 
HETATM   18  C7  UNL     1      20.027  -0.283  53.802  1.00  0.00    -0.011 C 
HETATM   19  C8  UNL     1      20.193   0.246  52.598  1.00  0.00    -0.003 C 
HETATM   20  C9  UNL     1      18.984   0.513  51.828  1.00  0.00     0.062 C 
HETATM   21  S1  UNL     1      19.127   0.980  50.268  1.00  0.00    -0.096 SA
HETATM   22  C10 UNL     1      20.673   1.092  49.750  1.00  0.00     0.136 C 
HETATM   23  N2  UNL     1      21.658   0.770  50.724  1.00  0.00    -0.360 N 
HETATM   24  H11 UNL     1      22.658   0.690  50.377  1.00  0.00     0.162 HD
ENDBRANCH   1  14
TORSDOF 6
ENDMDL
MODEL 8
REMARK VINA RESULT:      -6.8      2.365      2.713
REMARK  6 active torsions:
REMARK  status: ('A' for Active; 'I' for Inactive)
REMARK    1  A    between atoms: C1_1  and  C2_2 
REMARK    2  A    between atoms: C1_1  and  C11_14 
REMARK    3  A    between atoms: C2_2  and  N1_3 
REMARK    4  A    between atoms: N1_3  and  C3_4 
REMARK    5  A    between atoms: C11_14  and  C12_15 
REMARK    6  A    between atoms: C13_16  and  C14_17 
ROOT
HETATM    1  N1  UNL     1      26.480   1.439  51.383  1.00  0.00    -0.366 N 
HETATM    2  H3  UNL     1      26.568   0.542  50.818  1.00  0.00     0.162 HD
ENDROOT
BRANCH   1   3
HETATM    3  C2  UNL     1      26.381   2.648  50.658  1.00  0.00     0.082 C 
BRANCH   3   4
HETATM    4  C1  UNL     1      26.514   3.757  49.967  1.00  0.00    -0.006 C 
BRANCH   4   5
HETATM    5  C11 UNL     1      27.358   4.407  48.907  1.00  0.00     0.055 C 
BRANCH   5   6
HETATM    6  C12 UNL     1      26.764   5.719  48.624  1.00  0.00    -0.021 C 
HETATM    7  C13 UNL     1      27.480   6.776  48.344  1.00  0.00     0.028 C 
BRANCH   7   8
HETATM    8  C14 UNL     1      26.892   8.073  48.064  1.00  0.00     0.059 A 
HETATM    9  C15 UNL     1      26.198   8.297  46.873  1.00  0.00     0.051 A 
HETATM   10  C16 UNL     1      25.640   9.554  46.623  1.00  0.00     0.120 A 
HETATM   11  N3  UNL     1      25.783  10.533  47.542  1.00  0.00    -0.254 NA
HETATM   12  C17 UNL     1      26.461  10.308  48.702  1.00  0.00     0.233 A 
HETATM   13  N4  UNL     1      26.986   9.089  48.913  1.00  0.00    -0.242 NA
ENDBRANCH   7   8
ENDBRANCH   5   6
ENDBRANCH   4   5
ENDBRANCH   3   4
ENDBRANCH   1   3
BRANCH   1  14
HETATM   14  C3  UNL     1      26.433   1.729  52.825  1.00  0.00     0.151 C 
HETATM   15  C4  UNL     1      25.140   2.402  53.130  1.00  0.00     0.028 C 
HETATM   16  C5  UNL     1      24.033   1.667  53.155  1.00  0.00    -0.022 C 
HETATM   17  C6  UNL     1      24.091   0.200  52.885  1.00  0.00     0.054 C 
HETATM   18  C7  UNL     1      25.343  -0.289  53.552  1.00  0.00    -0.011 C 
HETATM   19  C8  UNL     1      26.448   0.442  53.519  1.00  0.00    -0.003 C 
HETATM   20  C9  UNL     1      27.618  -0.110  54.194  1.00  0.00     0.062 C 
HETATM   21  S1  UNL     1      28.949   0.823  54.358  1.00  0.00    -0.096 SA
HETATM   22  C10 UNL     1      28.793   2.318  53.717  1.00  0.00     0.136 C 
HETATM   23  N2  UNL     1      27.532   2.585  53.117  1.00  0.00    -0.360 N 
HETATM   24  H11 UNL     1      27.350   3.590  52.826  1.00  0.00     0.162 HD
ENDBRANCH   1  14
TORSDOF 6
ENDMDL
MODEL 9
REMARK VINA RESULT:      -6.7      4.101      6.104
REMARK  6 active torsions:
REMARK  status: ('A' for Active; 'I' for Inactive)
REMARK    1  A    between atoms: C1_1  and  C2_2 
REMARK    2  A    between atoms: C1_1  and  C11_14 
REMARK    3  A    between atoms: C2_2  and  N1_3 
REMARK    4  A    between atoms: N1_3  and  C3_4 
REMARK    5  A    between atoms: C11_14  and  C12_15 
REMARK    6  A    between atoms: C13_16  and  C14_17 
ROOT
HETATM    1  N1  UNL     1      22.526   2.051  50.570  1.00  0.00    -0.366 N 
HETATM    2  H3  UNL     1      21.902   1.579  49.850  1.00  0.00     0.162 HD
ENDROOT
BRANCH   1   3
HETATM    3  C2  UNL     1      23.645   2.763  50.083  1.00  0.00     0.082 C 
BRANCH   3   4
HETATM    4  C1  UNL     1      24.677   3.279  49.456  1.00  0.00    -0.006 C 
BRANCH   4   5
HETATM    5  C11 UNL     1      26.152   3.536  49.596  1.00  0.00     0.055 C 
BRANCH   5   6
HETATM    6  C12 UNL     1      26.693   2.486  50.467  1.00  0.00    -0.021 C 
HETATM    7  C13 UNL     1      26.786   2.620  51.763  1.00  0.00     0.028 C 
BRANCH   7   8
HETATM    8  C14 UNL     1      27.321   1.582  52.625  1.00  0.00     0.059 A 
HETATM    9  C15 UNL     1      28.387   1.854  53.487  1.00  0.00     0.051 A 
HETATM   10  C16 UNL     1      28.887   0.840  54.310  1.00  0.00     0.120 A 
HETATM   11  N3  UNL     1      28.329  -0.388  54.255  1.00  0.00    -0.254 NA
HETATM   12  C17 UNL     1      27.292  -0.647  53.412  1.00  0.00     0.233 A 
HETATM   13  N4  UNL     1      26.833   0.348  52.634  1.00  0.00    -0.242 NA
ENDBRANCH   7   8
ENDBRANCH   5   6
ENDBRANCH   4   5
ENDBRANCH   3   4
ENDBRANCH   1   3
BRANCH   1  14
HETATM   14  C3  UNL     1      22.489   2.143  52.039  1.00  0.00     0.151 C 
HETATM   15  C4  UNL     1      22.748   3.556  52.431  1.00  0.00     0.028 C 
HETATM   16  C5  UNL     1      21.775   4.447  52.266  1.00  0.00    -0.022 C 
HETATM   17  C6  UNL     1      20.455   4.034  51.702  1.00  0.00     0.054 C 
HETATM   18  C7  UNL     1      20.161   2.689  52.298  1.00  0.00    -0.011 C 
HETATM   19  C8  UNL     1      21.130   1.798  52.454  1.00  0.00    -0.003 C 
HETATM   20  C9  UNL     1      20.754   0.517  53.040  1.00  0.00     0.062 C 
HETATM   21  S1  UNL     1      21.930  -0.546  53.438  1.00  0.00    -0.096 SA
HETATM   22  C10 UNL     1      23.440  -0.014  53.114  1.00  0.00     0.136 C 
HETATM   23  N2  UNL     1      23.509   1.284  52.537  1.00  0.00    -0.360 N 
HETATM   24  H11 UNL     1      24.476   1.714  52.453  1.00  0.00     0.162 HD
ENDBRANCH   1  14
TORSDOF 6
ENDMDL
