MODEL 1
REMARK VINA RESULT:      -8.7      0.000      0.000
REMARK  6 active torsions:
REMARK  status: ('A' for Active; 'I' for Inactive)
REMARK    1  A    between atoms: C4_5  and  N1_6 
REMARK    2  A    between atoms: N1_6  and  C5_7 
REMARK    3  A    between atoms: C10_14  and  N4_15 
REMARK       I    between atoms: N4_15  and  C11_16 
REMARK       I    between atoms: C11_16  and  N5_18 
REMARK    4  A    between atoms: N5_18  and  C12_19 
REMARK    5  A    between atoms: C12_19  and  C13_20 
REMARK    6  A    between atoms: C13_20  and  N6_21 
ROOT
HETATM    1  C5  UNL     1      23.823   0.730  53.124  1.00  0.00     0.138 A 
HETATM    2  N2  UNL     1      23.273  -0.511  53.142  1.00  0.00    -0.224 NA
HETATM    3  C6  UNL     1      21.938  -0.591  52.840  1.00  0.00     0.235 A 
HETATM    4  N3  UNL     1      21.227   0.495  52.543  1.00  0.00    -0.241 NA
HETATM    5  C7  UNL     1      21.779   1.749  52.525  1.00  0.00     0.072 A 
HETATM    6  C8  UNL     1      21.172   2.975  52.242  1.00  0.00     0.035 A 
HETATM    7  C9  UNL     1      21.881   4.145  52.275  1.00  0.00     0.032 A 
HETATM    8  C10 UNL     1      23.230   4.186  52.587  1.00  0.00     0.037 A 
HETATM    9  C19 UNL     1      23.876   2.995  52.879  1.00  0.00     0.047 A 
HETATM   10  C20 UNL     1      23.118   1.855  52.825  1.00  0.00     0.041 A 
ENDROOT
BRANCH   8  11
HETATM   11  N4  UNL     1      23.608   5.549  52.529  1.00  0.00    -0.309 N 
HETATM   12  C11 UNL     1      24.040   6.307  51.393  1.00  0.00     0.320 C 
HETATM   13  O1  UNL     1      23.994   5.627  50.320  1.00  0.00    -0.247 OA
HETATM   14  N5  UNL     1      24.485   7.674  51.381  1.00  0.00    -0.341 N 
HETATM   15  H10 UNL     1      24.459   7.983  52.376  1.00  0.00     0.164 HD
HETATM   16  H9  UNL     1      23.576   6.108  53.408  1.00  0.00     0.170 HD
BRANCH  14  17
HETATM   17  C12 UNL     1      24.770   8.027  50.014  1.00  0.00     0.143 C 
BRANCH  17  18
HETATM   18  C13 UNL     1      26.162   8.418  49.700  1.00  0.00     0.136 C 
BRANCH  18  19
HETATM   19  N6  UNL     1      27.063   7.498  49.141  1.00  0.00    -0.411 N 
HETATM   20  C14 UNL     1      27.921   8.057  48.126  1.00  0.00     0.117 C 
HETATM   21  C15 UNL     1      29.109   7.258  47.741  1.00  0.00     0.019 C 
HETATM   22  C16 UNL     1      29.168   5.881  48.320  1.00  0.00     0.003 C 
HETATM   23  C17 UNL     1      27.805   5.295  48.366  1.00  0.00     0.019 C 
HETATM   24  C18 UNL     1      26.787   6.145  49.086  1.00  0.00     0.117 C 
ENDBRANCH  18  19
ENDBRANCH  17  18
ENDBRANCH  14  17
ENDBRANCH   8  11
BRANCH   1  25
HETATM   25  N1  UNL     1      25.202   0.679  53.567  1.00  0.00    -0.367 N 
HETATM   26  H5  UNL     1      25.183   1.550  54.178  1.00  0.00     0.161 HD
BRANCH  25  27
HETATM   27  C4  UNL     1      26.447  -0.083  53.439  1.00  0.00     0.107 A 
HETATM   28  C3  UNL     1      26.876   0.975  54.033  1.00  0.00     0.037 A 
HETATM   29  C2  UNL     1      28.047  -0.006  53.776  1.00  0.00     0.029 A 
HETATM   30  C1  UNL     1      29.170   0.562  54.253  1.00  0.00     0.156 C 
HETATM   31 BR1  UNL     1      29.537  -1.191  53.478  1.00  0.00    -0.194 Br
ENDBRANCH  25  27
ENDBRANCH   1  25
TORSDOF 6
ENDMDL
MODEL 2
REMARK VINA RESULT:      -8.6      3.144      4.292
REMARK  6 active torsions:
REMARK  status: ('A' for Active; 'I' for Inactive)
REMARK    1  A    between atoms: C4_5  and  N1_6 
REMARK    2  A    between atoms: N1_6  and  C5_7 
REMARK    3  A    between atoms: C10_14  and  N4_15 
REMARK       I    between atoms: N4_15  and  C11_16 
REMARK       I    between atoms: C11_16  and  N5_18 
REMARK    4  A    between atoms: N5_18  and  C12_19 
REMARK    5  A    between atoms: C12_19  and  C13_20 
REMARK    6  A    between atoms: C13_20  and  N6_21 
ROOT
HETATM    1  C5  UNL     1      24.560   1.984  51.386  1.00  0.00     0.138 A 
HETATM    2  N2  UNL     1      23.504   1.142  51.534  1.00  0.00    -0.224 NA
HETATM    3  C6  UNL     1      22.400   1.410  50.768  1.00  0.00     0.235 A 
HETATM    4  N3  UNL     1      22.373   2.440  49.923  1.00  0.00    -0.241 NA
HETATM    5  C7  UNL     1      23.436   3.291  49.773  1.00  0.00     0.072 A 
HETATM    6  C8  UNL     1      23.561   4.407  48.942  1.00  0.00     0.035 A 
HETATM    7  C9  UNL     1      24.706   5.154  48.922  1.00  0.00     0.032 A 
HETATM    8  C10 UNL     1      25.802   4.854  49.714  1.00  0.00     0.037 A 
HETATM    9  C19 UNL     1      25.726   3.757  50.557  1.00  0.00     0.047 A 
HETATM   10  C20 UNL     1      24.557   3.042  50.533  1.00  0.00     0.041 A 
ENDROOT
BRANCH   8  11
HETATM   11  N4  UNL     1      26.778   5.839  49.429  1.00  0.00    -0.309 N 
HETATM   12  C11 UNL     1      28.066   5.672  48.825  1.00  0.00     0.320 C 
HETATM   13  O1  UNL     1      28.271   4.469  48.466  1.00  0.00    -0.247 OA
HETATM   14  N5  UNL     1      29.064   6.684  48.614  1.00  0.00    -0.341 N 
HETATM   15  H10 UNL     1      28.665   7.557  49.023  1.00  0.00     0.164 HD
HETATM   16  H9  UNL     1      26.564   6.830  49.671  1.00  0.00     0.170 HD
BRANCH  14  17
HETATM   17  C12 UNL     1      30.173   6.068  47.933  1.00  0.00     0.143 C 
BRANCH  17  18
HETATM   18  C13 UNL     1      31.382   5.788  48.740  1.00  0.00     0.136 C 
BRANCH  18  19
HETATM   19  N6  UNL     1      32.390   4.938  48.259  1.00  0.00    -0.411 N 
HETATM   20  C14 UNL     1      33.713   5.510  48.303  1.00  0.00     0.117 C 
HETATM   21  C15 UNL     1      34.852   4.575  48.144  1.00  0.00     0.019 C 
HETATM   22  C16 UNL     1      34.482   3.176  47.766  1.00  0.00     0.003 C 
HETATM   23  C17 UNL     1      33.338   3.195  46.821  1.00  0.00     0.019 C 
HETATM   24  C18 UNL     1      32.136   3.961  47.314  1.00  0.00     0.117 C 
ENDBRANCH  18  19
ENDBRANCH  17  18
ENDBRANCH  14  17
ENDBRANCH   8  11
BRANCH   1  25
HETATM   25  N1  UNL     1      25.609   1.651  52.330  1.00  0.00    -0.367 N 
HETATM   26  H5  UNL     1      25.396   2.411  53.045  1.00  0.00     0.161 HD
BRANCH  25  27
HETATM   27  C4  UNL     1      26.725   0.732  52.566  1.00  0.00     0.107 A 
HETATM   28  C3  UNL     1      26.999   1.662  53.413  1.00  0.00     0.037 A 
HETATM   29  C2  UNL     1      28.076   0.549  53.473  1.00  0.00     0.029 A 
HETATM   30  C1  UNL     1      28.984   0.907  54.400  1.00  0.00     0.156 C 
HETATM   31 BR1  UNL     1      29.440  -0.807  53.585  1.00  0.00    -0.194 Br
ENDBRANCH  25  27
ENDBRANCH   1  25
TORSDOF 6
ENDMDL
MODEL 3
REMARK VINA RESULT:      -8.2      3.705      7.583
REMARK  6 active torsions:
REMARK  status: ('A' for Active; 'I' for Inactive)
REMARK    1  A    between atoms: C4_5  and  N1_6 
REMARK    2  A    between atoms: N1_6  and  C5_7 
REMARK    3  A    between atoms: C10_14  and  N4_15 
REMARK       I    between atoms: N4_15  and  C11_16 
REMARK       I    between atoms: C11_16  and  N5_18 
REMARK    4  A    between atoms: N5_18  and  C12_19 
REMARK    5  A    between atoms: C12_19  and  C13_20 
REMARK    6  A    between atoms: C13_20  and  N6_21 
ROOT
HETATM    1  C5  UNL     1      27.053   1.917  52.274  1.00  0.00     0.138 A 
HETATM    2  N2  UNL     1      28.266   2.468  52.537  1.00  0.00    -0.224 NA
HETATM    3  C6  UNL     1      28.856   2.105  53.720  1.00  0.00     0.235 A 
HETATM    4  N3  UNL     1      28.266   1.256  54.560  1.00  0.00    -0.241 NA
HETATM    5  C7  UNL     1      27.041   0.700  54.297  1.00  0.00     0.072 A 
HETATM    6  C8  UNL     1      26.295  -0.194  55.069  1.00  0.00     0.035 A 
HETATM    7  C9  UNL     1      25.074  -0.648  54.651  1.00  0.00     0.032 A 
HETATM    8  C10 UNL     1      24.509  -0.257  53.448  1.00  0.00     0.037 A 
HETATM    9  C19 UNL     1      25.211   0.630  52.648  1.00  0.00     0.047 A 
HETATM   10  C20 UNL     1      26.429   1.049  53.114  1.00  0.00     0.041 A 
ENDROOT
BRANCH   8  11
HETATM   11  N4  UNL     1      23.260  -0.918  53.365  1.00  0.00    -0.309 N 
HETATM   12  C11 UNL     1      21.946  -0.348  53.373  1.00  0.00     0.320 C 
HETATM   13  O1  UNL     1      21.978   0.923  53.394  1.00  0.00    -0.247 OA
HETATM   14  N5  UNL     1      20.694  -1.053  53.358  1.00  0.00    -0.341 N 
HETATM   15  H10 UNL     1      20.945  -2.065  53.376  1.00  0.00     0.164 HD
HETATM   16  H9  UNL     1      23.257  -1.957  53.282  1.00  0.00     0.170 HD
BRANCH  14  17
HETATM   17  C12 UNL     1      19.641  -0.071  53.324  1.00  0.00     0.143 C 
BRANCH  17  18
HETATM   18  C13 UNL     1      18.976   0.152  52.021  1.00  0.00     0.136 C 
BRANCH  18  19
HETATM   19  N6  UNL     1      19.343   1.228  51.198  1.00  0.00    -0.411 N 
HETATM   20  C14 UNL     1      20.314   0.892  50.187  1.00  0.00     0.117 C 
HETATM   21  C15 UNL     1      20.491   1.863  49.080  1.00  0.00     0.019 C 
HETATM   22  C16 UNL     1      19.774   3.163  49.251  1.00  0.00     0.003 C 
HETATM   23  C17 UNL     1      19.811   3.576  50.676  1.00  0.00     0.019 C 
HETATM   24  C18 UNL     1      19.290   2.538  51.638  1.00  0.00     0.117 C 
ENDBRANCH  18  19
ENDBRANCH  17  18
ENDBRANCH  14  17
ENDBRANCH   8  11
BRANCH   1  25
HETATM   25  N1  UNL     1      26.501   2.469  51.053  1.00  0.00    -0.367 N 
HETATM   26  H5  UNL     1      26.122   1.560  50.649  1.00  0.00     0.161 HD
BRANCH  25  27
HETATM   27  C4  UNL     1      26.340   3.715  50.297  1.00  0.00     0.107 A 
HETATM   28  C3  UNL     1      25.151   3.228  50.212  1.00  0.00     0.037 A 
HETATM   29  C2  UNL     1      25.231   4.581  49.460  1.00  0.00     0.029 A 
HETATM   30  C1  UNL     1      24.018   4.830  48.934  1.00  0.00     0.156 C 
HETATM   31 BR1  UNL     1      25.280   6.257  48.511  1.00  0.00    -0.194 Br
ENDBRANCH  25  27
ENDBRANCH   1  25
TORSDOF 6
ENDMDL
MODEL 4
REMARK VINA RESULT:      -8.1      1.672      1.854
REMARK  6 active torsions:
REMARK  status: ('A' for Active; 'I' for Inactive)
REMARK    1  A    between atoms: C4_5  and  N1_6 
REMARK    2  A    between atoms: N1_6  and  C5_7 
REMARK    3  A    between atoms: C10_14  and  N4_15 
REMARK       I    between atoms: N4_15  and  C11_16 
REMARK       I    between atoms: C11_16  and  N5_18 
REMARK    4  A    between atoms: N5_18  and  C12_19 
REMARK    5  A    between atoms: C12_19  and  C13_20 
REMARK    6  A    between atoms: C13_20  and  N6_21 
ROOT
HETATM    1  C5  UNL     1      23.662  -0.282  53.665  1.00  0.00     0.138 A 
HETATM    2  N2  UNL     1      22.950  -1.136  54.445  1.00  0.00    -0.224 NA
HETATM    3  C6  UNL     1      21.615  -1.253  54.160  1.00  0.00     0.235 A 
HETATM    4  N3  UNL     1      21.053  -0.563  53.167  1.00  0.00    -0.241 NA
HETATM    5  C7  UNL     1      21.769   0.300  52.380  1.00  0.00     0.072 A 
HETATM    6  C8  UNL     1      21.330   1.091  51.315  1.00  0.00     0.035 A 
HETATM    7  C9  UNL     1      22.190   1.909  50.635  1.00  0.00     0.032 A 
HETATM    8  C10 UNL     1      23.535   2.001  50.954  1.00  0.00     0.037 A 
HETATM    9  C19 UNL     1      24.017   1.238  52.005  1.00  0.00     0.047 A 
HETATM   10  C20 UNL     1      23.113   0.434  52.648  1.00  0.00     0.041 A 
ENDROOT
BRANCH   8  11
HETATM   11  N4  UNL     1      24.092   2.938  50.051  1.00  0.00    -0.309 N 
HETATM   12  C11 UNL     1      24.484   4.293  50.299  1.00  0.00     0.320 C 
HETATM   13  O1  UNL     1      24.347   4.613  51.522  1.00  0.00    -0.247 OA
HETATM   14  N5  UNL     1      24.981   5.242  49.340  1.00  0.00    -0.341 N 
HETATM   15  H10 UNL     1      24.963   4.746  48.423  1.00  0.00     0.164 HD
HETATM   16  H9  UNL     1      24.257   2.636  49.067  1.00  0.00     0.170 HD
BRANCH  14  17
HETATM   17  C12 UNL     1      25.290   6.457  50.050  1.00  0.00     0.143 C 
BRANCH  17  18
HETATM   18  C13 UNL     1      25.743   7.609  49.239  1.00  0.00     0.136 C 
BRANCH  18  19
HETATM   19  N6  UNL     1      27.090   7.744  48.867  1.00  0.00    -0.411 N 
HETATM   20  C14 UNL     1      27.713   8.955  49.341  1.00  0.00     0.117 C 
HETATM   21  C15 UNL     1      29.193   9.010  49.290  1.00  0.00     0.019 C 
HETATM   22  C16 UNL     1      29.850   7.873  48.576  1.00  0.00     0.003 C 
HETATM   23  C17 UNL     1      29.035   7.478  47.400  1.00  0.00     0.019 C 
HETATM   24  C18 UNL     1      27.596   7.159  47.721  1.00  0.00     0.117 C 
ENDBRANCH  18  19
ENDBRANCH  17  18
ENDBRANCH  14  17
ENDBRANCH   8  11
BRANCH   1  25
HETATM   25  N1  UNL     1      25.025  -0.174  54.145  1.00  0.00    -0.367 N 
HETATM   26  H5  UNL     1      24.824   0.429  54.999  1.00  0.00     0.161 HD
BRANCH  25  27
HETATM   27  C4  UNL     1      26.406  -0.570  53.853  1.00  0.00     0.107 A 
HETATM   28  C3  UNL     1      26.605   0.487  54.562  1.00  0.00     0.037 A 
HETATM   29  C2  UNL     1      27.959  -0.123  54.116  1.00  0.00     0.029 A 
HETATM   30  C1  UNL     1      28.941   0.656  54.606  1.00  0.00     0.156 C 
HETATM   31 BR1  UNL     1      29.667  -0.840  53.586  1.00  0.00    -0.194 Br
ENDBRANCH  25  27
ENDBRANCH   1  25
TORSDOF 6
ENDMDL
MODEL 5
REMARK VINA RESULT:      -8.1      1.779      2.519
REMARK  6 active torsions:
REMARK  status: ('A' for Active; 'I' for Inactive)
REMARK    1  A    between atoms: C4_5  and  N1_6 
REMARK    2  A    between atoms: N1_6  and  C5_7 
REMARK    3  A    between atoms: C10_14  and  N4_15 
REMARK       I    between atoms: N4_15  and  C11_16 
REMARK       I    between atoms: C11_16  and  N5_18 
REMARK    4  A    between atoms: N5_18  and  C12_19 
REMARK    5  A    between atoms: C12_19  and  C13_20 
REMARK    6  A    between atoms: C13_20  and  N6_21 
ROOT
HETATM    1  C5  UNL     1      23.928   0.646  52.835  1.00  0.00     0.138 A 
HETATM    2  N2  UNL     1      23.040  -0.321  53.183  1.00  0.00    -0.224 NA
HETATM    3  C6  UNL     1      21.782  -0.215  52.648  1.00  0.00     0.235 A 
HETATM    4  N3  UNL     1      21.458   0.785  51.829  1.00  0.00    -0.241 NA
HETATM    5  C7  UNL     1      22.351   1.762  51.477  1.00  0.00     0.072 A 
HETATM    6  C8  UNL     1      22.166   2.867  50.643  1.00  0.00     0.035 A 
HETATM    7  C9  UNL     1      23.178   3.755  50.403  1.00  0.00     0.032 A 
HETATM    8  C10 UNL     1      24.437   3.615  50.965  1.00  0.00     0.037 A 
HETATM    9  C19 UNL     1      24.669   2.536  51.802  1.00  0.00     0.047 A 
HETATM   10  C20 UNL     1      23.621   1.676  52.003  1.00  0.00     0.041 A 
ENDROOT
BRANCH   8  11
HETATM   11  N4  UNL     1      25.201   4.712  50.499  1.00  0.00    -0.309 N 
HETATM   12  C11 UNL     1      26.384   4.696  49.691  1.00  0.00     0.320 C 
HETATM   13  O1  UNL     1      26.698   3.519  49.327  1.00  0.00    -0.247 OA
HETATM   14  N5  UNL     1      27.178   5.826  49.293  1.00  0.00    -0.341 N 
HETATM   15  H10 UNL     1      26.731   6.653  49.745  1.00  0.00     0.164 HD
HETATM   16  H9  UNL     1      24.890   5.674  50.753  1.00  0.00     0.170 HD
BRANCH  14  17
HETATM   17  C12 UNL     1      28.238   5.339  48.449  1.00  0.00     0.143 C 
BRANCH  17  18
HETATM   18  C13 UNL     1      29.010   6.349  47.692  1.00  0.00     0.136 C 
BRANCH  18  19
HETATM   19  N6  UNL     1      29.119   7.669  48.155  1.00  0.00    -0.411 N 
HETATM   20  C14 UNL     1      28.521   8.650  47.283  1.00  0.00     0.117 C 
HETATM   21  C15 UNL     1      28.291   9.999  47.852  1.00  0.00     0.019 C 
HETATM   22  C16 UNL     1      28.882  10.231  49.206  1.00  0.00     0.003 C 
HETATM   23  C17 UNL     1      30.195   9.546  49.306  1.00  0.00     0.019 C 
HETATM   24  C18 UNL     1      30.156   8.075  48.975  1.00  0.00     0.117 C 
ENDBRANCH  18  19
ENDBRANCH  17  18
ENDBRANCH  14  17
ENDBRANCH   8  11
BRANCH   1  25
HETATM   25  N1  UNL     1      25.174   0.471  53.555  1.00  0.00    -0.367 N 
HETATM   26  H5  UNL     1      24.918   1.047  54.413  1.00  0.00     0.161 HD
BRANCH  25  27
HETATM   27  C4  UNL     1      26.498  -0.151  53.473  1.00  0.00     0.107 A 
HETATM   28  C3  UNL     1      26.766   0.887  54.187  1.00  0.00     0.037 A 
HETATM   29  C2  UNL     1      28.050   0.052  53.953  1.00  0.00     0.029 A 
HETATM   30  C1  UNL     1      29.067   0.682  54.569  1.00  0.00     0.156 C 
HETATM   31 BR1  UNL     1      29.675  -0.950  53.688  1.00  0.00    -0.194 Br
ENDBRANCH  25  27
ENDBRANCH   1  25
TORSDOF 6
ENDMDL
MODEL 6
REMARK VINA RESULT:      -8.0      4.332      9.685
REMARK  6 active torsions:
REMARK  status: ('A' for Active; 'I' for Inactive)
REMARK    1  A    between atoms: C4_5  and  N1_6 
REMARK    2  A    between atoms: N1_6  and  C5_7 
REMARK    3  A    between atoms: C10_14  and  N4_15 
REMARK       I    between atoms: N4_15  and  C11_16 
REMARK       I    between atoms: C11_16  and  N5_18 
REMARK    4  A    between atoms: N5_18  and  C12_19 
REMARK    5  A    between atoms: C12_19  and  C13_20 
REMARK    6  A    between atoms: C13_20  and  N6_21 
ROOT
HETATM    1  C5  UNL     1      33.223   8.130  47.657  1.00  0.00     0.138 A 
HETATM    2  N2  UNL     1      34.276   8.360  46.830  1.00  0.00    -0.224 NA
HETATM    3  C6  UNL     1      34.395   9.632  46.334  1.00  0.00     0.235 A 
HETATM    4  N3  UNL     1      33.521  10.586  46.651  1.00  0.00    -0.241 NA
HETATM    5  C7  UNL     1      32.457  10.357  47.483  1.00  0.00     0.072 A 
HETATM    6  C8  UNL     1      31.461  11.241  47.904  1.00  0.00     0.035 A 
HETATM    7  C9  UNL     1      30.459  10.837  48.743  1.00  0.00     0.032 A 
HETATM    8  C10 UNL     1      30.371   9.540  49.223  1.00  0.00     0.037 A 
HETATM    9  C19 UNL     1      31.335   8.625  48.831  1.00  0.00     0.047 A 
HETATM   10  C20 UNL     1      32.317   9.086  47.995  1.00  0.00     0.041 A 
ENDROOT
BRANCH   8  11
HETATM   11  N4  UNL     1      29.217   9.500  50.042  1.00  0.00    -0.309 N 
HETATM   12  C11 UNL     1      27.923   8.966  49.736  1.00  0.00     0.320 C 
HETATM   13  O1  UNL     1      27.893   8.415  48.590  1.00  0.00    -0.247 OA
HETATM   14  N5  UNL     1      26.750   9.004  50.565  1.00  0.00    -0.341 N 
HETATM   15  H10 UNL     1      27.031   9.532  51.420  1.00  0.00     0.164 HD
HETATM   16  H9  UNL     1      29.280   9.898  51.003  1.00  0.00     0.170 HD
BRANCH  14  17
HETATM   17  C12 UNL     1      25.701   8.303  49.870  1.00  0.00     0.143 C 
BRANCH  17  18
HETATM   18  C13 UNL     1      25.097   7.145  50.563  1.00  0.00     0.136 C 
BRANCH  18  19
HETATM   19  N6  UNL     1      25.439   5.831  50.208  1.00  0.00    -0.411 N 
HETATM   20  C14 UNL     1      26.372   5.741  49.112  1.00  0.00     0.117 C 
HETATM   21  C15 UNL     1      27.039   4.433  48.906  1.00  0.00     0.019 C 
HETATM   22  C16 UNL     1      26.518   3.312  49.747  1.00  0.00     0.003 C 
HETATM   23  C17 UNL     1      25.046   3.433  49.893  1.00  0.00     0.019 C 
HETATM   24  C18 UNL     1      24.581   4.768  50.419  1.00  0.00     0.117 C 
ENDBRANCH  18  19
ENDBRANCH  17  18
ENDBRANCH  14  17
ENDBRANCH   8  11
BRANCH   1  25
HETATM   25  N1  UNL     1      33.158   6.727  48.016  1.00  0.00    -0.367 N 
HETATM   26  H5  UNL     1      33.613   6.810  48.975  1.00  0.00     0.161 HD
BRANCH  25  27
HETATM   27  C4  UNL     1      32.735   5.411  47.530  1.00  0.00     0.107 A 
HETATM   28  C3  UNL     1      33.818   5.099  48.153  1.00  0.00     0.037 A 
HETATM   29  C2  UNL     1      33.175   3.834  47.529  1.00  0.00     0.029 A 
HETATM   30  C1  UNL     1      33.963   2.784  47.827  1.00  0.00     0.156 C 
HETATM   31 BR1  UNL     1      32.416   2.233  46.772  1.00  0.00    -0.194 Br
ENDBRANCH  25  27
ENDBRANCH   1  25
TORSDOF 6
ENDMDL
MODEL 7
REMARK VINA RESULT:      -7.9      4.787      9.278
REMARK  6 active torsions:
REMARK  status: ('A' for Active; 'I' for Inactive)
REMARK    1  A    between atoms: C4_5  and  N1_6 
REMARK    2  A    between atoms: N1_6  and  C5_7 
REMARK    3  A    between atoms: C10_14  and  N4_15 
REMARK       I    between atoms: N4_15  and  C11_16 
REMARK       I    between atoms: C11_16  and  N5_18 
REMARK    4  A    between atoms: N5_18  and  C12_19 
REMARK    5  A    between atoms: C12_19  and  C13_20 
REMARK    6  A    between atoms: C13_20  and  N6_21 
ROOT
HETATM    1  C5  UNL     1      23.788   0.848  52.172  1.00  0.00     0.138 A 
HETATM    2  N2  UNL     1      25.120   1.110  52.117  1.00  0.00    -0.224 NA
HETATM    3  C6  UNL     1      25.896   0.535  53.090  1.00  0.00     0.235 A 
HETATM    4  N3  UNL     1      25.364  -0.241  54.034  1.00  0.00    -0.241 NA
HETATM    5  C7  UNL     1      24.021  -0.506  54.093  1.00  0.00     0.072 A 
HETATM    6  C8  UNL     1      23.316  -1.287  55.013  1.00  0.00     0.035 A 
HETATM    7  C9  UNL     1      21.960  -1.441  54.923  1.00  0.00     0.032 A 
HETATM    8  C10 UNL     1      21.209  -0.841  53.925  1.00  0.00     0.037 A 
HETATM    9  C19 UNL     1      21.863  -0.055  52.990  1.00  0.00     0.047 A 
HETATM   10  C20 UNL     1      23.222   0.061  53.126  1.00  0.00     0.041 A 
ENDROOT
BRANCH   8  11
HETATM   11  N4  UNL     1      19.866  -1.219  54.161  1.00  0.00    -0.309 N 
HETATM   12  C11 UNL     1      18.719  -1.003  53.331  1.00  0.00     0.320 C 
HETATM   13  O1  UNL     1      19.027  -0.452  52.226  1.00  0.00    -0.247 OA
HETATM   14  N5  UNL     1      17.354  -1.337  53.632  1.00  0.00    -0.341 N 
HETATM   15  H10 UNL     1      17.372  -1.738  54.594  1.00  0.00     0.164 HD
HETATM   16  H9  UNL     1      19.644  -1.728  55.043  1.00  0.00     0.170 HD
BRANCH  14  17
HETATM   17  C12 UNL     1      16.555  -0.982  52.487  1.00  0.00     0.143 C 
BRANCH  17  18
HETATM   18  C13 UNL     1      15.389  -0.105  52.731  1.00  0.00     0.136 C 
BRANCH  18  19
HETATM   19  N6  UNL     1      15.458   1.275  52.482  1.00  0.00    -0.411 N 
HETATM   20  C14 UNL     1      14.289   2.008  52.901  1.00  0.00     0.117 C 
HETATM   21  C15 UNL     1      14.421   3.482  52.991  1.00  0.00     0.019 C 
HETATM   22  C16 UNL     1      15.698   4.043  52.455  1.00  0.00     0.003 C 
HETATM   23  C17 UNL     1      16.113   3.287  51.247  1.00  0.00     0.019 C 
HETATM   24  C18 UNL     1      16.218   1.796  51.452  1.00  0.00     0.117 C 
ENDBRANCH  18  19
ENDBRANCH  17  18
ENDBRANCH  14  17
ENDBRANCH   8  11
BRANCH   1  25
HETATM   25  N1  UNL     1      23.081   1.603  51.157  1.00  0.00    -0.367 N 
HETATM   26  H5  UNL     1      22.264   0.933  51.031  1.00  0.00     0.161 HD
BRANCH  25  27
HETATM   27  C4  UNL     1      23.142   2.825  50.351  1.00  0.00     0.107 A 
HETATM   28  C3  UNL     1      22.498   2.045  49.554  1.00  0.00     0.037 A 
HETATM   29  C2  UNL     1      22.696   3.435  48.898  1.00  0.00     0.029 A 
HETATM   30  C1  UNL     1      22.134   3.396  47.676  1.00  0.00     0.156 C 
HETATM   31 BR1  UNL     1      22.919   5.145  48.038  1.00  0.00    -0.194 Br
ENDBRANCH  25  27
ENDBRANCH   1  25
TORSDOF 6
ENDMDL
MODEL 8
REMARK VINA RESULT:      -7.9      4.564      8.701
REMARK  6 active torsions:
REMARK  status: ('A' for Active; 'I' for Inactive)
REMARK    1  A    between atoms: C4_5  and  N1_6 
REMARK    2  A    between atoms: N1_6  and  C5_7 
REMARK    3  A    between atoms: C10_14  and  N4_15 
REMARK       I    between atoms: N4_15  and  C11_16 
REMARK       I    between atoms: C11_16  and  N5_18 
REMARK    4  A    between atoms: N5_18  and  C12_19 
REMARK    5  A    between atoms: C12_19  and  C13_20 
REMARK    6  A    between atoms: C13_20  and  N6_21 
ROOT
HETATM    1  C5  UNL     1      24.993   1.745  51.880  1.00  0.00     0.138 A 
HETATM    2  N2  UNL     1      26.161   1.425  52.495  1.00  0.00    -0.224 NA
HETATM    3  C6  UNL     1      26.097   0.447  53.454  1.00  0.00     0.235 A 
HETATM    4  N3  UNL     1      24.947  -0.153  53.758  1.00  0.00    -0.241 NA
HETATM    5  C7  UNL     1      23.768   0.168  53.140  1.00  0.00     0.072 A 
HETATM    6  C8  UNL     1      22.491  -0.360  53.347  1.00  0.00     0.035 A 
HETATM    7  C9  UNL     1      21.412   0.087  52.636  1.00  0.00     0.032 A 
HETATM    8  C10 UNL     1      21.516   1.080  51.676  1.00  0.00     0.037 A 
HETATM    9  C19 UNL     1      22.761   1.637  51.436  1.00  0.00     0.047 A 
HETATM   10  C20 UNL     1      23.807   1.148  52.173  1.00  0.00     0.041 A 
ENDROOT
BRANCH   8  11
HETATM   11  N4  UNL     1      20.209   1.276  51.168  1.00  0.00    -0.309 N 
HETATM   12  C11 UNL     1      19.249   2.275  51.535  1.00  0.00     0.320 C 
HETATM   13  O1  UNL     1      19.718   3.097  52.385  1.00  0.00    -0.247 OA
HETATM   14  N5  UNL     1      17.903   2.404  51.051  1.00  0.00    -0.341 N 
HETATM   15  H10 UNL     1      17.762   1.599  50.403  1.00  0.00     0.164 HD
HETATM   16  H9  UNL     1      19.866   0.632  50.424  1.00  0.00     0.170 HD
BRANCH  14  17
HETATM   17  C12 UNL     1      17.331   3.578  51.658  1.00  0.00     0.143 C 
BRANCH  17  18
HETATM   18  C13 UNL     1      16.161   4.180  50.982  1.00  0.00     0.136 C 
BRANCH  18  19
HETATM   19  N6  UNL     1      14.903   4.205  51.603  1.00  0.00    -0.411 N 
HETATM   20  C14 UNL     1      14.945   3.996  53.030  1.00  0.00     0.117 C 
HETATM   21  C15 UNL     1      13.724   4.346  53.794  1.00  0.00     0.019 C 
HETATM   22  C16 UNL     1      12.531   4.697  52.965  1.00  0.00     0.003 C 
HETATM   23  C17 UNL     1      12.485   3.836  51.757  1.00  0.00     0.019 C 
HETATM   24  C18 UNL     1      13.746   3.858  50.930  1.00  0.00     0.117 C 
ENDBRANCH  18  19
ENDBRANCH  17  18
ENDBRANCH  14  17
ENDBRANCH   8  11
BRANCH   1  25
HETATM   25  N1  UNL     1      25.187   2.861  50.976  1.00  0.00    -0.367 N 
HETATM   26  H5  UNL     1      24.164   3.144  50.885  1.00  0.00     0.161 HD
BRANCH  25  27
HETATM   27  C4  UNL     1      26.209   3.608  50.237  1.00  0.00     0.107 A 
HETATM   28  C3  UNL     1      25.173   4.342  50.020  1.00  0.00     0.037 A 
HETATM   29  C2  UNL     1      26.414   4.943  49.312  1.00  0.00     0.029 A 
HETATM   30  C1  UNL     1      26.020   6.059  48.671  1.00  0.00     0.156 C 
HETATM   31 BR1  UNL     1      27.925   5.728  48.411  1.00  0.00    -0.194 Br
ENDBRANCH  25  27
ENDBRANCH   1  25
TORSDOF 6
ENDMDL
MODEL 9
REMARK VINA RESULT:      -7.8      3.371      5.666
REMARK  6 active torsions:
REMARK  status: ('A' for Active; 'I' for Inactive)
REMARK    1  A    between atoms: C4_5  and  N1_6 
REMARK    2  A    between atoms: N1_6  and  C5_7 
REMARK    3  A    between atoms: C10_14  and  N4_15 
REMARK       I    between atoms: N4_15  and  C11_16 
REMARK       I    between atoms: C11_16  and  N5_18 
REMARK    4  A    between atoms: N5_18  and  C12_19 
REMARK    5  A    between atoms: C12_19  and  C13_20 
REMARK    6  A    between atoms: C13_20  and  N6_21 
ROOT
HETATM    1  C5  UNL     1      21.018   0.746  53.292  1.00  0.00     0.138 A 
HETATM    2  N2  UNL     1      20.168  -0.217  53.736  1.00  0.00    -0.224 NA
HETATM    3  C6  UNL     1      20.744  -1.357  54.233  1.00  0.00     0.235 A 
HETATM    4  N3  UNL     1      22.068  -1.504  54.277  1.00  0.00    -0.241 NA
HETATM    5  C7  UNL     1      22.927  -0.536  53.829  1.00  0.00     0.072 A 
HETATM    6  C8  UNL     1      24.324  -0.541  53.803  1.00  0.00     0.035 A 
HETATM    7  C9  UNL     1      25.030   0.522  53.311  1.00  0.00     0.032 A 
HETATM    8  C10 UNL     1      24.412   1.658  52.814  1.00  0.00     0.037 A 
HETATM    9  C19 UNL     1      23.027   1.709  52.816  1.00  0.00     0.047 A 
HETATM   10  C20 UNL     1      22.372   0.619  53.325  1.00  0.00     0.041 A 
ENDROOT
BRANCH   8  11
HETATM   11  N4  UNL     1      25.451   2.523  52.395  1.00  0.00    -0.309 N 
HETATM   12  C11 UNL     1      25.711   3.037  51.084  1.00  0.00     0.320 C 
HETATM   13  O1  UNL     1      24.819   2.684  50.248  1.00  0.00    -0.247 OA
HETATM   14  N5  UNL     1      26.818   3.858  50.676  1.00  0.00    -0.341 N 
HETATM   15  H10 UNL     1      27.408   3.970  51.529  1.00  0.00     0.164 HD
HETATM   16  H9  UNL     1      26.135   2.854  53.109  1.00  0.00     0.170 HD
BRANCH  14  17
HETATM   17  C12 UNL     1      26.638   4.172  49.282  1.00  0.00     0.143 C 
BRANCH  17  18
HETATM   18  C13 UNL     1      26.248   5.560  48.954  1.00  0.00     0.136 C 
BRANCH  18  19
HETATM   19  N6  UNL     1      25.088   6.132  49.498  1.00  0.00    -0.411 N 
HETATM   20  C14 UNL     1      23.902   5.932  48.701  1.00  0.00     0.117 C 
HETATM   21  C15 UNL     1      22.601   6.197  49.360  1.00  0.00     0.019 C 
HETATM   22  C16 UNL     1      22.687   6.821  50.716  1.00  0.00     0.003 C 
HETATM   23  C17 UNL     1      23.801   7.800  50.750  1.00  0.00     0.019 C 
HETATM   24  C18 UNL     1      25.135   7.239  50.325  1.00  0.00     0.117 C 
ENDBRANCH  18  19
ENDBRANCH  17  18
ENDBRANCH  14  17
ENDBRANCH   8  11
BRANCH   1  25
HETATM   25  N1  UNL     1      20.277   1.840  52.697  1.00  0.00    -0.367 N 
HETATM   26  H5  UNL     1      20.453   2.558  53.463  1.00  0.00     0.161 HD
BRANCH  25  27
HETATM   27  C4  UNL     1      19.461   2.209  51.537  1.00  0.00     0.107 A 
HETATM   28  C3  UNL     1      19.975   3.350  51.839  1.00  0.00     0.037 A 
HETATM   29  C2  UNL     1      19.040   3.493  50.612  1.00  0.00     0.029 A 
HETATM   30  C1  UNL     1      19.047   4.786  50.239  1.00  0.00     0.156 C 
HETATM   31 BR1  UNL     1      17.887   3.722  49.085  1.00  0.00    -0.194 Br
ENDBRANCH  25  27
ENDBRANCH   1  25
TORSDOF 6
ENDMDL
