MODEL 1
REMARK VINA RESULT:      -8.2      0.000      0.000
REMARK  5 active torsions:
REMARK  status: ('A' for Active; 'I' for Inactive)
REMARK    1  A    between atoms: O1_2  and  C2_3 
REMARK    2  A    between atoms: C6_9  and  N3_10 
REMARK    3  A    between atoms: C11_16  and  S1_17 
REMARK    4  A    between atoms: S1_17  and  C12_18 
REMARK    5  A    between atoms: C21_27  and  O2_28 
ROOT
HETATM    1  N3  UNL     1      22.127   1.456  51.665  1.00  0.00    -0.348 N 
HETATM    2  C7  UNL     1      22.071   1.332  50.225  1.00  0.00     0.152 C 
HETATM    3  C8  UNL     1      20.694   1.099  49.719  1.00  0.00    -0.009 C 
HETATM    4  C9  UNL     1      19.703   1.587  50.451  1.00  0.00     0.000 C 
HETATM    5  C10 UNL     1      19.813   2.348  51.733  1.00  0.00     0.161 A 
HETATM    6  N4  UNL     1      20.045   3.704  51.451  1.00  0.00    -0.273 NA
HETATM    7  C11 UNL     1      21.169   3.705  51.961  1.00  0.00     0.096 A 
HETATM    8  C18 UNL     1      21.139   2.315  52.347  1.00  0.00     0.173 A 
ENDROOT
BRANCH   1   9
HETATM    9  C6  UNL     1      23.094   0.803  52.517  1.00  0.00     0.140 A 
HETATM   10  N2  UNL     1      22.487  -0.109  53.327  1.00  0.00    -0.224 NA
HETATM   11  C5  UNL     1      23.206  -0.844  54.227  1.00  0.00     0.236 A 
HETATM   12  N1  UNL     1      24.542  -0.663  54.315  1.00  0.00    -0.241 NA
HETATM   13  C4  UNL     1      25.160   0.231  53.525  1.00  0.00     0.075 A 
HETATM   14  C3  UNL     1      26.536   0.482  53.546  1.00  0.00     0.072 A 
HETATM   15  C19 UNL     1      24.456   0.984  52.610  1.00  0.00     0.041 A 
HETATM   16  C2  UNL     1      27.098   1.425  52.693  1.00  0.00     0.103 A 
HETATM   17  C21 UNL     1      26.318   2.149  51.791  1.00  0.00     0.102 A 
HETATM   18  C20 UNL     1      24.949   1.928  51.739  1.00  0.00     0.057 A 
BRANCH  16  19
HETATM   19  O1  UNL     1      28.483   1.646  52.747  1.00  0.00    -0.353 OA
HETATM   20  C1  UNL     1      29.138   1.180  53.932  1.00  0.00     0.210 C 
ENDBRANCH  16  19
BRANCH  17  21
HETATM   21  O2  UNL     1      26.977   3.051  50.997  1.00  0.00    -0.353 OA
HETATM   22  C22 UNL     1      26.563   3.308  49.653  1.00  0.00     0.210 C 
ENDBRANCH  17  21
ENDBRANCH   1   9
BRANCH   7  23
HETATM   23  S1  UNL     1      22.562   4.771  52.289  1.00  0.00    -0.073 SA
BRANCH  23  24
HETATM   24  C12 UNL     1      23.343   5.312  50.781  1.00  0.00     0.006 A 
HETATM   25  C13 UNL     1      24.354   6.242  50.993  1.00  0.00     0.019 A 
HETATM   26  C14 UNL     1      25.082   6.786  49.956  1.00  0.00     0.001 A 
HETATM   27  C15 UNL     1      24.794   6.392  48.660  1.00  0.00     0.000 A 
HETATM   28  C16 UNL     1      23.790   5.470  48.446  1.00  0.00     0.001 A 
HETATM   29  C17 UNL     1      23.058   4.921  49.472  1.00  0.00     0.019 A 
ENDBRANCH  23  24
ENDBRANCH   7  23
TORSDOF 5
ENDMDL
MODEL 2
REMARK VINA RESULT:      -8.2      2.093      3.427
REMARK  5 active torsions:
REMARK  status: ('A' for Active; 'I' for Inactive)
REMARK    1  A    between atoms: O1_2  and  C2_3 
REMARK    2  A    between atoms: C6_9  and  N3_10 
REMARK    3  A    between atoms: C11_16  and  S1_17 
REMARK    4  A    between atoms: S1_17  and  C12_18 
REMARK    5  A    between atoms: C21_27  and  O2_28 
ROOT
HETATM    1  N3  UNL     1      22.733   1.866  51.406  1.00  0.00    -0.348 N 
HETATM    2  C7  UNL     1      21.977   1.037  50.493  1.00  0.00     0.152 C 
HETATM    3  C8  UNL     1      20.941   0.221  51.177  1.00  0.00    -0.009 C 
HETATM    4  C9  UNL     1      20.443   0.716  52.300  1.00  0.00     0.000 C 
HETATM    5  C10 UNL     1      20.805   2.007  52.961  1.00  0.00     0.161 A 
HETATM    6  N4  UNL     1      20.071   3.052  52.375  1.00  0.00    -0.273 NA
HETATM    7  C11 UNL     1      21.071   3.609  51.915  1.00  0.00     0.096 A 
HETATM    8  C18 UNL     1      22.009   2.643  52.431  1.00  0.00     0.173 A 
ENDROOT
BRANCH   1   9
HETATM    9  C6  UNL     1      24.171   2.010  51.399  1.00  0.00     0.140 A 
HETATM   10  N2  UNL     1      24.563   2.906  50.452  1.00  0.00    -0.224 NA
HETATM   11  C5  UNL     1      25.883   3.197  50.257  1.00  0.00     0.236 A 
HETATM   12  N1  UNL     1      26.817   2.585  51.019  1.00  0.00    -0.241 NA
HETATM   13  C4  UNL     1      26.451   1.698  51.960  1.00  0.00     0.075 A 
HETATM   14  C3  UNL     1      27.347   1.019  52.793  1.00  0.00     0.072 A 
HETATM   15  C19 UNL     1      25.125   1.388  52.174  1.00  0.00     0.041 A 
HETATM   16  C2  UNL     1      26.885   0.116  53.744  1.00  0.00     0.103 A 
HETATM   17  C21 UNL     1      25.524  -0.145  53.902  1.00  0.00     0.102 A 
HETATM   18  C20 UNL     1      24.604   0.508  53.094  1.00  0.00     0.057 A 
BRANCH  16  19
HETATM   19  O1  UNL     1      27.818  -0.543  54.559  1.00  0.00    -0.353 OA
HETATM   20  C1  UNL     1      29.173  -0.514  54.098  1.00  0.00     0.210 C 
ENDBRANCH  16  19
BRANCH  17  21
HETATM   21  O2  UNL     1      25.182  -1.053  54.870  1.00  0.00    -0.353 OA
HETATM   22  C22 UNL     1      23.822  -1.245  55.269  1.00  0.00     0.210 C 
ENDBRANCH  17  21
ENDBRANCH   1   9
BRANCH   7  23
HETATM   23  S1  UNL     1      21.571   5.031  50.958  1.00  0.00    -0.073 SA
BRANCH  23  24
HETATM   24  C12 UNL     1      21.563   4.681  49.211  1.00  0.00     0.006 A 
HETATM   25  C13 UNL     1      20.511   3.859  48.823  1.00  0.00     0.019 A 
HETATM   26  C14 UNL     1      20.327   3.470  47.514  1.00  0.00     0.001 A 
HETATM   27  C15 UNL     1      21.221   3.912  46.553  1.00  0.00     0.000 A 
HETATM   28  C16 UNL     1      22.267   4.727  46.935  1.00  0.00     0.001 A 
HETATM   29  C17 UNL     1      22.461   5.122  48.237  1.00  0.00     0.019 A 
ENDBRANCH  23  24
ENDBRANCH   7  23
TORSDOF 5
ENDMDL
MODEL 3
REMARK VINA RESULT:      -8.1      2.931      5.542
REMARK  5 active torsions:
REMARK  status: ('A' for Active; 'I' for Inactive)
REMARK    1  A    between atoms: O1_2  and  C2_3 
REMARK    2  A    between atoms: C6_9  and  N3_10 
REMARK    3  A    between atoms: C11_16  and  S1_17 
REMARK    4  A    between atoms: S1_17  and  C12_18 
REMARK    5  A    between atoms: C21_27  and  O2_28 
ROOT
HETATM    1  N3  UNL     1      22.409   0.988  52.420  1.00  0.00    -0.348 N 
HETATM    2  C7  UNL     1      22.182   2.415  52.341  1.00  0.00     0.152 C 
HETATM    3  C8  UNL     1      22.049   2.900  50.943  1.00  0.00    -0.009 C 
HETATM    4  C9  UNL     1      21.582   2.035  50.056  1.00  0.00     0.000 C 
HETATM    5  C10 UNL     1      21.172   0.618  50.301  1.00  0.00     0.161 A 
HETATM    6  N4  UNL     1      19.848   0.590  50.771  1.00  0.00    -0.273 NA
HETATM    7  C11 UNL     1      20.161   0.143  51.878  1.00  0.00     0.096 A 
HETATM    8  C18 UNL     1      21.576   0.086  51.601  1.00  0.00     0.173 A 
ENDROOT
BRANCH   1   9
HETATM    9  C6  UNL     1      23.400   0.351  53.257  1.00  0.00     0.140 A 
HETATM   10  N2  UNL     1      22.812  -0.511  54.131  1.00  0.00    -0.224 NA
HETATM   11  C5  UNL     1      23.555  -1.223  55.030  1.00  0.00     0.236 A 
HETATM   12  N1  UNL     1      24.898  -1.069  55.051  1.00  0.00    -0.241 NA
HETATM   13  C4  UNL     1      25.498  -0.223  54.196  1.00  0.00     0.075 A 
HETATM   14  C3  UNL     1      26.878  -0.001  54.146  1.00  0.00     0.072 A 
HETATM   15  C19 UNL     1      24.768   0.506  53.281  1.00  0.00     0.041 A 
HETATM   16  C2  UNL     1      27.420   0.892  53.228  1.00  0.00     0.103 A 
HETATM   17  C21 UNL     1      26.615   1.594  52.331  1.00  0.00     0.102 A 
HETATM   18  C20 UNL     1      25.240   1.401  52.349  1.00  0.00     0.057 A 
BRANCH  16  19
HETATM   19  O1  UNL     1      28.809   1.084  53.211  1.00  0.00    -0.353 OA
HETATM   20  C1  UNL     1      29.589   0.017  53.762  1.00  0.00     0.210 C 
ENDBRANCH  16  19
BRANCH  17  21
HETATM   21  O2  UNL     1      27.256   2.447  51.470  1.00  0.00    -0.353 OA
HETATM   22  C22 UNL     1      26.542   3.170  50.464  1.00  0.00     0.210 C 
ENDBRANCH  17  21
ENDBRANCH   1   9
BRANCH   7  23
HETATM   23  S1  UNL     1      19.457  -0.361  53.439  1.00  0.00    -0.073 SA
BRANCH  23  24
HETATM   24  C12 UNL     1      18.106  -1.500  53.211  1.00  0.00     0.006 A 
HETATM   25  C13 UNL     1      17.051  -0.957  52.485  1.00  0.00     0.019 A 
HETATM   26  C14 UNL     1      15.909  -1.675  52.200  1.00  0.00     0.001 A 
HETATM   27  C15 UNL     1      15.810  -2.980  52.653  1.00  0.00     0.000 A 
HETATM   28  C16 UNL     1      16.855  -3.522  53.374  1.00  0.00     0.001 A 
HETATM   29  C17 UNL     1      17.998  -2.816  53.665  1.00  0.00     0.019 A 
ENDBRANCH  23  24
ENDBRANCH   7  23
TORSDOF 5
ENDMDL
MODEL 4
REMARK VINA RESULT:      -7.9      1.891      3.113
REMARK  5 active torsions:
REMARK  status: ('A' for Active; 'I' for Inactive)
REMARK    1  A    between atoms: O1_2  and  C2_3 
REMARK    2  A    between atoms: C6_9  and  N3_10 
REMARK    3  A    between atoms: C11_16  and  S1_17 
REMARK    4  A    between atoms: S1_17  and  C12_18 
REMARK    5  A    between atoms: C21_27  and  O2_28 
ROOT
HETATM    1  N3  UNL     1      22.847   1.941  51.412  1.00  0.00    -0.348 N 
HETATM    2  C7  UNL     1      22.114   0.762  51.006  1.00  0.00     0.152 C 
HETATM    3  C8  UNL     1      21.035   0.398  51.960  1.00  0.00    -0.009 C 
HETATM    4  C9  UNL     1      20.499   1.389  52.656  1.00  0.00     0.000 C 
HETATM    5  C10 UNL     1      20.859   2.839  52.592  1.00  0.00     0.161 A 
HETATM    6  N4  UNL     1      20.170   3.443  51.527  1.00  0.00    -0.273 NA
HETATM    7  C11 UNL     1      21.200   3.696  50.895  1.00  0.00     0.096 A 
HETATM    8  C18 UNL     1      22.096   3.126  51.871  1.00  0.00     0.173 A 
ENDROOT
BRANCH   1   9
HETATM    9  C6  UNL     1      24.287   2.068  51.400  1.00  0.00     0.140 A 
HETATM   10  N2  UNL     1      24.686   2.959  50.450  1.00  0.00    -0.224 NA
HETATM   11  C5  UNL     1      26.009   3.234  50.251  1.00  0.00     0.236 A 
HETATM   12  N1  UNL     1      26.938   2.612  51.010  1.00  0.00    -0.241 NA
HETATM   13  C4  UNL     1      26.565   1.730  51.953  1.00  0.00     0.075 A 
HETATM   14  C3  UNL     1      27.456   1.042  52.784  1.00  0.00     0.072 A 
HETATM   15  C19 UNL     1      25.236   1.436  52.171  1.00  0.00     0.041 A 
HETATM   16  C2  UNL     1      26.987   0.145  53.737  1.00  0.00     0.103 A 
HETATM   17  C21 UNL     1      25.623  -0.100  53.900  1.00  0.00     0.102 A 
HETATM   18  C20 UNL     1      24.708   0.563  53.095  1.00  0.00     0.057 A 
BRANCH  16  19
HETATM   19  O1  UNL     1      27.914  -0.524  54.550  1.00  0.00    -0.353 OA
HETATM   20  C1  UNL     1      29.224  -0.683  53.993  1.00  0.00     0.210 C 
ENDBRANCH  16  19
BRANCH  17  21
HETATM   21  O2  UNL     1      25.274  -1.002  54.871  1.00  0.00    -0.353 OA
HETATM   22  C22 UNL     1      23.912  -1.185  55.267  1.00  0.00     0.210 C 
ENDBRANCH  17  21
ENDBRANCH   1   9
BRANCH   7  23
HETATM   23  S1  UNL     1      21.767   4.444  49.377  1.00  0.00    -0.073 SA
BRANCH  23  24
HETATM   24  C12 UNL     1      22.819   5.847  49.691  1.00  0.00     0.006 A 
HETATM   25  C13 UNL     1      23.820   6.003  48.738  1.00  0.00     0.019 A 
HETATM   26  C14 UNL     1      24.740   7.028  48.800  1.00  0.00     0.001 A 
HETATM   27  C15 UNL     1      24.664   7.932  49.846  1.00  0.00     0.000 A 
HETATM   28  C16 UNL     1      23.673   7.780  50.794  1.00  0.00     0.001 A 
HETATM   29  C17 UNL     1      22.750   6.761  50.744  1.00  0.00     0.019 A 
ENDBRANCH  23  24
ENDBRANCH   7  23
TORSDOF 5
ENDMDL
MODEL 5
REMARK VINA RESULT:      -7.6      1.854      4.195
REMARK  5 active torsions:
REMARK  status: ('A' for Active; 'I' for Inactive)
REMARK    1  A    between atoms: O1_2  and  C2_3 
REMARK    2  A    between atoms: C6_9  and  N3_10 
REMARK    3  A    between atoms: C11_16  and  S1_17 
REMARK    4  A    between atoms: S1_17  and  C12_18 
REMARK    5  A    between atoms: C21_27  and  O2_28 
ROOT
HETATM    1  N3  UNL     1      23.390   2.650  51.456  1.00  0.00    -0.348 N 
HETATM    2  C7  UNL     1      22.792   3.864  51.966  1.00  0.00     0.152 C 
HETATM    3  C8  UNL     1      23.571   5.080  51.619  1.00  0.00    -0.009 C 
HETATM    4  C9  UNL     1      24.286   5.029  50.505  1.00  0.00     0.000 C 
HETATM    5  C10 UNL     1      24.400   3.882  49.553  1.00  0.00     0.161 A 
HETATM    6  N4  UNL     1      23.319   3.912  48.656  1.00  0.00    -0.273 NA
HETATM    7  C11 UNL     1      22.842   2.849  49.063  1.00  0.00     0.096 A 
HETATM    8  C18 UNL     1      23.862   2.620  50.057  1.00  0.00     0.173 A 
ENDROOT
BRANCH   1   9
HETATM    9  C6  UNL     1      23.564   1.430  52.210  1.00  0.00     0.140 A 
HETATM   10  N2  UNL     1      22.367   0.812  52.413  1.00  0.00    -0.224 NA
HETATM   11  C5  UNL     1      22.285  -0.359  53.112  1.00  0.00     0.236 A 
HETATM   12  N1  UNL     1      23.412  -0.914  53.611  1.00  0.00    -0.241 NA
HETATM   13  C4  UNL     1      24.603  -0.321  53.421  1.00  0.00     0.075 A 
HETATM   14  C3  UNL     1      25.818  -0.823  53.899  1.00  0.00     0.072 A 
HETATM   15  C19 UNL     1      24.710   0.861  52.719  1.00  0.00     0.041 A 
HETATM   16  C2  UNL     1      27.008  -0.147  53.658  1.00  0.00     0.103 A 
HETATM   17  C21 UNL     1      27.037   1.047  52.936  1.00  0.00     0.102 A 
HETATM   18  C20 UNL     1      25.852   1.577  52.446  1.00  0.00     0.057 A 
BRANCH  16  19
HETATM   19  O1  UNL     1      28.205  -0.686  54.155  1.00  0.00    -0.353 OA
HETATM   20  C1  UNL     1      28.894  -1.581  53.274  1.00  0.00     0.210 C 
ENDBRANCH  16  19
BRANCH  17  21
HETATM   21  O2  UNL     1      28.266   1.626  52.758  1.00  0.00    -0.353 OA
HETATM   22  C22 UNL     1      28.830   2.501  53.739  1.00  0.00     0.210 C 
ENDBRANCH  17  21
ENDBRANCH   1   9
BRANCH   7  23
HETATM   23  S1  UNL     1      21.479   1.728  48.797  1.00  0.00    -0.073 SA
BRANCH  23  24
HETATM   24  C12 UNL     1      20.100   2.109  49.859  1.00  0.00     0.006 A 
HETATM   25  C13 UNL     1      19.406   0.979  50.278  1.00  0.00     0.019 A 
HETATM   26  C14 UNL     1      18.306   1.058  51.106  1.00  0.00     0.001 A 
HETATM   27  C15 UNL     1      17.879   2.304  51.533  1.00  0.00     0.000 A 
HETATM   28  C16 UNL     1      18.565   3.428  51.119  1.00  0.00     0.001 A 
HETATM   29  C17 UNL     1      19.663   3.362  50.294  1.00  0.00     0.019 A 
ENDBRANCH  23  24
ENDBRANCH   7  23
TORSDOF 5
ENDMDL
MODEL 6
REMARK VINA RESULT:      -7.6      2.612      5.408
REMARK  5 active torsions:
REMARK  status: ('A' for Active; 'I' for Inactive)
REMARK    1  A    between atoms: O1_2  and  C2_3 
REMARK    2  A    between atoms: C6_9  and  N3_10 
REMARK    3  A    between atoms: C11_16  and  S1_17 
REMARK    4  A    between atoms: S1_17  and  C12_18 
REMARK    5  A    between atoms: C21_27  and  O2_28 
ROOT
HETATM    1  N3  UNL     1      22.945   3.956  50.841  1.00  0.00    -0.348 N 
HETATM    2  C7  UNL     1      22.415   4.800  51.889  1.00  0.00     0.152 C 
HETATM    3  C8  UNL     1      21.632   5.948  51.363  1.00  0.00    -0.009 C 
HETATM    4  C9  UNL     1      21.039   5.775  50.192  1.00  0.00     0.000 C 
HETATM    5  C10 UNL     1      21.066   4.552  49.334  1.00  0.00     0.161 A 
HETATM    6  N4  UNL     1      20.081   3.652  49.774  1.00  0.00    -0.273 NA
HETATM    7  C11 UNL     1      20.898   2.794  50.118  1.00  0.00     0.096 A 
HETATM    8  C18 UNL     1      22.060   3.556  49.729  1.00  0.00     0.173 A 
ENDROOT
BRANCH   1   9
HETATM    9  C6  UNL     1      24.298   3.450  50.787  1.00  0.00     0.140 A 
HETATM   10  N2  UNL     1      25.059   4.194  49.938  1.00  0.00    -0.224 NA
HETATM   11  C5  UNL     1      26.374   3.895  49.721  1.00  0.00     0.236 A 
HETATM   12  N1  UNL     1      26.930   2.842  50.361  1.00  0.00    -0.241 NA
HETATM   13  C4  UNL     1      26.196   2.095  51.203  1.00  0.00     0.075 A 
HETATM   14  C3  UNL     1      26.686   0.990  51.907  1.00  0.00     0.072 A 
HETATM   15  C19 UNL     1      24.867   2.378  51.437  1.00  0.00     0.041 A 
HETATM   16  C2  UNL     1      25.860   0.270  52.762  1.00  0.00     0.103 A 
HETATM   17  C21 UNL     1      24.521   0.619  52.948  1.00  0.00     0.102 A 
HETATM   18  C20 UNL     1      23.998   1.709  52.267  1.00  0.00     0.057 A 
BRANCH  16  19
HETATM   19  O1  UNL     1      26.392  -0.831  53.450  1.00  0.00    -0.353 OA
HETATM   20  C1  UNL     1      26.860  -1.906  52.628  1.00  0.00     0.210 C 
ENDBRANCH  16  19
BRANCH  17  21
HETATM   21  O2  UNL     1      23.800  -0.160  53.815  1.00  0.00    -0.353 OA
HETATM   22  C22 UNL     1      22.728  -0.990  53.359  1.00  0.00     0.210 C 
ENDBRANCH  17  21
ENDBRANCH   1   9
BRANCH   7  23
HETATM   23  S1  UNL     1      21.004   1.162  50.834  1.00  0.00    -0.073 SA
BRANCH  23  24
HETATM   24  C12 UNL     1      19.389   0.462  51.110  1.00  0.00     0.006 A 
HETATM   25  C13 UNL     1      19.286  -0.211  52.323  1.00  0.00     0.019 A 
HETATM   26  C14 UNL     1      18.119  -0.825  52.725  1.00  0.00     0.001 A 
HETATM   27  C15 UNL     1      17.013  -0.768  51.894  1.00  0.00     0.000 A 
HETATM   28  C16 UNL     1      17.111  -0.101  50.689  1.00  0.00     0.001 A 
HETATM   29  C17 UNL     1      18.270   0.514  50.277  1.00  0.00     0.019 A 
ENDBRANCH  23  24
ENDBRANCH   7  23
TORSDOF 5
ENDMDL
MODEL 7
REMARK VINA RESULT:      -7.5      2.399      4.554
REMARK  5 active torsions:
REMARK  status: ('A' for Active; 'I' for Inactive)
REMARK    1  A    between atoms: O1_2  and  C2_3 
REMARK    2  A    between atoms: C6_9  and  N3_10 
REMARK    3  A    between atoms: C11_16  and  S1_17 
REMARK    4  A    between atoms: S1_17  and  C12_18 
REMARK    5  A    between atoms: C21_27  and  O2_28 
ROOT
HETATM    1  N3  UNL     1      21.644   1.472  51.801  1.00  0.00    -0.348 N 
HETATM    2  C7  UNL     1      21.500   2.907  51.908  1.00  0.00     0.152 C 
HETATM    3  C8  UNL     1      22.025   3.629  50.721  1.00  0.00    -0.009 C 
HETATM    4  C9  UNL     1      22.001   2.976  49.570  1.00  0.00     0.000 C 
HETATM    5  C10 UNL     1      21.503   1.587  49.326  1.00  0.00     0.161 A 
HETATM    6  N4  UNL     1      20.111   1.617  49.143  1.00  0.00    -0.273 NA
HETATM    7  C11 UNL     1      19.878   0.962  50.163  1.00  0.00     0.096 A 
HETATM    8  C18 UNL     1      21.262   0.808  50.539  1.00  0.00     0.173 A 
ENDROOT
BRANCH   1   9
HETATM    9  C6  UNL     1      22.135   0.606  52.849  1.00  0.00     0.140 A 
HETATM   10  N2  UNL     1      21.106   0.116  53.593  1.00  0.00    -0.224 NA
HETATM   11  C5  UNL     1      21.332  -0.721  54.649  1.00  0.00     0.236 A 
HETATM   12  N1  UNL     1      22.601  -1.068  54.960  1.00  0.00    -0.241 NA
HETATM   13  C4  UNL     1      23.631  -0.595  54.238  1.00  0.00     0.075 A 
HETATM   14  C3  UNL     1      24.973  -0.902  54.486  1.00  0.00     0.072 A 
HETATM   15  C19 UNL     1      23.427   0.250  53.169  1.00  0.00     0.041 A 
HETATM   16  C2  UNL     1      25.981  -0.371  53.689  1.00  0.00     0.103 A 
HETATM   17  C21 UNL     1      25.694   0.480  52.621  1.00  0.00     0.102 A 
HETATM   18  C20 UNL     1      24.375   0.808  52.343  1.00  0.00     0.057 A 
BRANCH  16  19
HETATM   19  O1  UNL     1      27.314  -0.704  53.973  1.00  0.00    -0.353 OA
HETATM   20  C1  UNL     1      27.991   0.171  54.882  1.00  0.00     0.210 C 
ENDBRANCH  16  19
BRANCH  17  21
HETATM   21  O2  UNL     1      26.765   0.944  51.902  1.00  0.00    -0.353 OA
HETATM   22  C22 UNL     1      26.748   2.231  51.279  1.00  0.00     0.210 C 
ENDBRANCH  17  21
ENDBRANCH   1   9
BRANCH   7  23
HETATM   23  S1  UNL     1      18.533   0.279  51.117  1.00  0.00    -0.073 SA
BRANCH  23  24
HETATM   24  C12 UNL     1      17.302   1.513  51.489  1.00  0.00     0.006 A 
HETATM   25  C13 UNL     1      17.798   2.811  51.444  1.00  0.00     0.019 A 
HETATM   26  C14 UNL     1      17.007   3.910  51.702  1.00  0.00     0.001 A 
HETATM   27  C15 UNL     1      15.673   3.713  52.017  1.00  0.00     0.000 A 
HETATM   28  C16 UNL     1      15.176   2.426  52.063  1.00  0.00     0.001 A 
HETATM   29  C17 UNL     1      15.956   1.323  51.808  1.00  0.00     0.019 A 
ENDBRANCH  23  24
ENDBRANCH   7  23
TORSDOF 5
ENDMDL
MODEL 8
REMARK VINA RESULT:      -7.4      3.638      7.025
REMARK  5 active torsions:
REMARK  status: ('A' for Active; 'I' for Inactive)
REMARK    1  A    between atoms: O1_2  and  C2_3 
REMARK    2  A    between atoms: C6_9  and  N3_10 
REMARK    3  A    between atoms: C11_16  and  S1_17 
REMARK    4  A    between atoms: S1_17  and  C12_18 
REMARK    5  A    between atoms: C21_27  and  O2_28 
ROOT
HETATM    1  N3  UNL     1      22.504   0.998  52.122  1.00  0.00    -0.348 N 
HETATM    2  C7  UNL     1      22.675   1.234  50.705  1.00  0.00     0.152 C 
HETATM    3  C8  UNL     1      22.889   2.667  50.380  1.00  0.00    -0.009 C 
HETATM    4  C9  UNL     1      23.456   3.410  51.319  1.00  0.00     0.000 C 
HETATM    5  C10 UNL     1      23.907   2.969  52.674  1.00  0.00     0.161 A 
HETATM    6  N4  UNL     1      25.193   2.412  52.579  1.00  0.00    -0.273 NA
HETATM    7  C11 UNL     1      24.820   1.283  52.909  1.00  0.00     0.096 A 
HETATM    8  C18 UNL     1      23.432   1.645  53.071  1.00  0.00     0.173 A 
ENDROOT
BRANCH   1   9
HETATM    9  C6  UNL     1      21.483   0.160  52.707  1.00  0.00     0.140 A 
HETATM   10  N2  UNL     1      22.023  -0.696  53.618  1.00  0.00    -0.224 NA
HETATM   11  C5  UNL     1      21.245  -1.593  54.294  1.00  0.00     0.236 A 
HETATM   12  N1  UNL     1      19.916  -1.632  54.054  1.00  0.00    -0.241 NA
HETATM   13  C4  UNL     1      19.363  -0.796  53.159  1.00  0.00     0.075 A 
HETATM   14  C3  UNL     1      17.999  -0.765  52.848  1.00  0.00     0.072 A 
HETATM   15  C19 UNL     1      20.128   0.117  52.465  1.00  0.00     0.041 A 
HETATM   16  C2  UNL     1      17.507   0.134  51.908  1.00  0.00     0.103 A 
HETATM   17  C21 UNL     1      18.346   1.030  51.246  1.00  0.00     0.102 A 
HETATM   18  C20 UNL     1      19.705   1.030  51.527  1.00  0.00     0.057 A 
BRANCH  16  19
HETATM   19  O1  UNL     1      16.132   0.132  51.626  1.00  0.00    -0.353 OA
HETATM   20  C1  UNL     1      15.268  -0.014  52.759  1.00  0.00     0.210 C 
ENDBRANCH  16  19
BRANCH  17  21
HETATM   21  O2  UNL     1      17.752   1.871  50.341  1.00  0.00    -0.353 OA
HETATM   22  C22 UNL     1      18.465   2.375  49.208  1.00  0.00     0.210 C 
ENDBRANCH  17  21
ENDBRANCH   1   9
BRANCH   7  23
HETATM   23  S1  UNL     1      25.429  -0.371  53.190  1.00  0.00    -0.073 SA
BRANCH  23  24
HETATM   24  C12 UNL     1      27.202  -0.396  53.359  1.00  0.00     0.006 A 
HETATM   25  C13 UNL     1      27.718   0.787  53.876  1.00  0.00     0.019 A 
HETATM   26  C14 UNL     1      29.069   0.971  54.084  1.00  0.00     0.001 A 
HETATM   27  C15 UNL     1      29.940  -0.058  53.767  1.00  0.00     0.000 A 
HETATM   28  C16 UNL     1      29.431  -1.234  53.254  1.00  0.00     0.001 A 
HETATM   29  C17 UNL     1      28.087  -1.429  53.042  1.00  0.00     0.019 A 
ENDBRANCH  23  24
ENDBRANCH   7  23
TORSDOF 5
ENDMDL
MODEL 9
REMARK VINA RESULT:      -7.3      2.154      6.011
REMARK  5 active torsions:
REMARK  status: ('A' for Active; 'I' for Inactive)
REMARK    1  A    between atoms: O1_2  and  C2_3 
REMARK    2  A    between atoms: C6_9  and  N3_10 
REMARK    3  A    between atoms: C11_16  and  S1_17 
REMARK    4  A    between atoms: S1_17  and  C12_18 
REMARK    5  A    between atoms: C21_27  and  O2_28 
ROOT
HETATM    1  N3  UNL     1      22.306   1.132  52.052  1.00  0.00    -0.348 N 
HETATM    2  C7  UNL     1      21.566   1.738  53.137  1.00  0.00     0.152 C 
HETATM    3  C8  UNL     1      20.927   0.737  54.029  1.00  0.00    -0.009 C 
HETATM    4  C9  UNL     1      21.521  -0.443  54.118  1.00  0.00     0.000 C 
HETATM    5  C10 UNL     1      22.767  -0.886  53.420  1.00  0.00     0.161 A 
HETATM    6  N4  UNL     1      23.887  -0.457  54.152  1.00  0.00    -0.273 NA
HETATM    7  C11 UNL     1      24.282   0.302  53.262  1.00  0.00     0.096 A 
HETATM    8  C18 UNL     1      23.209   0.002  52.347  1.00  0.00     0.173 A 
ENDROOT
BRANCH   1   9
HETATM    9  C6  UNL     1      22.243   1.549  50.670  1.00  0.00     0.140 A 
HETATM   10  N2  UNL     1      21.550   0.647  49.923  1.00  0.00    -0.224 NA
HETATM   11  C5  UNL     1      21.370   0.829  48.581  1.00  0.00     0.236 A 
HETATM   12  N1  UNL     1      21.888   1.925  47.985  1.00  0.00    -0.241 NA
HETATM   13  C4  UNL     1      22.575   2.829  48.704  1.00  0.00     0.075 A 
HETATM   14  C3  UNL     1      23.144   3.991  48.172  1.00  0.00     0.072 A 
HETATM   15  C19 UNL     1      22.770   2.666  50.059  1.00  0.00     0.041 A 
HETATM   16  C2  UNL     1      23.840   4.877  48.987  1.00  0.00     0.103 A 
HETATM   17  C21 UNL     1      23.995   4.643  50.354  1.00  0.00     0.102 A 
HETATM   18  C20 UNL     1      23.445   3.501  50.919  1.00  0.00     0.057 A 
BRANCH  16  19
HETATM   19  O1  UNL     1      24.395   6.030  48.413  1.00  0.00    -0.353 OA
HETATM   20  C1  UNL     1      23.509   6.803  47.595  1.00  0.00     0.210 C 
ENDBRANCH  16  19
BRANCH  17  21
HETATM   21  O2  UNL     1      24.698   5.583  51.061  1.00  0.00    -0.353 OA
HETATM   22  C22 UNL     1      24.082   6.790  51.518  1.00  0.00     0.210 C 
ENDBRANCH  17  21
ENDBRANCH   1   9
BRANCH   7  23
HETATM   23  S1  UNL     1      25.589   1.456  52.879  1.00  0.00    -0.073 SA
BRANCH  23  24
HETATM   24  C12 UNL     1      27.197   0.748  53.174  1.00  0.00     0.006 A 
HETATM   25  C13 UNL     1      27.239  -0.623  52.946  1.00  0.00     0.019 A 
HETATM   26  C14 UNL     1      28.391  -1.361  53.118  1.00  0.00     0.001 A 
HETATM   27  C15 UNL     1      29.544  -0.715  53.532  1.00  0.00     0.000 A 
HETATM   28  C16 UNL     1      29.505   0.646  53.760  1.00  0.00     0.001 A 
HETATM   29  C17 UNL     1      28.362   1.392  53.593  1.00  0.00     0.019 A 
ENDBRANCH  23  24
ENDBRANCH   7  23
TORSDOF 5
ENDMDL
