MODEL 1
REMARK VINA RESULT:      -9.6      0.000      0.000
REMARK  4 active torsions:
REMARK  status: ('A' for Active; 'I' for Inactive)
REMARK    1  A    between atoms: O1_1  and  C1_2 
REMARK    2  A    between atoms: C3_5  and  N1_6 
REMARK    3  A    between atoms: C4_8  and  C5_9 
REMARK    4  A    between atoms: C12_17  and  C13_18 
ROOT
HETATM    1  N1  UNL     1      26.627   1.240  52.598  1.00  0.00    -0.236 N 
HETATM    2  N2  UNL     1      27.138   2.331  51.849  1.00  0.00    -0.173 NA
HETATM    3  C4  UNL     1      26.187   2.854  51.113  1.00  0.00     0.067 C 
HETATM    4  C11 UNL     1      24.927   2.063  51.379  1.00  0.00     0.094 C 
HETATM    5  C12 UNL     1      25.280   1.654  52.818  1.00  0.00     0.151 C 
ENDROOT
BRANCH   1   6
HETATM    6  C3  UNL     1      27.548   0.135  52.890  1.00  0.00     0.192 A 
HETATM    7  S1  UNL     1      29.246   0.425  53.690  1.00  0.00    -0.058 SA
HETATM    8  C2  UNL     1      29.600  -1.370  53.640  1.00  0.00     0.111 A 
HETATM    9  C1  UNL     1      28.430  -1.891  53.051  1.00  0.00     0.171 A 
HETATM   10  N3  UNL     1      27.506  -1.001  52.737  1.00  0.00    -0.198 NA
BRANCH   9  11
HETATM   11  O1  UNL     1      28.184  -3.249  52.781  1.00  0.00    -0.344 OA
HETATM   12  H1  UNL     1      28.050  -3.617  51.863  1.00  0.00     0.219 HD
ENDBRANCH   9  11
ENDBRANCH   1   6
BRANCH   5  13
HETATM   13  C13 UNL     1      24.336   0.627  53.243  1.00  0.00    -0.033 A 
HETATM   14  C14 UNL     1      24.509  -0.220  54.308  1.00  0.00     0.012 A 
HETATM   15  C15 UNL     1      23.509  -1.153  54.594  1.00  0.00     0.043 A 
HETATM   16  C16 UNL     1      22.352  -1.255  53.846  1.00  0.00     0.116 A 
HETATM   17  F1  UNL     1      21.395  -2.161  54.133  1.00  0.00    -0.206 F 
HETATM   18  C17 UNL     1      22.152  -0.420  52.773  1.00  0.00     0.043 A 
HETATM   19  C18 UNL     1      23.154   0.498  52.506  1.00  0.00     0.012 A 
ENDBRANCH   5  13
BRANCH   3  20
HETATM   20  C5  UNL     1      26.225   3.980  50.186  1.00  0.00    -0.010 A 
HETATM   21  C6  UNL     1      27.299   4.231  49.358  1.00  0.00     0.015 A 
HETATM   22  C7  UNL     1      27.266   5.315  48.507  1.00  0.00     0.024 A 
HETATM   23  C8  UNL     1      26.144   6.118  48.518  1.00  0.00     0.034 A 
HETATM   24 CL1  UNL     1      26.189   7.484  47.394  1.00  0.00    -0.084 Cl
HETATM   25  C9  UNL     1      25.030   5.938  49.312  1.00  0.00     0.024 A 
HETATM   26  C10 UNL     1      25.136   4.827  50.142  1.00  0.00     0.015 A 
ENDBRANCH   3  20
TORSDOF 4
ENDMDL
MODEL 2
REMARK VINA RESULT:      -9.2      4.368      7.160
REMARK  4 active torsions:
REMARK  status: ('A' for Active; 'I' for Inactive)
REMARK    1  A    between atoms: O1_1  and  C1_2 
REMARK    2  A    between atoms: C3_5  and  N1_6 
REMARK    3  A    between atoms: C4_8  and  C5_9 
REMARK    4  A    between atoms: C12_17  and  C13_18 
ROOT
HETATM    1  N1  UNL     1      24.613   2.274  52.254  1.00  0.00    -0.236 N 
HETATM    2  N2  UNL     1      23.219   2.015  52.313  1.00  0.00    -0.173 NA
HETATM    3  C4  UNL     1      23.007   0.812  52.790  1.00  0.00     0.067 C 
HETATM    4  C11 UNL     1      24.358   0.200  53.083  1.00  0.00     0.094 C 
HETATM    5  C12 UNL     1      25.089   1.522  53.369  1.00  0.00     0.151 C 
ENDROOT
BRANCH   1   6
HETATM    6  C3  UNL     1      25.088   3.150  51.176  1.00  0.00     0.192 A 
HETATM    7  S1  UNL     1      23.911   4.289  50.213  1.00  0.00    -0.058 SA
HETATM    8  C2  UNL     1      25.303   4.899  49.193  1.00  0.00     0.111 A 
HETATM    9  C1  UNL     1      26.397   4.179  49.715  1.00  0.00     0.171 A 
HETATM   10  N3  UNL     1      26.113   3.348  50.701  1.00  0.00    -0.198 NA
BRANCH   9  11
HETATM   11  O1  UNL     1      27.729   4.279  49.273  1.00  0.00    -0.344 OA
HETATM   12  H1  UNL     1      28.192   3.571  48.744  1.00  0.00     0.219 HD
ENDBRANCH   9  11
ENDBRANCH   1   6
BRANCH   5  13
HETATM   13  C13 UNL     1      26.520   1.250  53.417  1.00  0.00    -0.033 A 
HETATM   14  C14 UNL     1      27.496   2.172  53.696  1.00  0.00     0.012 A 
HETATM   15  C15 UNL     1      28.829   1.757  53.709  1.00  0.00     0.043 A 
HETATM   16  C16 UNL     1      29.203   0.452  53.453  1.00  0.00     0.116 A 
HETATM   17  F1  UNL     1      30.496   0.064  53.468  1.00  0.00    -0.206 F 
HETATM   18  C17 UNL     1      28.247  -0.494  53.170  1.00  0.00     0.043 A 
HETATM   19  C18 UNL     1      26.932  -0.063  53.162  1.00  0.00     0.012 A 
ENDBRANCH   5  13
BRANCH   3  20
HETATM   20  C5  UNL     1      21.756   0.102  53.035  1.00  0.00    -0.010 A 
HETATM   21  C6  UNL     1      21.647  -0.925  53.948  1.00  0.00     0.015 A 
HETATM   22  C7  UNL     1      20.432  -1.552  54.128  1.00  0.00     0.024 A 
HETATM   23  C8  UNL     1      19.359  -1.121  53.376  1.00  0.00     0.034 A 
HETATM   24 CL1  UNL     1      17.841  -1.981  53.673  1.00  0.00    -0.084 Cl
HETATM   25  C9  UNL     1      19.383  -0.104  52.444  1.00  0.00     0.024 A 
HETATM   26  C10 UNL     1      20.639   0.480  52.318  1.00  0.00     0.015 A 
ENDBRANCH   3  20
TORSDOF 4
ENDMDL
MODEL 3
REMARK VINA RESULT:      -8.9      1.530      2.256
REMARK  4 active torsions:
REMARK  status: ('A' for Active; 'I' for Inactive)
REMARK    1  A    between atoms: O1_1  and  C1_2 
REMARK    2  A    between atoms: C3_5  and  N1_6 
REMARK    3  A    between atoms: C4_8  and  C5_9 
REMARK    4  A    between atoms: C12_17  and  C13_18 
ROOT
HETATM    1  N1  UNL     1      26.039   2.107  51.619  1.00  0.00    -0.236 N 
HETATM    2  N2  UNL     1      26.893   3.090  51.055  1.00  0.00    -0.173 NA
HETATM    3  C4  UNL     1      26.255   3.755  50.123  1.00  0.00     0.067 C 
HETATM    4  C11 UNL     1      24.856   3.187  50.042  1.00  0.00     0.094 C 
HETATM    5  C12 UNL     1      24.766   2.741  51.511  1.00  0.00     0.151 C 
ENDROOT
BRANCH   1   6
HETATM    6  C3  UNL     1      26.665   0.868  52.096  1.00  0.00     0.192 A 
HETATM    7  S1  UNL     1      28.077   0.878  53.367  1.00  0.00    -0.058 SA
HETATM    8  C2  UNL     1      28.167  -0.949  53.313  1.00  0.00     0.111 A 
HETATM    9  C1  UNL     1      27.159  -1.273  52.382  1.00  0.00     0.171 A 
HETATM   10  N3  UNL     1      26.506  -0.245  51.870  1.00  0.00    -0.198 NA
BRANCH   9  11
HETATM   11  O1  UNL     1      26.810  -2.572  51.972  1.00  0.00    -0.344 OA
HETATM   12  H1  UNL     1      27.382  -3.375  52.129  1.00  0.00     0.219 HD
ENDBRANCH   9  11
ENDBRANCH   1   6
BRANCH   5  13
HETATM   13  C13 UNL     1      23.592   1.890  51.656  1.00  0.00    -0.033 A 
HETATM   14  C14 UNL     1      22.766   1.493  50.635  1.00  0.00     0.012 A 
HETATM   15  C15 UNL     1      21.678   0.669  50.933  1.00  0.00     0.043 A 
HETATM   16  C16 UNL     1      21.400   0.239  52.216  1.00  0.00     0.116 A 
HETATM   17  F1  UNL     1      20.345  -0.555  52.490  1.00  0.00    -0.206 F 
HETATM   18  C17 UNL     1      22.210   0.622  53.259  1.00  0.00     0.043 A 
HETATM   19  C18 UNL     1      23.284   1.437  52.944  1.00  0.00     0.012 A 
ENDBRANCH   5  13
BRANCH   3  20
HETATM   20  C5  UNL     1      26.707   4.849  49.269  1.00  0.00    -0.010 A 
HETATM   21  C6  UNL     1      25.885   5.892  48.894  1.00  0.00     0.015 A 
HETATM   22  C7  UNL     1      26.380   6.892  48.084  1.00  0.00     0.024 A 
HETATM   23  C8  UNL     1      27.694   6.810  47.675  1.00  0.00     0.034 A 
HETATM   24 CL1  UNL     1      28.243   8.136  46.640  1.00  0.00    -0.084 Cl
HETATM   25  C9  UNL     1      28.580   5.804  48.004  1.00  0.00     0.024 A 
HETATM   26  C10 UNL     1      28.012   4.833  48.821  1.00  0.00     0.015 A 
ENDBRANCH   3  20
TORSDOF 4
ENDMDL
MODEL 4
REMARK VINA RESULT:      -8.8      4.160      6.923
REMARK  4 active torsions:
REMARK  status: ('A' for Active; 'I' for Inactive)
REMARK    1  A    between atoms: O1_1  and  C1_2 
REMARK    2  A    between atoms: C3_5  and  N1_6 
REMARK    3  A    between atoms: C4_8  and  C5_9 
REMARK    4  A    between atoms: C12_17  and  C13_18 
ROOT
HETATM    1  N1  UNL     1      25.051   1.291  52.242  1.00  0.00    -0.236 N 
HETATM    2  N2  UNL     1      24.150   0.299  52.706  1.00  0.00    -0.173 NA
HETATM    3  C4  UNL     1      22.914   0.711  52.556  1.00  0.00     0.067 C 
HETATM    4  C11 UNL     1      22.971   2.089  51.938  1.00  0.00     0.094 C 
HETATM    5  C12 UNL     1      24.297   1.887  51.188  1.00  0.00     0.151 C 
ENDROOT
BRANCH   1   6
HETATM    6  C3  UNL     1      26.351   1.388  52.917  1.00  0.00     0.192 A 
HETATM    7  S1  UNL     1      26.818   0.252  54.367  1.00  0.00    -0.058 SA
HETATM    8  C2  UNL     1      28.450   1.069  54.508  1.00  0.00     0.111 A 
HETATM    9  C1  UNL     1      28.393   2.034  53.482  1.00  0.00     0.171 A 
HETATM   10  N3  UNL     1      27.272   2.057  52.784  1.00  0.00    -0.198 NA
BRANCH   9  11
HETATM   11  O1  UNL     1      29.414   2.945  53.158  1.00  0.00    -0.344 OA
HETATM   12  H1  UNL     1      30.195   2.719  52.579  1.00  0.00     0.219 HD
ENDBRANCH   9  11
ENDBRANCH   1   6
BRANCH   5  13
HETATM   13  C13 UNL     1      24.750   3.187  50.707  1.00  0.00    -0.033 A 
HETATM   14  C14 UNL     1      25.763   3.393  49.806  1.00  0.00     0.012 A 
HETATM   15  C15 UNL     1      26.081   4.703  49.439  1.00  0.00     0.043 A 
HETATM   16  C16 UNL     1      25.413   5.800  49.948  1.00  0.00     0.116 A 
HETATM   17  F1  UNL     1      25.730   7.060  49.585  1.00  0.00    -0.206 F 
HETATM   18  C17 UNL     1      24.393   5.624  50.853  1.00  0.00     0.043 A 
HETATM   19  C18 UNL     1      24.094   4.319  51.204  1.00  0.00     0.012 A 
ENDBRANCH   5  13
BRANCH   3  20
HETATM   20  C5  UNL     1      21.654   0.050  52.882  1.00  0.00    -0.010 A 
HETATM   21  C6  UNL     1      21.549  -0.915  53.862  1.00  0.00     0.015 A 
HETATM   22  C7  UNL     1      20.325  -1.498  54.116  1.00  0.00     0.024 A 
HETATM   23  C8  UNL     1      19.240  -1.088  53.370  1.00  0.00     0.034 A 
HETATM   24 CL1  UNL     1      17.712  -1.888  53.765  1.00  0.00    -0.084 Cl
HETATM   25  C9  UNL     1      19.260  -0.132  52.374  1.00  0.00     0.024 A 
HETATM   26  C10 UNL     1      20.525   0.411  52.175  1.00  0.00     0.015 A 
ENDBRANCH   3  20
TORSDOF 4
ENDMDL
MODEL 5
REMARK VINA RESULT:      -8.8      3.191      4.639
REMARK  4 active torsions:
REMARK  status: ('A' for Active; 'I' for Inactive)
REMARK    1  A    between atoms: O1_1  and  C1_2 
REMARK    2  A    between atoms: C3_5  and  N1_6 
REMARK    3  A    between atoms: C4_8  and  C5_9 
REMARK    4  A    between atoms: C12_17  and  C13_18 
ROOT
HETATM    1  N1  UNL     1      24.161   0.974  52.234  1.00  0.00    -0.236 N 
HETATM    2  N2  UNL     1      23.467   2.061  51.643  1.00  0.00    -0.173 NA
HETATM    3  C4  UNL     1      24.296   3.051  51.416  1.00  0.00     0.067 C 
HETATM    4  C11 UNL     1      25.664   2.610  51.884  1.00  0.00     0.094 C 
HETATM    5  C12 UNL     1      25.452   1.106  51.642  1.00  0.00     0.151 C 
ENDROOT
BRANCH   1   6
HETATM    6  C3  UNL     1      23.414   0.131  53.176  1.00  0.00     0.192 A 
HETATM    7  S1  UNL     1      21.559  -0.219  52.957  1.00  0.00    -0.058 SA
HETATM    8  C2  UNL     1      21.553  -1.245  54.473  1.00  0.00     0.111 A 
HETATM    9  C1  UNL     1      22.897  -1.168  54.893  1.00  0.00     0.171 A 
HETATM   10  N3  UNL     1      23.691  -0.439  54.131  1.00  0.00    -0.198 NA
BRANCH   9  11
HETATM   11  O1  UNL     1      23.435  -1.794  56.032  1.00  0.00    -0.344 OA
HETATM   12  H1  UNL     1      23.850  -1.299  56.793  1.00  0.00     0.219 HD
ENDBRANCH   9  11
ENDBRANCH   1   6
BRANCH   5  13
HETATM   13  C13 UNL     1      26.547   0.385  52.280  1.00  0.00    -0.033 A 
HETATM   14  C14 UNL     1      26.695  -0.979  52.300  1.00  0.00     0.012 A 
HETATM   15  C15 UNL     1      27.804  -1.524  52.951  1.00  0.00     0.043 A 
HETATM   16  C16 UNL     1      28.758  -0.744  53.575  1.00  0.00     0.116 A 
HETATM   17  F1  UNL     1      29.824  -1.284  54.201  1.00  0.00    -0.206 F 
HETATM   18  C17 UNL     1      28.635   0.625  53.571  1.00  0.00     0.043 A 
HETATM   19  C18 UNL     1      27.530   1.147  52.921  1.00  0.00     0.012 A 
ENDBRANCH   5  13
BRANCH   3  20
HETATM   20  C5  UNL     1      24.056   4.365  50.828  1.00  0.00    -0.010 A 
HETATM   21  C6  UNL     1      23.569   5.431  51.555  1.00  0.00     0.015 A 
HETATM   22  C7  UNL     1      23.365   6.645  50.934  1.00  0.00     0.024 A 
HETATM   23  C8  UNL     1      23.660   6.747  49.590  1.00  0.00     0.034 A 
HETATM   24 CL1  UNL     1      23.369   8.340  48.877  1.00  0.00    -0.084 Cl
HETATM   25  C9  UNL     1      24.149   5.733  48.792  1.00  0.00     0.024 A 
HETATM   26  C10 UNL     1      24.329   4.541  49.487  1.00  0.00     0.015 A 
ENDBRANCH   3  20
TORSDOF 4
ENDMDL
MODEL 6
REMARK VINA RESULT:      -8.8      4.873      7.523
REMARK  4 active torsions:
REMARK  status: ('A' for Active; 'I' for Inactive)
REMARK    1  A    between atoms: O1_1  and  C1_2 
REMARK    2  A    between atoms: C3_5  and  N1_6 
REMARK    3  A    between atoms: C4_8  and  C5_9 
REMARK    4  A    between atoms: C12_17  and  C13_18 
ROOT
HETATM    1  N1  UNL     1      23.309   2.773  52.358  1.00  0.00    -0.236 N 
HETATM    2  N2  UNL     1      21.906   2.568  52.308  1.00  0.00    -0.173 NA
HETATM    3  C4  UNL     1      21.642   1.284  52.286  1.00  0.00     0.067 C 
HETATM    4  C11 UNL     1      22.964   0.552  52.327  1.00  0.00     0.094 C 
HETATM    5  C12 UNL     1      23.736   1.632  53.101  1.00  0.00     0.151 C 
ENDROOT
BRANCH   1   6
HETATM    6  C3  UNL     1      23.837   3.975  51.700  1.00  0.00     0.192 A 
HETATM    7  S1  UNL     1      24.943   3.874  50.159  1.00  0.00    -0.058 SA
HETATM    8  C2  UNL     1      25.071   5.699  50.106  1.00  0.00     0.111 A 
HETATM    9  C1  UNL     1      24.291   6.088  51.215  1.00  0.00     0.171 A 
HETATM   10  N3  UNL     1      23.747   5.099  51.902  1.00  0.00    -0.198 NA
BRANCH   9  11
HETATM   11  O1  UNL     1      24.058   7.412  51.627  1.00  0.00    -0.344 OA
HETATM   12  H1  UNL     1      23.792   8.147  51.007  1.00  0.00     0.219 HD
ENDBRANCH   9  11
ENDBRANCH   1   6
BRANCH   5  13
HETATM   13  C13 UNL     1      25.155   1.304  53.047  1.00  0.00    -0.033 A 
HETATM   14  C14 UNL     1      25.705   0.266  52.338  1.00  0.00     0.012 A 
HETATM   15  C15 UNL     1      27.089   0.081  52.383  1.00  0.00     0.043 A 
HETATM   16  C16 UNL     1      27.926   0.904  53.112  1.00  0.00     0.116 A 
HETATM   17  F1  UNL     1      29.261   0.713  53.146  1.00  0.00    -0.206 F 
HETATM   18  C17 UNL     1      27.403   1.952  53.831  1.00  0.00     0.043 A 
HETATM   19  C18 UNL     1      26.030   2.119  53.775  1.00  0.00     0.012 A 
ENDBRANCH   5  13
BRANCH   3  20
HETATM   20  C5  UNL     1      20.361   0.586  52.235  1.00  0.00    -0.010 A 
HETATM   21  C6  UNL     1      19.488   0.703  51.174  1.00  0.00     0.015 A 
HETATM   22  C7  UNL     1      18.294   0.014  51.194  1.00  0.00     0.024 A 
HETATM   23  C8  UNL     1      18.015  -0.775  52.290  1.00  0.00     0.034 A 
HETATM   24 CL1  UNL     1      16.462  -1.622  52.229  1.00  0.00    -0.084 Cl
HETATM   25  C9  UNL     1      18.831  -0.947  53.389  1.00  0.00     0.024 A 
HETATM   26  C10 UNL     1      20.016  -0.223  53.299  1.00  0.00     0.015 A 
ENDBRANCH   3  20
TORSDOF 4
ENDMDL
MODEL 7
REMARK VINA RESULT:      -8.6      4.443      6.452
REMARK  4 active torsions:
REMARK  status: ('A' for Active; 'I' for Inactive)
REMARK    1  A    between atoms: O1_1  and  C1_2 
REMARK    2  A    between atoms: C3_5  and  N1_6 
REMARK    3  A    between atoms: C4_8  and  C5_9 
REMARK    4  A    between atoms: C12_17  and  C13_18 
ROOT
HETATM    1  N1  UNL     1      23.970   1.944  51.859  1.00  0.00    -0.236 N 
HETATM    2  N2  UNL     1      25.369   1.717  51.927  1.00  0.00    -0.173 NA
HETATM    3  C4  UNL     1      25.614   0.644  52.639  1.00  0.00     0.067 C 
HETATM    4  C11 UNL     1      24.283   0.091  53.092  1.00  0.00     0.094 C 
HETATM    5  C12 UNL     1      23.464   0.611  51.899  1.00  0.00     0.151 C 
ENDROOT
BRANCH   1   6
HETATM    6  C3  UNL     1      23.518   3.339  51.773  1.00  0.00     0.192 A 
HETATM    7  S1  UNL     1      21.778   3.797  51.165  1.00  0.00    -0.058 SA
HETATM    8  C2  UNL     1      22.144   5.575  51.392  1.00  0.00     0.111 A 
HETATM    9  C1  UNL     1      23.469   5.551  51.872  1.00  0.00     0.171 A 
HETATM   10  N3  UNL     1      24.005   4.351  52.003  1.00  0.00    -0.198 NA
BRANCH   9  11
HETATM   11  O1  UNL     1      24.238   6.679  52.212  1.00  0.00    -0.344 OA
HETATM   12  H1  UNL     1      23.847   7.573  52.421  1.00  0.00     0.219 HD
ENDBRANCH   9  11
ENDBRANCH   1   6
BRANCH   5  13
HETATM   13  C13 UNL     1      22.050   0.452  52.213  1.00  0.00    -0.033 A 
HETATM   14  C14 UNL     1      21.513   0.431  53.475  1.00  0.00     0.012 A 
HETATM   15  C15 UNL     1      20.132   0.274  53.616  1.00  0.00     0.043 A 
HETATM   16  C16 UNL     1      19.286   0.140  52.533  1.00  0.00     0.116 A 
HETATM   17  F1  UNL     1      17.953  -0.012  52.684  1.00  0.00    -0.206 F 
HETATM   18  C17 UNL     1      19.795   0.156  51.257  1.00  0.00     0.043 A 
HETATM   19  C18 UNL     1      21.165   0.313  51.138  1.00  0.00     0.012 A 
ENDBRANCH   5  13
BRANCH   3  20
HETATM   20  C5  UNL     1      26.884   0.014  52.987  1.00  0.00    -0.010 A 
HETATM   21  C6  UNL     1      27.170  -1.302  52.693  1.00  0.00     0.015 A 
HETATM   22  C7  UNL     1      28.391  -1.832  53.053  1.00  0.00     0.024 A 
HETATM   23  C8  UNL     1      29.290  -1.013  53.703  1.00  0.00     0.034 A 
HETATM   24 CL1  UNL     1      30.830  -1.775  54.126  1.00  0.00    -0.084 Cl
HETATM   25  C9  UNL     1      29.084   0.311  54.034  1.00  0.00     0.024 A 
HETATM   26  C10 UNL     1      27.833   0.775  53.640  1.00  0.00     0.015 A 
ENDBRANCH   3  20
TORSDOF 4
ENDMDL
MODEL 8
REMARK VINA RESULT:      -8.6      4.682      6.657
REMARK  4 active torsions:
REMARK  status: ('A' for Active; 'I' for Inactive)
REMARK    1  A    between atoms: O1_1  and  C1_2 
REMARK    2  A    between atoms: C3_5  and  N1_6 
REMARK    3  A    between atoms: C4_8  and  C5_9 
REMARK    4  A    between atoms: C12_17  and  C13_18 
ROOT
HETATM    1  N1  UNL     1      22.966   2.132  51.372  1.00  0.00    -0.236 N 
HETATM    2  N2  UNL     1      24.381   2.098  51.466  1.00  0.00    -0.173 NA
HETATM    3  C4  UNL     1      24.755   1.091  52.218  1.00  0.00     0.067 C 
HETATM    4  C11 UNL     1      23.501   0.379  52.672  1.00  0.00     0.094 C 
HETATM    5  C12 UNL     1      22.642   0.746  51.451  1.00  0.00     0.151 C 
ENDROOT
BRANCH   1   6
HETATM    6  C3  UNL     1      22.333   3.450  51.232  1.00  0.00     0.192 A 
HETATM    7  S1  UNL     1      23.161   5.035  51.874  1.00  0.00    -0.058 SA
HETATM    8  C2  UNL     1      21.741   6.035  51.296  1.00  0.00     0.111 A 
HETATM    9  C1  UNL     1      20.895   5.059  50.731  1.00  0.00     0.171 A 
HETATM   10  N3  UNL     1      21.344   3.818  50.784  1.00  0.00    -0.198 NA
BRANCH   9  11
HETATM   11  O1  UNL     1      19.646   5.305  50.133  1.00  0.00    -0.344 OA
HETATM   12  H1  UNL     1      19.460   5.167  49.163  1.00  0.00     0.219 HD
ENDBRANCH   9  11
ENDBRANCH   1   6
BRANCH   5  13
HETATM   13  C13 UNL     1      21.256   0.409  51.752  1.00  0.00    -0.033 A 
HETATM   14  C14 UNL     1      20.201   0.534  50.886  1.00  0.00     0.012 A 
HETATM   15  C15 UNL     1      18.926   0.164  51.321  1.00  0.00     0.043 A 
HETATM   16  C16 UNL     1      18.687  -0.323  52.591  1.00  0.00     0.116 A 
HETATM   17  F1  UNL     1      17.450  -0.676  52.999  1.00  0.00    -0.206 F 
HETATM   18  C17 UNL     1      19.725  -0.459  53.482  1.00  0.00     0.043 A 
HETATM   19  C18 UNL     1      20.980  -0.088  53.032  1.00  0.00     0.012 A 
ENDBRANCH   5  13
BRANCH   3  20
HETATM   20  C5  UNL     1      26.091   0.649  52.604  1.00  0.00    -0.010 A 
HETATM   21  C6  UNL     1      27.090   1.525  52.972  1.00  0.00     0.015 A 
HETATM   22  C7  UNL     1      28.330   1.036  53.325  1.00  0.00     0.024 A 
HETATM   23  C8  UNL     1      28.525  -0.329  53.296  1.00  0.00     0.034 A 
HETATM   24 CL1  UNL     1      30.145  -0.866  53.764  1.00  0.00    -0.084 Cl
HETATM   25  C9  UNL     1      27.582  -1.272  52.941  1.00  0.00     0.024 A 
HETATM   26  C10 UNL     1      26.358  -0.705  52.598  1.00  0.00     0.015 A 
ENDBRANCH   3  20
TORSDOF 4
ENDMDL
MODEL 9
REMARK VINA RESULT:      -8.3      5.581      8.624
REMARK  4 active torsions:
REMARK  status: ('A' for Active; 'I' for Inactive)
REMARK    1  A    between atoms: O1_1  and  C1_2 
REMARK    2  A    between atoms: C3_5  and  N1_6 
REMARK    3  A    between atoms: C4_8  and  C5_9 
REMARK    4  A    between atoms: C12_17  and  C13_18 
ROOT
HETATM    1  N1  UNL     1      23.312   4.226  49.516  1.00  0.00    -0.236 N 
HETATM    2  N2  UNL     1      22.636   3.315  50.368  1.00  0.00    -0.173 NA
HETATM    3  C4  UNL     1      23.507   2.608  51.047  1.00  0.00     0.067 C 
HETATM    4  C11 UNL     1      24.884   3.070  50.632  1.00  0.00     0.094 C 
HETATM    5  C12 UNL     1      24.483   4.511  50.277  1.00  0.00     0.151 C 
ENDROOT
BRANCH   1   6
HETATM    6  C3  UNL     1      22.662   4.563  48.243  1.00  0.00     0.192 A 
HETATM    7  S1  UNL     1      21.733   6.201  47.990  1.00  0.00    -0.058 SA
HETATM    8  C2  UNL     1      21.322   5.726  46.271  1.00  0.00     0.111 A 
HETATM    9  C1  UNL     1      21.923   4.456  46.157  1.00  0.00     0.171 A 
HETATM   10  N3  UNL     1      22.552   4.026  47.236  1.00  0.00    -0.198 NA
BRANCH   9  11
HETATM   11  O1  UNL     1      21.903   3.641  45.011  1.00  0.00    -0.344 OA
HETATM   12  H1  UNL     1      21.731   3.984  44.090  1.00  0.00     0.219 HD
ENDBRANCH   9  11
ENDBRANCH   1   6
BRANCH   5  13
HETATM   13  C13 UNL     1      25.595   5.132  49.567  1.00  0.00    -0.033 A 
HETATM   14  C14 UNL     1      25.659   6.446  49.182  1.00  0.00     0.012 A 
HETATM   15  C15 UNL     1      26.798   6.895  48.509  1.00  0.00     0.043 A 
HETATM   16  C16 UNL     1      27.864   6.067  48.219  1.00  0.00     0.116 A 
HETATM   17  F1  UNL     1      28.958   6.514  47.568  1.00  0.00    -0.206 F 
HETATM   18  C17 UNL     1      27.828   4.744  48.593  1.00  0.00     0.043 A 
HETATM   19  C18 UNL     1      26.692   4.319  49.258  1.00  0.00     0.012 A 
ENDBRANCH   5  13
BRANCH   3  20
HETATM   20  C5  UNL     1      23.299   1.557  52.039  1.00  0.00    -0.010 A 
HETATM   21  C6  UNL     1      24.336   0.833  52.588  1.00  0.00     0.015 A 
HETATM   22  C7  UNL     1      24.066  -0.147  53.520  1.00  0.00     0.024 A 
HETATM   23  C8  UNL     1      22.751  -0.367  53.871  1.00  0.00     0.034 A 
HETATM   24 CL1  UNL     1      22.498  -1.641  55.073  1.00  0.00    -0.084 Cl
HETATM   25  C9  UNL     1      21.657   0.310  53.370  1.00  0.00     0.024 A 
HETATM   26  C10 UNL     1      22.007   1.281  52.438  1.00  0.00     0.015 A 
ENDBRANCH   3  20
TORSDOF 4
ENDMDL
