MODEL 1
REMARK VINA RESULT:      -7.4      0.000      0.000
REMARK  7 active torsions:
REMARK  status: ('A' for Active; 'I' for Inactive)
REMARK    1  A    between atoms: N1_3  and  C3_4 
REMARK    2  A    between atoms: C4_5  and  C6_8 
REMARK    3  A    between atoms: C6_8  and  N3_9 
REMARK    4  A    between atoms: N3_9  and  C7_10 
REMARK    5  A    between atoms: C10_13  and  O1_14 
REMARK    6  A    between atoms: O1_14  and  C11_15 
REMARK    7  A    between atoms: C11_15  and  C12_16 
ROOT
HETATM    1  C3  UNL     1      24.207  -0.589  53.754  1.00  0.00     0.135 C 
HETATM    2  C4  UNL     1      22.924  -0.404  53.441  1.00  0.00     0.057 C 
HETATM    3  C5  UNL     1      22.024  -1.169  54.225  1.00  0.00     0.098 C 
HETATM    4  N2  UNL     1      21.276  -1.781  54.853  1.00  0.00    -0.192 NA
ENDROOT
BRANCH   2   5
HETATM    5  C6  UNL     1      22.680   0.553  52.348  1.00  0.00     0.171 C 
BRANCH   5   6
HETATM    6  N3  UNL     1      23.139   1.885  52.692  1.00  0.00    -0.385 N 
HETATM    7  H8  UNL     1      22.946   2.087  53.709  1.00  0.00     0.160 HD
BRANCH   6   8
HETATM    8  C7  UNL     1      23.771   2.902  51.930  1.00  0.00     0.029 A 
HETATM    9  C8  UNL     1      24.924   2.569  51.210  1.00  0.00     0.032 A 
HETATM   10  C9  UNL     1      25.523   3.572  50.503  1.00  0.00     0.041 A 
HETATM   11  C10 UNL     1      25.083   4.873  50.445  1.00  0.00     0.091 A 
HETATM   12  C19 UNL     1      23.927   5.192  51.171  1.00  0.00     0.069 A 
HETATM   13 CL1  UNL     1      23.238   6.814  51.199  1.00  0.00    -0.081 Cl
HETATM   14  C20 UNL     1      23.281   4.193  51.911  1.00  0.00     0.056 A 
BRANCH  11  15
HETATM   15  O1  UNL     1      25.596   5.917  49.787  1.00  0.00    -0.345 OA
BRANCH  15  16
HETATM   16  C11 UNL     1      25.604   6.385  48.509  1.00  0.00     0.214 C 
BRANCH  16  17
HETATM   17  C12 UNL     1      26.844   6.933  47.958  1.00  0.00    -0.033 A 
HETATM   18  C13 UNL     1      27.119   8.076  47.238  1.00  0.00     0.009 A 
HETATM   19  C14 UNL     1      28.383   8.382  46.813  1.00  0.00     0.002 A 
HETATM   20  C15 UNL     1      29.452   7.558  47.085  1.00  0.00     0.022 A 
HETATM   21  C16 UNL     1      29.220   6.399  47.806  1.00  0.00     0.045 A 
HETATM   22  C17 UNL     1      30.358   5.569  48.070  1.00  0.00     0.099 C 
HETATM   23  C18 UNL     1      27.923   6.094  48.237  1.00  0.00     0.032 A 
HETATM   24  N4  UNL     1      31.262   4.907  48.290  1.00  0.00    -0.191 NA
ENDBRANCH  16  17
ENDBRANCH  15  16
ENDBRANCH  11  15
ENDBRANCH   6   8
ENDBRANCH   5   6
ENDBRANCH   2   5
BRANCH   1  25
HETATM   25  N1  UNL     1      25.440  -0.057  53.258  1.00  0.00    -0.276 NA
HETATM   26  C2  UNL     1      26.560  -0.527  53.676  1.00  0.00     0.085 C 
HETATM   27  C1  UNL     1      27.941  -0.119  53.292  1.00  0.00     0.057 C 
ENDBRANCH   1  25
TORSDOF 7
ENDMDL
MODEL 2
REMARK VINA RESULT:      -7.3      2.527      9.389
REMARK  7 active torsions:
REMARK  status: ('A' for Active; 'I' for Inactive)
REMARK    1  A    between atoms: N1_3  and  C3_4 
REMARK    2  A    between atoms: C4_5  and  C6_8 
REMARK    3  A    between atoms: C6_8  and  N3_9 
REMARK    4  A    between atoms: N3_9  and  C7_10 
REMARK    5  A    between atoms: C10_13  and  O1_14 
REMARK    6  A    between atoms: O1_14  and  C11_15 
REMARK    7  A    between atoms: C11_15  and  C12_16 
ROOT
HETATM    1  C3  UNL     1      29.110   7.744  48.232  1.00  0.00     0.135 C 
HETATM    2  C4  UNL     1      27.860   7.789  48.698  1.00  0.00     0.057 C 
HETATM    3  C5  UNL     1      27.542   8.993  49.375  1.00  0.00     0.098 C 
HETATM    4  N2  UNL     1      27.263   9.965  49.927  1.00  0.00    -0.192 NA
ENDROOT
BRANCH   2   5
HETATM    5  C6  UNL     1      27.049   6.591  48.425  1.00  0.00     0.171 C 
BRANCH   5   6
HETATM    6  N3  UNL     1      26.182   6.268  49.542  1.00  0.00    -0.385 N 
HETATM    7  H8  UNL     1      25.843   7.150  50.009  1.00  0.00     0.160 HD
BRANCH   6   8
HETATM    8  C7  UNL     1      25.736   5.031  50.076  1.00  0.00     0.029 A 
HETATM    9  C8  UNL     1      26.484   3.882  49.797  1.00  0.00     0.032 A 
HETATM   10  C9  UNL     1      26.021   2.702  50.307  1.00  0.00     0.041 A 
HETATM   11  C10 UNL     1      24.884   2.560  51.067  1.00  0.00     0.091 A 
HETATM   12  C19 UNL     1      24.145   3.720  51.340  1.00  0.00     0.069 A 
HETATM   13 CL1  UNL     1      22.666   3.703  52.299  1.00  0.00    -0.081 Cl
HETATM   14  C20 UNL     1      24.584   4.951  50.835  1.00  0.00     0.056 A 
BRANCH  11  15
HETATM   15  O1  UNL     1      24.354   1.459  51.607  1.00  0.00    -0.345 OA
BRANCH  15  16
HETATM   16  C11 UNL     1      24.656   0.596  52.614  1.00  0.00     0.214 C 
BRANCH  16  17
HETATM   17  C12 UNL     1      23.570  -0.068  53.336  1.00  0.00    -0.033 A 
HETATM   18  C13 UNL     1      23.547  -0.862  54.464  1.00  0.00     0.009 A 
HETATM   19  C14 UNL     1      22.387  -1.389  54.958  1.00  0.00     0.002 A 
HETATM   20  C15 UNL     1      21.173  -1.154  54.352  1.00  0.00     0.022 A 
HETATM   21  C16 UNL     1      21.150  -0.361  53.217  1.00  0.00     0.045 A 
HETATM   22  C17 UNL     1      19.869  -0.138  52.616  1.00  0.00     0.099 C 
HETATM   23  C18 UNL     1      22.344   0.175  52.717  1.00  0.00     0.032 A 
HETATM   24  N4  UNL     1      18.850   0.050  52.136  1.00  0.00    -0.191 NA
ENDBRANCH  16  17
ENDBRANCH  15  16
ENDBRANCH  11  15
ENDBRANCH   6   8
ENDBRANCH   5   6
ENDBRANCH   2   5
BRANCH   1  25
HETATM   25  N1  UNL     1      29.867   6.770  47.507  1.00  0.00    -0.276 NA
HETATM   26  C2  UNL     1      30.690   6.001  48.126  1.00  0.00     0.085 C 
HETATM   27  C1  UNL     1      31.565   4.933  47.567  1.00  0.00     0.057 C 
ENDBRANCH   1  25
TORSDOF 7
ENDMDL
MODEL 3
REMARK VINA RESULT:      -7.3      5.067      7.725
REMARK  7 active torsions:
REMARK  status: ('A' for Active; 'I' for Inactive)
REMARK    1  A    between atoms: N1_3  and  C3_4 
REMARK    2  A    between atoms: C4_5  and  C6_8 
REMARK    3  A    between atoms: C6_8  and  N3_9 
REMARK    4  A    between atoms: N3_9  and  C7_10 
REMARK    5  A    between atoms: C10_13  and  O1_14 
REMARK    6  A    between atoms: O1_14  and  C11_15 
REMARK    7  A    between atoms: C11_15  and  C12_16 
ROOT
HETATM    1  C3  UNL     1      19.561   4.533  50.437  1.00  0.00     0.135 C 
HETATM    2  C4  UNL     1      20.681   4.975  49.862  1.00  0.00     0.057 C 
HETATM    3  C5  UNL     1      21.168   6.189  50.407  1.00  0.00     0.098 C 
HETATM    4  N2  UNL     1      21.581   7.175  50.838  1.00  0.00    -0.192 NA
ENDROOT
BRANCH   2   5
HETATM    5  C6  UNL     1      21.200   4.127  48.776  1.00  0.00     0.171 C 
BRANCH   5   6
HETATM    6  N3  UNL     1      21.342   2.747  49.197  1.00  0.00    -0.385 N 
HETATM    7  H8  UNL     1      20.702   2.125  48.636  1.00  0.00     0.160 HD
BRANCH   6   8
HETATM    8  C7  UNL     1      22.157   2.129  50.181  1.00  0.00     0.029 A 
HETATM    9  C8  UNL     1      21.575   1.163  51.010  1.00  0.00     0.032 A 
HETATM   10  C9  UNL     1      22.377   0.600  51.962  1.00  0.00     0.041 A 
HETATM   11  C10 UNL     1      23.702   0.907  52.165  1.00  0.00     0.091 A 
HETATM   12  C19 UNL     1      24.272   1.875  51.327  1.00  0.00     0.069 A 
HETATM   13 CL1  UNL     1      25.956   2.378  51.460  1.00  0.00    -0.081 Cl
HETATM   14  C20 UNL     1      23.484   2.479  50.338  1.00  0.00     0.056 A 
BRANCH  11  15
HETATM   15  O1  UNL     1      24.562   0.414  53.061  1.00  0.00    -0.345 OA
BRANCH  15  16
HETATM   16  C11 UNL     1      25.117  -0.793  53.353  1.00  0.00     0.214 C 
BRANCH  16  17
HETATM   17  C12 UNL     1      26.573  -0.932  53.335  1.00  0.00    -0.033 A 
HETATM   18  C13 UNL     1      27.410  -1.932  52.886  1.00  0.00     0.009 A 
HETATM   19  C14 UNL     1      28.771  -1.841  52.986  1.00  0.00     0.002 A 
HETATM   20  C15 UNL     1      29.380  -0.740  53.544  1.00  0.00     0.022 A 
HETATM   21  C16 UNL     1      28.577   0.289  54.008  1.00  0.00     0.045 A 
HETATM   22  C17 UNL     1      29.247   1.418  54.581  1.00  0.00     0.099 C 
HETATM   23  C18 UNL     1      27.184   0.187  53.902  1.00  0.00     0.032 A 
HETATM   24  N4  UNL     1      29.776   2.324  55.031  1.00  0.00    -0.191 NA
ENDBRANCH  16  17
ENDBRANCH  15  16
ENDBRANCH  11  15
ENDBRANCH   6   8
ENDBRANCH   5   6
ENDBRANCH   2   5
BRANCH   1  25
HETATM   25  N1  UNL     1      18.722   3.392  50.236  1.00  0.00    -0.276 NA
HETATM   26  C2  UNL     1      18.086   2.876  51.226  1.00  0.00     0.085 C 
HETATM   27  C1  UNL     1      17.171   1.700  51.233  1.00  0.00     0.057 C 
ENDBRANCH   1  25
TORSDOF 7
ENDMDL
MODEL 4
REMARK VINA RESULT:      -7.2      3.920      9.706
REMARK  7 active torsions:
REMARK  status: ('A' for Active; 'I' for Inactive)
REMARK    1  A    between atoms: N1_3  and  C3_4 
REMARK    2  A    between atoms: C4_5  and  C6_8 
REMARK    3  A    between atoms: C6_8  and  N3_9 
REMARK    4  A    between atoms: N3_9  and  C7_10 
REMARK    5  A    between atoms: C10_13  and  O1_14 
REMARK    6  A    between atoms: O1_14  and  C11_15 
REMARK    7  A    between atoms: C11_15  and  C12_16 
ROOT
HETATM    1  C3  UNL     1      26.954   5.103  48.952  1.00  0.00     0.135 C 
HETATM    2  C4  UNL     1      26.018   4.524  49.707  1.00  0.00     0.057 C 
HETATM    3  C5  UNL     1      24.809   5.259  49.789  1.00  0.00     0.098 C 
HETATM    4  N2  UNL     1      23.817   5.841  49.867  1.00  0.00    -0.192 NA
ENDROOT
BRANCH   2   5
HETATM    5  C6  UNL     1      26.410   3.240  50.310  1.00  0.00     0.171 C 
BRANCH   5   6
HETATM    6  N3  UNL     1      25.670   2.974  51.529  1.00  0.00    -0.385 N 
HETATM    7  H8  UNL     1      26.075   3.526  52.330  1.00  0.00     0.160 HD
BRANCH   6   8
HETATM    8  C7  UNL     1      24.553   2.143  51.805  1.00  0.00     0.029 A 
HETATM    9  C8  UNL     1      24.471   1.544  53.067  1.00  0.00     0.032 A 
HETATM   10  C9  UNL     1      23.396   0.734  53.298  1.00  0.00     0.041 A 
HETATM   11  C10 UNL     1      22.397   0.464  52.392  1.00  0.00     0.091 A 
HETATM   12  C19 UNL     1      22.492   1.072  51.133  1.00  0.00     0.069 A 
HETATM   13 CL1  UNL     1      21.293   0.827  49.864  1.00  0.00    -0.081 Cl
HETATM   14  C20 UNL     1      23.580   1.910  50.853  1.00  0.00     0.056 A 
BRANCH  11  15
HETATM   15  O1  UNL     1      21.314  -0.308  52.524  1.00  0.00    -0.345 OA
BRANCH  15  16
HETATM   16  C11 UNL     1      20.339  -0.510  53.451  1.00  0.00     0.214 C 
BRANCH  16  17
HETATM   17  C12 UNL     1      18.974  -0.784  53.002  1.00  0.00    -0.033 A 
HETATM   18  C13 UNL     1      17.997  -1.644  53.457  1.00  0.00     0.009 A 
HETATM   19  C14 UNL     1      16.771  -1.737  52.857  1.00  0.00     0.002 A 
HETATM   20  C15 UNL     1      16.448  -0.972  51.759  1.00  0.00     0.022 A 
HETATM   21  C16 UNL     1      17.400  -0.094  51.268  1.00  0.00     0.045 A 
HETATM   22  C17 UNL     1      17.026   0.686  50.127  1.00  0.00     0.099 C 
HETATM   23  C18 UNL     1      18.652  -0.005  51.889  1.00  0.00     0.032 A 
HETATM   24  N4  UNL     1      16.731   1.316  49.221  1.00  0.00    -0.191 NA
ENDBRANCH  16  17
ENDBRANCH  15  16
ENDBRANCH  11  15
ENDBRANCH   6   8
ENDBRANCH   5   6
ENDBRANCH   2   5
BRANCH   1  25
HETATM   25  N1  UNL     1      28.291   4.754  48.583  1.00  0.00    -0.276 NA
HETATM   26  C2  UNL     1      29.121   5.667  48.226  1.00  0.00     0.085 C 
HETATM   27  C1  UNL     1      30.544   5.518  47.807  1.00  0.00     0.057 C 
ENDBRANCH   1  25
TORSDOF 7
ENDMDL
MODEL 5
REMARK VINA RESULT:      -7.2      1.840      3.219
REMARK  7 active torsions:
REMARK  status: ('A' for Active; 'I' for Inactive)
REMARK    1  A    between atoms: N1_3  and  C3_4 
REMARK    2  A    between atoms: C4_5  and  C6_8 
REMARK    3  A    between atoms: C6_8  and  N3_9 
REMARK    4  A    between atoms: N3_9  and  C7_10 
REMARK    5  A    between atoms: C10_13  and  O1_14 
REMARK    6  A    between atoms: O1_14  and  C11_15 
REMARK    7  A    between atoms: C11_15  and  C12_16 
ROOT
HETATM    1  C3  UNL     1      24.950  -0.831  53.448  1.00  0.00     0.135 C 
HETATM    2  C4  UNL     1      26.054  -0.083  53.419  1.00  0.00     0.057 C 
HETATM    3  C5  UNL     1      27.258  -0.831  53.461  1.00  0.00     0.098 C 
HETATM    4  N2  UNL     1      28.246  -1.422  53.493  1.00  0.00    -0.192 NA
ENDROOT
BRANCH   2   5
HETATM    5  C6  UNL     1      25.822   1.369  53.350  1.00  0.00     0.171 C 
BRANCH   5   6
HETATM    6  N3  UNL     1      25.176   1.748  52.109  1.00  0.00    -0.385 N 
HETATM    7  H8  UNL     1      24.485   1.008  51.815  1.00  0.00     0.160 HD
BRANCH   6   8
HETATM    8  C7  UNL     1      25.310   2.888  51.273  1.00  0.00     0.029 A 
HETATM    9  C8  UNL     1      26.306   2.873  50.290  1.00  0.00     0.032 A 
HETATM   10  C9  UNL     1      26.425   3.990  49.513  1.00  0.00     0.041 A 
HETATM   11  C10 UNL     1      25.648   5.119  49.623  1.00  0.00     0.091 A 
HETATM   12  C19 UNL     1      24.654   5.119  50.612  1.00  0.00     0.069 A 
HETATM   13 CL1  UNL     1      23.577   6.489  50.879  1.00  0.00    -0.081 Cl
HETATM   14  C20 UNL     1      24.498   3.994  51.432  1.00  0.00     0.056 A 
BRANCH  11  15
HETATM   15  O1  UNL     1      25.687   6.252  48.917  1.00  0.00    -0.345 OA
BRANCH  15  16
HETATM   16  C11 UNL     1      26.495   6.815  47.978  1.00  0.00     0.214 C 
BRANCH  16  17
HETATM   17  C12 UNL     1      27.944   6.792  48.177  1.00  0.00    -0.033 A 
HETATM   18  C13 UNL     1      28.886   5.790  48.067  1.00  0.00     0.009 A 
HETATM   19  C14 UNL     1      30.212   6.007  48.318  1.00  0.00     0.002 A 
HETATM   20  C15 UNL     1      30.680   7.245  48.696  1.00  0.00     0.022 A 
HETATM   21  C16 UNL     1      29.768   8.281  48.819  1.00  0.00     0.045 A 
HETATM   22  C17 UNL     1      30.294   9.554  49.213  1.00  0.00     0.099 C 
HETATM   23  C18 UNL     1      28.412   8.050  48.560  1.00  0.00     0.032 A 
HETATM   24  N4  UNL     1      30.707  10.574  49.520  1.00  0.00    -0.191 NA
ENDBRANCH  16  17
ENDBRANCH  15  16
ENDBRANCH  11  15
ENDBRANCH   6   8
ENDBRANCH   5   6
ENDBRANCH   2   5
BRANCH   1  25
HETATM   25  N1  UNL     1      23.549  -0.539  53.427  1.00  0.00    -0.276 NA
HETATM   26  C2  UNL     1      22.796  -0.920  54.396  1.00  0.00     0.085 C 
HETATM   27  C1  UNL     1      21.329  -0.721  54.567  1.00  0.00     0.057 C 
ENDBRANCH   1  25
TORSDOF 7
ENDMDL
MODEL 6
REMARK VINA RESULT:      -7.2      2.851      9.137
REMARK  7 active torsions:
REMARK  status: ('A' for Active; 'I' for Inactive)
REMARK    1  A    between atoms: N1_3  and  C3_4 
REMARK    2  A    between atoms: C4_5  and  C6_8 
REMARK    3  A    between atoms: C6_8  and  N3_9 
REMARK    4  A    between atoms: N3_9  and  C7_10 
REMARK    5  A    between atoms: C10_13  and  O1_14 
REMARK    6  A    between atoms: O1_14  and  C11_15 
REMARK    7  A    between atoms: C11_15  and  C12_16 
ROOT
HETATM    1  C3  UNL     1      29.851  10.108  48.508  1.00  0.00     0.135 C 
HETATM    2  C4  UNL     1      28.702  10.688  48.156  1.00  0.00     0.057 C 
HETATM    3  C5  UNL     1      28.471  11.936  48.785  1.00  0.00     0.098 C 
HETATM    4  N2  UNL     1      28.265  12.954  49.285  1.00  0.00    -0.192 NA
ENDROOT
BRANCH   2   5
HETATM    5  C6  UNL     1      27.893   9.930  47.186  1.00  0.00     0.171 C 
BRANCH   5   6
HETATM    6  N3  UNL     1      26.732   9.329  47.814  1.00  0.00    -0.385 N 
HETATM    7  H8  UNL     1      25.911   9.990  47.772  1.00  0.00     0.160 HD
BRANCH   6   8
HETATM    8  C7  UNL     1      26.528   8.070  48.436  1.00  0.00     0.029 A 
HETATM    9  C8  UNL     1      27.290   6.983  47.992  1.00  0.00     0.032 A 
HETATM   10  C9  UNL     1      27.058   5.779  48.594  1.00  0.00     0.041 A 
HETATM   11  C10 UNL     1      26.142   5.556  49.594  1.00  0.00     0.091 A 
HETATM   12  C19 UNL     1      25.387   6.654  50.029  1.00  0.00     0.069 A 
HETATM   13 CL1  UNL     1      24.173   6.531  51.301  1.00  0.00    -0.081 Cl
HETATM   14  C20 UNL     1      25.591   7.908  49.437  1.00  0.00     0.056 A 
BRANCH  11  15
HETATM   15  O1  UNL     1      25.845   4.425  50.241  1.00  0.00    -0.345 OA
BRANCH  15  16
HETATM   16  C11 UNL     1      26.402   3.194  50.406  1.00  0.00     0.214 C 
BRANCH  16  17
HETATM   17  C12 UNL     1      25.749   2.229  51.289  1.00  0.00    -0.033 A 
HETATM   18  C13 UNL     1      24.477   2.160  51.820  1.00  0.00     0.009 A 
HETATM   19  C14 UNL     1      24.089   1.144  52.649  1.00  0.00     0.002 A 
HETATM   20  C15 UNL     1      24.953   0.131  53.000  1.00  0.00     0.022 A 
HETATM   21  C16 UNL     1      26.240   0.161  52.490  1.00  0.00     0.045 A 
HETATM   22  C17 UNL     1      27.108  -0.911  52.876  1.00  0.00     0.099 C 
HETATM   23  C18 UNL     1      26.629   1.205  51.641  1.00  0.00     0.032 A 
HETATM   24  N4  UNL     1      27.804  -1.766  53.175  1.00  0.00    -0.191 NA
ENDBRANCH  16  17
ENDBRANCH  15  16
ENDBRANCH  11  15
ENDBRANCH   6   8
ENDBRANCH   5   6
ENDBRANCH   2   5
BRANCH   1  25
HETATM   25  N1  UNL     1      30.499   8.883  48.151  1.00  0.00    -0.276 NA
HETATM   26  C2  UNL     1      30.696   7.976  49.038  1.00  0.00     0.085 C 
HETATM   27  C1  UNL     1      31.345   6.644  48.878  1.00  0.00     0.057 C 
ENDBRANCH   1  25
TORSDOF 7
ENDMDL
MODEL 7
REMARK VINA RESULT:      -7.2      2.349      9.375
REMARK  7 active torsions:
REMARK  status: ('A' for Active; 'I' for Inactive)
REMARK    1  A    between atoms: N1_3  and  C3_4 
REMARK    2  A    between atoms: C4_5  and  C6_8 
REMARK    3  A    between atoms: C6_8  and  N3_9 
REMARK    4  A    between atoms: N3_9  and  C7_10 
REMARK    5  A    between atoms: C10_13  and  O1_14 
REMARK    6  A    between atoms: O1_14  and  C11_15 
REMARK    7  A    between atoms: C11_15  and  C12_16 
ROOT
HETATM    1  C3  UNL     1      31.680   7.944  48.005  1.00  0.00     0.135 C 
HETATM    2  C4  UNL     1      30.696   7.060  48.177  1.00  0.00     0.057 C 
HETATM    3  C5  UNL     1      31.129   5.710  48.172  1.00  0.00     0.098 C 
HETATM    4  N2  UNL     1      31.460   4.606  48.173  1.00  0.00    -0.192 NA
ENDROOT
BRANCH   2   5
HETATM    5  C6  UNL     1      29.354   7.643  48.338  1.00  0.00     0.171 C 
BRANCH   5   6
HETATM    6  N3  UNL     1      28.320   6.746  47.860  1.00  0.00    -0.385 N 
HETATM    7  H8  UNL     1      28.405   6.613  46.817  1.00  0.00     0.160 HD
BRANCH   6   8
HETATM    8  C7  UNL     1      27.275   6.054  48.525  1.00  0.00     0.029 A 
HETATM    9  C8  UNL     1      26.103   6.758  48.825  1.00  0.00     0.032 A 
HETATM   10  C9  UNL     1      25.121   6.073  49.484  1.00  0.00     0.041 A 
HETATM   11  C10 UNL     1      25.197   4.756  49.871  1.00  0.00     0.091 A 
HETATM   12  C19 UNL     1      26.376   4.064  49.562  1.00  0.00     0.069 A 
HETATM   13 CL1  UNL     1      26.626   2.372  49.990  1.00  0.00    -0.081 Cl
HETATM   14  C20 UNL     1      27.409   4.729  48.889  1.00  0.00     0.056 A 
BRANCH  11  15
HETATM   15  O1  UNL     1      24.298   4.005  50.513  1.00  0.00    -0.345 OA
BRANCH  15  16
HETATM   16  C11 UNL     1      23.870   3.836  51.794  1.00  0.00     0.214 C 
BRANCH  16  17
HETATM   17  C12 UNL     1      23.435   2.510  52.232  1.00  0.00    -0.033 A 
HETATM   18  C13 UNL     1      22.215   1.868  52.193  1.00  0.00     0.009 A 
HETATM   19  C14 UNL     1      22.043   0.603  52.683  1.00  0.00     0.002 A 
HETATM   20  C15 UNL     1      23.085  -0.099  53.244  1.00  0.00     0.022 A 
HETATM   21  C16 UNL     1      24.328   0.508  53.304  1.00  0.00     0.045 A 
HETATM   22  C17 UNL     1      25.387  -0.255  53.894  1.00  0.00     0.099 C 
HETATM   23  C18 UNL     1      24.495   1.804  52.800  1.00  0.00     0.032 A 
HETATM   24  N4  UNL     1      26.238  -0.861  54.356  1.00  0.00    -0.191 NA
ENDBRANCH  16  17
ENDBRANCH  15  16
ENDBRANCH  11  15
ENDBRANCH   6   8
ENDBRANCH   5   6
ENDBRANCH   2   5
BRANCH   1  25
HETATM   25  N1  UNL     1      31.734   9.373  47.938  1.00  0.00    -0.276 NA
HETATM   26  C2  UNL     1      32.693   9.953  47.310  1.00  0.00     0.085 C 
HETATM   27  C1  UNL     1      32.933  11.412  47.124  1.00  0.00     0.057 C 
ENDBRANCH   1  25
TORSDOF 7
ENDMDL
MODEL 8
REMARK VINA RESULT:      -7.2      3.564      9.044
REMARK  7 active torsions:
REMARK  status: ('A' for Active; 'I' for Inactive)
REMARK    1  A    between atoms: N1_3  and  C3_4 
REMARK    2  A    between atoms: C4_5  and  C6_8 
REMARK    3  A    between atoms: C6_8  and  N3_9 
REMARK    4  A    between atoms: N3_9  and  C7_10 
REMARK    5  A    between atoms: C10_13  and  O1_14 
REMARK    6  A    between atoms: O1_14  and  C11_15 
REMARK    7  A    between atoms: C11_15  and  C12_16 
ROOT
HETATM    1  C3  UNL     1      24.337   7.997  48.781  1.00  0.00     0.135 C 
HETATM    2  C4  UNL     1      24.789   8.257  50.009  1.00  0.00     0.057 C 
HETATM    3  C5  UNL     1      25.948   9.073  50.035  1.00  0.00     0.098 C 
HETATM    4  N2  UNL     1      26.888   9.737  50.077  1.00  0.00    -0.192 NA
ENDROOT
BRANCH   2   5
HETATM    5  C6  UNL     1      24.008   7.654  51.102  1.00  0.00     0.171 C 
BRANCH   5   6
HETATM    6  N3  UNL     1      24.328   6.250  51.275  1.00  0.00    -0.385 N 
HETATM    7  H8  UNL     1      25.346   6.135  51.524  1.00  0.00     0.160 HD
BRANCH   6   8
HETATM    8  C7  UNL     1      23.542   5.073  51.174  1.00  0.00     0.029 A 
HETATM    9  C8  UNL     1      22.867   4.628  52.317  1.00  0.00     0.032 A 
HETATM   10  C9  UNL     1      22.135   3.482  52.197  1.00  0.00     0.041 A 
HETATM   11  C10 UNL     1      22.011   2.737  51.047  1.00  0.00     0.091 A 
HETATM   12  C19 UNL     1      22.692   3.195  49.910  1.00  0.00     0.069 A 
HETATM   13 CL1  UNL     1      22.633   2.353  48.363  1.00  0.00    -0.081 Cl
HETATM   14  C20 UNL     1      23.456   4.367  49.990  1.00  0.00     0.056 A 
BRANCH  11  15
HETATM   15  O1  UNL     1      21.323   1.612  50.832  1.00  0.00    -0.345 OA
BRANCH  15  16
HETATM   16  C11 UNL     1      21.478   0.284  51.083  1.00  0.00     0.214 C 
BRANCH  16  17
HETATM   17  C12 UNL     1      21.668  -0.163  52.463  1.00  0.00    -0.033 A 
HETATM   18  C13 UNL     1      20.782  -0.499  53.466  1.00  0.00     0.009 A 
HETATM   19  C14 UNL     1      21.203  -0.888  54.707  1.00  0.00     0.002 A 
HETATM   20  C15 UNL     1      22.540  -0.965  55.023  1.00  0.00     0.022 A 
HETATM   21  C16 UNL     1      23.465  -0.637  54.046  1.00  0.00     0.045 A 
HETATM   22  C17 UNL     1      24.846  -0.731  54.412  1.00  0.00     0.099 C 
HETATM   23  C18 UNL     1      23.026  -0.240  52.777  1.00  0.00     0.032 A 
HETATM   24  N4  UNL     1      25.950  -0.811  54.695  1.00  0.00    -0.191 NA
ENDBRANCH  16  17
ENDBRANCH  15  16
ENDBRANCH  11  15
ENDBRANCH   6   8
ENDBRANCH   5   6
ENDBRANCH   2   5
BRANCH   1  25
HETATM   25  N1  UNL     1      23.235   7.244  48.264  1.00  0.00    -0.276 NA
HETATM   26  C2  UNL     1      23.322   6.679  47.114  1.00  0.00     0.085 C 
HETATM   27  C1  UNL     1      22.303   5.859  46.401  1.00  0.00     0.057 C 
ENDBRANCH   1  25
TORSDOF 7
ENDMDL
MODEL 9
REMARK VINA RESULT:      -7.0      3.822      7.058
REMARK  7 active torsions:
REMARK  status: ('A' for Active; 'I' for Inactive)
REMARK    1  A    between atoms: N1_3  and  C3_4 
REMARK    2  A    between atoms: C4_5  and  C6_8 
REMARK    3  A    between atoms: C6_8  and  N3_9 
REMARK    4  A    between atoms: N3_9  and  C7_10 
REMARK    5  A    between atoms: C10_13  and  O1_14 
REMARK    6  A    between atoms: O1_14  and  C11_15 
REMARK    7  A    between atoms: C11_15  and  C12_16 
ROOT
HETATM    1  C3  UNL     1      26.997  -0.608  54.190  1.00  0.00     0.135 C 
HETATM    2  C4  UNL     1      28.084   0.102  53.881  1.00  0.00     0.057 C 
HETATM    3  C5  UNL     1      29.275  -0.665  53.826  1.00  0.00     0.098 C 
HETATM    4  N2  UNL     1      30.254  -1.271  53.775  1.00  0.00    -0.192 NA
ENDROOT
BRANCH   2   5
HETATM    5  C6  UNL     1      27.848   1.538  53.655  1.00  0.00     0.171 C 
BRANCH   5   6
HETATM    6  N3  UNL     1      27.045   1.768  52.470  1.00  0.00    -0.385 N 
HETATM    7  H8  UNL     1      27.432   1.223  51.655  1.00  0.00     0.160 HD
BRANCH   6   8
HETATM    8  C7  UNL     1      25.888   2.557  52.240  1.00  0.00     0.029 A 
HETATM    9  C8  UNL     1      25.067   2.859  53.332  1.00  0.00     0.032 A 
HETATM   10  C9  UNL     1      23.949   3.603  53.078  1.00  0.00     0.041 A 
HETATM   11  C10 UNL     1      23.574   4.073  51.842  1.00  0.00     0.091 A 
HETATM   12  C19 UNL     1      24.407   3.763  50.758  1.00  0.00     0.069 A 
HETATM   13 CL1  UNL     1      24.063   4.292  49.112  1.00  0.00    -0.081 Cl
HETATM   14  C20 UNL     1      25.563   3.001  50.974  1.00  0.00     0.056 A 
BRANCH  11  15
HETATM   15  O1  UNL     1      22.509   4.803  51.496  1.00  0.00    -0.345 OA
BRANCH  15  16
HETATM   16  C11 UNL     1      21.206   4.577  51.177  1.00  0.00     0.214 C 
BRANCH  16  17
HETATM   17  C12 UNL     1      20.808   3.256  50.691  1.00  0.00    -0.033 A 
HETATM   18  C13 UNL     1      20.695   2.723  49.424  1.00  0.00     0.009 A 
HETATM   19  C14 UNL     1      20.285   1.435  49.211  1.00  0.00     0.002 A 
HETATM   20  C15 UNL     1      19.963   0.600  50.256  1.00  0.00     0.022 A 
HETATM   21  C16 UNL     1      20.063   1.095  51.546  1.00  0.00     0.045 A 
HETATM   22  C17 UNL     1      19.721   0.195  52.607  1.00  0.00     0.099 C 
HETATM   23  C18 UNL     1      20.483   2.414  51.755  1.00  0.00     0.032 A 
HETATM   24  N4  UNL     1      19.457  -0.520  53.457  1.00  0.00    -0.191 NA
ENDBRANCH  16  17
ENDBRANCH  15  16
ENDBRANCH  11  15
ENDBRANCH   6   8
ENDBRANCH   5   6
ENDBRANCH   2   5
BRANCH   1  25
HETATM   25  N1  UNL     1      25.613  -0.285  54.359  1.00  0.00    -0.276 NA
HETATM   26  C2  UNL     1      24.737  -0.757  53.546  1.00  0.00     0.085 C 
HETATM   27  C1  UNL     1      23.262  -0.547  53.544  1.00  0.00     0.057 C 
ENDBRANCH   1  25
TORSDOF 7
ENDMDL
