MODEL 1
REMARK VINA RESULT:      -6.9      0.000      0.000
REMARK  8 active torsions:
REMARK  status: ('A' for Active; 'I' for Inactive)
REMARK    1  A    between atoms: C5_6  and  C6_7 
REMARK    2  A    between atoms: C6_7  and  O1_8 
REMARK    3  A    between atoms: O1_8  and  C7_9 
REMARK    4  A    between atoms: C7_9  and  C8_10 
REMARK    5  A    between atoms: C9_12  and  C10_13 
REMARK    6  A    between atoms: C10_13  and  C11_14 
REMARK    7  A    between atoms: C11_14  and  N1_15 
REMARK    8  A    between atoms: N1_15  and  C12_16 
ROOT
HETATM    1  C8  UNL     1      23.114   3.138  49.575  1.00  0.00     0.031 C 
HETATM    2 CL1  UNL     1      22.275   2.433  48.193  1.00  0.00    -0.087 Cl
HETATM    3  C9  UNL     1      24.332   3.622  49.260  1.00  0.00    -0.004 C 
ENDROOT
BRANCH   1   4
HETATM    4  C7  UNL     1      22.649   3.277  50.973  1.00  0.00     0.218 C 
BRANCH   4   5
HETATM    5  O1  UNL     1      23.159   2.338  51.820  1.00  0.00    -0.381 OA
BRANCH   5   6
HETATM    6  C6  UNL     1      23.072   1.039  51.433  1.00  0.00     0.206 C 
BRANCH   6   7
HETATM    7  C5  UNL     1      22.415   0.254  52.544  1.00  0.00    -0.032 A 
HETATM    8  C4  UNL     1      21.072  -0.025  52.673  1.00  0.00     0.009 A 
HETATM    9  C3  UNL     1      20.679  -0.755  53.769  1.00  0.00     0.004 A 
HETATM   10  C2  UNL     1      21.554  -1.212  54.730  1.00  0.00     0.042 A 
HETATM   11  C1  UNL     1      22.891  -0.926  54.588  1.00  0.00     0.117 A 
HETATM   12  F1  UNL     1      23.782  -1.371  55.534  1.00  0.00    -0.206 F 
HETATM   13  C16 UNL     1      23.284  -0.195  53.490  1.00  0.00     0.051 A 
ENDBRANCH   6   7
ENDBRANCH   5   6
ENDBRANCH   4   5
ENDBRANCH   1   4
BRANCH   3  14
HETATM   14  C10 UNL     1      25.474   4.308  49.879  1.00  0.00     0.048 C 
BRANCH  14  15
HETATM   15  C11 UNL     1      26.565   3.401  50.374  1.00  0.00     0.125 C 
BRANCH  15  16
HETATM   16  N1  UNL     1      26.303   2.805  51.662  1.00  0.00    -0.373 N 
HETATM   17  H13 UNL     1      25.654   3.343  52.306  1.00  0.00     0.161 HD
BRANCH  16  18
HETATM   18  C12 UNL     1      26.544   1.727  52.544  1.00  0.00     0.145 A 
HETATM   19  C13 UNL     1      26.771   0.398  52.227  1.00  0.00     0.053 A 
HETATM   20  C14 UNL     1      26.969  -0.448  53.299  1.00  0.00     0.025 A 
HETATM   21  C15 UNL     1      26.941   0.005  54.600  1.00  0.00     0.141 A 
HETATM   22  N2  UNL     1      26.714   1.322  54.850  1.00  0.00    -0.161 NA
HETATM   23  N3  UNL     1      26.518   2.172  53.827  1.00  0.00    -0.133 NA
ENDBRANCH  16  18
ENDBRANCH  15  16
ENDBRANCH  14  15
ENDBRANCH   3  14
TORSDOF 8
ENDMDL
MODEL 2
REMARK VINA RESULT:      -6.8      1.432      1.740
REMARK  8 active torsions:
REMARK  status: ('A' for Active; 'I' for Inactive)
REMARK    1  A    between atoms: C5_6  and  C6_7 
REMARK    2  A    between atoms: C6_7  and  O1_8 
REMARK    3  A    between atoms: O1_8  and  C7_9 
REMARK    4  A    between atoms: C7_9  and  C8_10 
REMARK    5  A    between atoms: C9_12  and  C10_13 
REMARK    6  A    between atoms: C10_13  and  C11_14 
REMARK    7  A    between atoms: C11_14  and  N1_15 
REMARK    8  A    between atoms: N1_15  and  C12_16 
ROOT
HETATM    1  C8  UNL     1      23.216   2.924  50.131  1.00  0.00     0.031 C 
HETATM    2 CL1  UNL     1      22.126   2.115  49.004  1.00  0.00    -0.087 Cl
HETATM    3  C9  UNL     1      24.335   3.387  49.539  1.00  0.00    -0.004 C 
ENDROOT
BRANCH   1   4
HETATM    4  C7  UNL     1      23.043   3.166  51.580  1.00  0.00     0.218 C 
BRANCH   4   5
HETATM    5  O1  UNL     1      23.667   2.248  52.372  1.00  0.00    -0.381 OA
BRANCH   5   6
HETATM    6  C6  UNL     1      23.674   0.960  51.943  1.00  0.00     0.206 C 
BRANCH   6   7
HETATM    7  C5  UNL     1      22.960   0.112  52.970  1.00  0.00    -0.032 A 
HETATM    8  C4  UNL     1      23.529  -0.517  54.056  1.00  0.00     0.009 A 
HETATM    9  C3  UNL     1      22.698  -1.250  54.869  1.00  0.00     0.004 A 
HETATM   10  C2  UNL     1      21.344  -1.380  54.651  1.00  0.00     0.042 A 
HETATM   11  C1  UNL     1      20.791  -0.746  53.564  1.00  0.00     0.117 A 
HETATM   12  F1  UNL     1      19.443  -0.862  53.327  1.00  0.00    -0.206 F 
HETATM   13  C16 UNL     1      21.624  -0.013  52.750  1.00  0.00     0.051 A 
ENDBRANCH   6   7
ENDBRANCH   5   6
ENDBRANCH   4   5
ENDBRANCH   1   4
BRANCH   3  14
HETATM   14  C10 UNL     1      25.567   4.120  49.860  1.00  0.00     0.048 C 
BRANCH  14  15
HETATM   15  C11 UNL     1      26.751   3.257  50.189  1.00  0.00     0.125 C 
BRANCH  15  16
HETATM   16  N1  UNL     1      26.755   2.743  51.539  1.00  0.00    -0.373 N 
HETATM   17  H13 UNL     1      25.996   3.110  52.183  1.00  0.00     0.161 HD
BRANCH  16  18
HETATM   18  C12 UNL     1      27.371   1.895  52.485  1.00  0.00     0.145 A 
HETATM   19  C13 UNL     1      27.125   0.552  52.718  1.00  0.00     0.053 A 
HETATM   20  C14 UNL     1      27.874  -0.029  53.721  1.00  0.00     0.025 A 
HETATM   21  C15 UNL     1      28.807   0.684  54.441  1.00  0.00     0.141 A 
HETATM   22  N2  UNL     1      29.006   2.001  54.167  1.00  0.00    -0.161 NA
HETATM   23  N3  UNL     1      28.293   2.597  53.196  1.00  0.00    -0.133 NA
ENDBRANCH  16  18
ENDBRANCH  15  16
ENDBRANCH  14  15
ENDBRANCH   3  14
TORSDOF 8
ENDMDL
MODEL 3
REMARK VINA RESULT:      -6.7      1.952      2.525
REMARK  8 active torsions:
REMARK  status: ('A' for Active; 'I' for Inactive)
REMARK    1  A    between atoms: C5_6  and  C6_7 
REMARK    2  A    between atoms: C6_7  and  O1_8 
REMARK    3  A    between atoms: O1_8  and  C7_9 
REMARK    4  A    between atoms: C7_9  and  C8_10 
REMARK    5  A    between atoms: C9_12  and  C10_13 
REMARK    6  A    between atoms: C10_13  and  C11_14 
REMARK    7  A    between atoms: C11_14  and  N1_15 
REMARK    8  A    between atoms: N1_15  and  C12_16 
ROOT
HETATM    1  C8  UNL     1      23.425   3.404  51.401  1.00  0.00     0.031 C 
HETATM    2 CL1  UNL     1      22.503   4.870  51.736  1.00  0.00    -0.087 Cl
HETATM    3  C9  UNL     1      24.425   3.199  52.280  1.00  0.00    -0.004 C 
ENDROOT
BRANCH   1   4
HETATM    4  C7  UNL     1      23.222   2.403  50.329  1.00  0.00     0.218 C 
BRANCH   4   5
HETATM    5  O1  UNL     1      22.860   1.171  50.787  1.00  0.00    -0.381 OA
BRANCH   5   6
HETATM    6  C6  UNL     1      21.559   0.995  51.134  1.00  0.00     0.206 C 
BRANCH   6   7
HETATM    7  C5  UNL     1      21.511   0.157  52.391  1.00  0.00    -0.032 A 
HETATM    8  C4  UNL     1      20.385  -0.363  52.991  1.00  0.00     0.009 A 
HETATM    9  C3  UNL     1      20.562  -1.097  54.139  1.00  0.00     0.004 A 
HETATM   10  C2  UNL     1      21.794  -1.332  54.708  1.00  0.00     0.042 A 
HETATM   11  C1  UNL     1      22.908  -0.806  54.098  1.00  0.00     0.117 A 
HETATM   12  F1  UNL     1      24.148  -1.027  54.647  1.00  0.00    -0.206 F 
HETATM   13  C16 UNL     1      22.731  -0.071  52.948  1.00  0.00     0.051 A 
ENDBRANCH   6   7
ENDBRANCH   5   6
ENDBRANCH   4   5
ENDBRANCH   1   4
BRANCH   3  14
HETATM   14  C10 UNL     1      25.492   2.235  52.579  1.00  0.00     0.048 C 
BRANCH  14  15
HETATM   15  C11 UNL     1      25.944   2.214  54.011  1.00  0.00     0.125 C 
BRANCH  15  16
HETATM   16  N1  UNL     1      26.727   1.056  54.371  1.00  0.00    -0.373 N 
HETATM   17  H13 UNL     1      26.474   0.584  55.286  1.00  0.00     0.161 HD
BRANCH  16  18
HETATM   18  C12 UNL     1      27.783   0.183  54.027  1.00  0.00     0.145 A 
HETATM   19  C13 UNL     1      29.138   0.464  53.959  1.00  0.00     0.053 A 
HETATM   20  C14 UNL     1      29.949  -0.587  53.583  1.00  0.00     0.025 A 
HETATM   21  C15 UNL     1      29.441  -1.835  53.295  1.00  0.00     0.141 A 
HETATM   22  N2  UNL     1      28.101  -2.052  53.380  1.00  0.00    -0.161 NA
HETATM   23  N3  UNL     1      27.283  -1.049  53.744  1.00  0.00    -0.133 NA
ENDBRANCH  16  18
ENDBRANCH  15  16
ENDBRANCH  14  15
ENDBRANCH   3  14
TORSDOF 8
ENDMDL
MODEL 4
REMARK VINA RESULT:      -6.5      2.698      4.977
REMARK  8 active torsions:
REMARK  status: ('A' for Active; 'I' for Inactive)
REMARK    1  A    between atoms: C5_6  and  C6_7 
REMARK    2  A    between atoms: C6_7  and  O1_8 
REMARK    3  A    between atoms: O1_8  and  C7_9 
REMARK    4  A    between atoms: C7_9  and  C8_10 
REMARK    5  A    between atoms: C9_12  and  C10_13 
REMARK    6  A    between atoms: C10_13  and  C11_14 
REMARK    7  A    between atoms: C11_14  and  N1_15 
REMARK    8  A    between atoms: N1_15  and  C12_16 
ROOT
HETATM    1  C8  UNL     1      21.598   1.242  51.610  1.00  0.00     0.031 C 
HETATM    2 CL1  UNL     1      21.638   0.791  49.905  1.00  0.00    -0.087 Cl
HETATM    3  C9  UNL     1      21.843   0.205  52.434  1.00  0.00    -0.004 C 
ENDROOT
BRANCH   1   4
HETATM    4  C7  UNL     1      21.362   2.572  52.214  1.00  0.00     0.218 C 
BRANCH   4   5
HETATM    5  O1  UNL     1      22.029   3.587  51.594  1.00  0.00    -0.381 OA
BRANCH   5   6
HETATM    6  C6  UNL     1      23.113   4.100  52.232  1.00  0.00     0.206 C 
BRANCH   6   7
HETATM    7  C5  UNL     1      24.352   3.687  51.473  1.00  0.00    -0.032 A 
HETATM    8  C4  UNL     1      25.139   2.584  51.719  1.00  0.00     0.009 A 
HETATM    9  C3  UNL     1      26.232   2.393  50.909  1.00  0.00     0.004 A 
HETATM   10  C2  UNL     1      26.571   3.242  49.879  1.00  0.00     0.042 A 
HETATM   11  C1  UNL     1      25.776   4.339  49.645  1.00  0.00     0.117 A 
HETATM   12  F1  UNL     1      26.095   5.200  48.623  1.00  0.00    -0.206 F 
HETATM   13  C16 UNL     1      24.681   4.530  50.457  1.00  0.00     0.051 A 
ENDBRANCH   6   7
ENDBRANCH   5   6
ENDBRANCH   4   5
ENDBRANCH   1   4
BRANCH   3  14
HETATM   14  C10 UNL     1      21.971  -0.100  53.866  1.00  0.00     0.048 C 
BRANCH  14  15
HETATM   15  C11 UNL     1      23.153  -0.954  54.228  1.00  0.00     0.125 C 
BRANCH  15  16
HETATM   16  N1  UNL     1      24.431  -0.306  54.052  1.00  0.00    -0.373 N 
HETATM   17  H13 UNL     1      24.424   0.755  54.059  1.00  0.00     0.161 HD
BRANCH  16  18
HETATM   18  C12 UNL     1      25.821  -0.456  53.851  1.00  0.00     0.145 A 
HETATM   19  C13 UNL     1      26.479  -0.873  52.706  1.00  0.00     0.053 A 
HETATM   20  C14 UNL     1      27.855  -0.937  52.795  1.00  0.00     0.025 A 
HETATM   21  C15 UNL     1      28.527  -0.606  53.952  1.00  0.00     0.141 A 
HETATM   22  N2  UNL     1      27.826  -0.203  55.046  1.00  0.00    -0.161 NA
HETATM   23  N3  UNL     1      26.485  -0.129  54.991  1.00  0.00    -0.133 NA
ENDBRANCH  16  18
ENDBRANCH  15  16
ENDBRANCH  14  15
ENDBRANCH   3  14
TORSDOF 8
ENDMDL
MODEL 5
REMARK VINA RESULT:      -6.5      2.901      4.760
REMARK  8 active torsions:
REMARK  status: ('A' for Active; 'I' for Inactive)
REMARK    1  A    between atoms: C5_6  and  C6_7 
REMARK    2  A    between atoms: C6_7  and  O1_8 
REMARK    3  A    between atoms: O1_8  and  C7_9 
REMARK    4  A    between atoms: C7_9  and  C8_10 
REMARK    5  A    between atoms: C9_12  and  C10_13 
REMARK    6  A    between atoms: C10_13  and  C11_14 
REMARK    7  A    between atoms: C11_14  and  N1_15 
REMARK    8  A    between atoms: N1_15  and  C12_16 
ROOT
HETATM    1  C8  UNL     1      24.726   3.622  50.092  1.00  0.00     0.031 C 
HETATM    2 CL1  UNL     1      26.353   3.670  49.412  1.00  0.00    -0.087 Cl
HETATM    3  C9  UNL     1      23.800   3.192  49.213  1.00  0.00    -0.004 C 
ENDROOT
BRANCH   1   4
HETATM    4  C7  UNL     1      24.282   3.960  51.463  1.00  0.00     0.218 C 
BRANCH   4   5
HETATM    5  O1  UNL     1      24.030   2.873  52.246  1.00  0.00    -0.381 OA
BRANCH   5   6
HETATM    6  C6  UNL     1      24.798   2.715  53.355  1.00  0.00     0.206 C 
BRANCH   6   7
HETATM    7  C5  UNL     1      25.698   1.519  53.144  1.00  0.00    -0.032 A 
HETATM    8  C4  UNL     1      25.742   0.709  52.031  1.00  0.00     0.009 A 
HETATM    9  C3  UNL     1      26.635  -0.336  52.044  1.00  0.00     0.004 A 
HETATM   10  C2  UNL     1      27.473  -0.604  53.103  1.00  0.00     0.042 A 
HETATM   11  C1  UNL     1      27.418   0.213  54.207  1.00  0.00     0.117 A 
HETATM   12  F1  UNL     1      28.244  -0.036  55.275  1.00  0.00    -0.206 F 
HETATM   13  C16 UNL     1      26.523   1.259  54.193  1.00  0.00     0.051 A 
ENDBRANCH   6   7
ENDBRANCH   5   6
ENDBRANCH   4   5
ENDBRANCH   1   4
BRANCH   3  14
HETATM   14  C10 UNL     1      22.361   2.912  49.128  1.00  0.00     0.048 C 
BRANCH  14  15
HETATM   15  C11 UNL     1      21.982   1.473  49.333  1.00  0.00     0.125 C 
BRANCH  15  16
HETATM   16  N1  UNL     1      22.177   0.993  50.681  1.00  0.00    -0.373 N 
HETATM   17  H13 UNL     1      23.143   1.138  51.095  1.00  0.00     0.161 HD
BRANCH  16  18
HETATM   18  C12 UNL     1      21.614   0.354  51.807  1.00  0.00     0.145 A 
HETATM   19  C13 UNL     1      22.272  -0.214  52.886  1.00  0.00     0.053 A 
HETATM   20  C14 UNL     1      21.464  -0.785  53.848  1.00  0.00     0.025 A 
HETATM   21  C15 UNL     1      20.091  -0.787  53.739  1.00  0.00     0.141 A 
HETATM   22  N2  UNL     1      19.500  -0.214  52.656  1.00  0.00    -0.161 NA
HETATM   23  N3  UNL     1      20.259   0.351  51.702  1.00  0.00    -0.133 NA
ENDBRANCH  16  18
ENDBRANCH  15  16
ENDBRANCH  14  15
ENDBRANCH   3  14
TORSDOF 8
ENDMDL
MODEL 6
REMARK VINA RESULT:      -6.5      1.950      2.296
REMARK  8 active torsions:
REMARK  status: ('A' for Active; 'I' for Inactive)
REMARK    1  A    between atoms: C5_6  and  C6_7 
REMARK    2  A    between atoms: C6_7  and  O1_8 
REMARK    3  A    between atoms: O1_8  and  C7_9 
REMARK    4  A    between atoms: C7_9  and  C8_10 
REMARK    5  A    between atoms: C9_12  and  C10_13 
REMARK    6  A    between atoms: C10_13  and  C11_14 
REMARK    7  A    between atoms: C11_14  and  N1_15 
REMARK    8  A    between atoms: N1_15  and  C12_16 
ROOT
HETATM    1  C8  UNL     1      21.849   4.539  51.967  1.00  0.00     0.031 C 
HETATM    2 CL1  UNL     1      21.552   6.147  51.306  1.00  0.00    -0.087 Cl
HETATM    3  C9  UNL     1      23.142   4.328  52.278  1.00  0.00    -0.004 C 
ENDROOT
BRANCH   1   4
HETATM    4  C7  UNL     1      20.882   3.450  52.232  1.00  0.00     0.218 C 
BRANCH   4   5
HETATM    5  O1  UNL     1      21.045   2.360  51.430  1.00  0.00    -0.381 OA
BRANCH   5   6
HETATM    6  C6  UNL     1      20.327   1.249  51.739  1.00  0.00     0.206 C 
BRANCH   6   7
HETATM    7  C5  UNL     1      21.057   0.498  52.828  1.00  0.00    -0.032 A 
HETATM    8  C4  UNL     1      20.582   0.210  54.089  1.00  0.00     0.009 A 
HETATM    9  C3  UNL     1      21.415  -0.483  54.935  1.00  0.00     0.004 A 
HETATM   10  C2  UNL     1      22.681  -0.895  54.585  1.00  0.00     0.042 A 
HETATM   11  C1  UNL     1      23.141  -0.600  53.324  1.00  0.00     0.117 A 
HETATM   12  F1  UNL     1      24.402  -1.000  52.953  1.00  0.00    -0.206 F 
HETATM   13  C16 UNL     1      22.307   0.094  52.477  1.00  0.00     0.051 A 
ENDBRANCH   6   7
ENDBRANCH   5   6
ENDBRANCH   4   5
ENDBRANCH   1   4
BRANCH   3  14
HETATM   14  C10 UNL     1      24.019   3.294  52.844  1.00  0.00     0.048 C 
BRANCH  14  15
HETATM   15  C11 UNL     1      25.111   2.819  51.929  1.00  0.00     0.125 C 
BRANCH  15  16
HETATM   16  N1  UNL     1      25.839   1.672  52.419  1.00  0.00    -0.373 N 
HETATM   17  H13 UNL     1      25.367   0.730  52.298  1.00  0.00     0.161 HD
BRANCH  16  18
HETATM   18  C12 UNL     1      27.006   1.186  53.050  1.00  0.00     0.145 A 
HETATM   19  C13 UNL     1      27.534  -0.094  53.003  1.00  0.00     0.053 A 
HETATM   20  C14 UNL     1      28.689  -0.292  53.730  1.00  0.00     0.025 A 
HETATM   21  C15 UNL     1      29.278   0.721  54.456  1.00  0.00     0.141 A 
HETATM   22  N2  UNL     1      28.714   1.958  54.464  1.00  0.00    -0.161 NA
HETATM   23  N3  UNL     1      27.588   2.184  53.765  1.00  0.00    -0.133 NA
ENDBRANCH  16  18
ENDBRANCH  15  16
ENDBRANCH  14  15
ENDBRANCH   3  14
TORSDOF 8
ENDMDL
MODEL 7
REMARK VINA RESULT:      -6.4      2.882      5.150
REMARK  8 active torsions:
REMARK  status: ('A' for Active; 'I' for Inactive)
REMARK    1  A    between atoms: C5_6  and  C6_7 
REMARK    2  A    between atoms: C6_7  and  O1_8 
REMARK    3  A    between atoms: O1_8  and  C7_9 
REMARK    4  A    between atoms: C7_9  and  C8_10 
REMARK    5  A    between atoms: C9_12  and  C10_13 
REMARK    6  A    between atoms: C10_13  and  C11_14 
REMARK    7  A    between atoms: C11_14  and  N1_15 
REMARK    8  A    between atoms: N1_15  and  C12_16 
ROOT
HETATM    1  C8  UNL     1      25.224   3.291  50.309  1.00  0.00     0.031 C 
HETATM    2 CL1  UNL     1      26.259   4.308  49.305  1.00  0.00    -0.087 Cl
HETATM    3  C9  UNL     1      24.070   2.953  49.702  1.00  0.00    -0.004 C 
ENDROOT
BRANCH   1   4
HETATM    4  C7  UNL     1      25.475   2.768  51.671  1.00  0.00     0.218 C 
BRANCH   4   5
HETATM    5  O1  UNL     1      26.569   1.959  51.759  1.00  0.00    -0.381 OA
BRANCH   5   6
HETATM    6  C6  UNL     1      27.357   2.096  52.857  1.00  0.00     0.206 C 
BRANCH   6   7
HETATM    7  C5  UNL     1      28.084   0.792  53.087  1.00  0.00    -0.032 A 
HETATM    8  C4  UNL     1      29.358   0.637  53.588  1.00  0.00     0.009 A 
HETATM    9  C3  UNL     1      29.837  -0.645  53.714  1.00  0.00     0.004 A 
HETATM   10  C2  UNL     1      29.112  -1.763  53.368  1.00  0.00     0.042 A 
HETATM   11  C1  UNL     1      27.842  -1.593  52.870  1.00  0.00     0.117 A 
HETATM   12  F1  UNL     1      27.101  -2.694  52.518  1.00  0.00    -0.206 F 
HETATM   13  C16 UNL     1      27.363  -0.309  52.743  1.00  0.00     0.051 A 
ENDBRANCH   6   7
ENDBRANCH   5   6
ENDBRANCH   4   5
ENDBRANCH   1   4
BRANCH   3  14
HETATM   14  C10 UNL     1      22.851   2.168  49.941  1.00  0.00     0.048 C 
BRANCH  14  15
HETATM   15  C11 UNL     1      21.881   2.784  50.909  1.00  0.00     0.125 C 
BRANCH  15  16
HETATM   16  N1  UNL     1      21.927   2.219  52.237  1.00  0.00    -0.373 N 
HETATM   17  H13 UNL     1      21.796   2.898  53.041  1.00  0.00     0.161 HD
BRANCH  16  18
HETATM   18  C12 UNL     1      22.087   1.061  53.030  1.00  0.00     0.145 A 
HETATM   19  C13 UNL     1      23.243   0.331  53.255  1.00  0.00     0.053 A 
HETATM   20  C14 UNL     1      23.106  -0.771  54.073  1.00  0.00     0.025 A 
HETATM   21  C15 UNL     1      21.894  -1.121  54.629  1.00  0.00     0.141 A 
HETATM   22  N2  UNL     1      20.792  -0.366  54.372  1.00  0.00    -0.161 NA
HETATM   23  N3  UNL     1      20.893   0.715  53.580  1.00  0.00    -0.133 NA
ENDBRANCH  16  18
ENDBRANCH  15  16
ENDBRANCH  14  15
ENDBRANCH   3  14
TORSDOF 8
ENDMDL
MODEL 8
REMARK VINA RESULT:      -6.4      3.718      6.747
REMARK  8 active torsions:
REMARK  status: ('A' for Active; 'I' for Inactive)
REMARK    1  A    between atoms: C5_6  and  C6_7 
REMARK    2  A    between atoms: C6_7  and  O1_8 
REMARK    3  A    between atoms: O1_8  and  C7_9 
REMARK    4  A    between atoms: C7_9  and  C8_10 
REMARK    5  A    between atoms: C9_12  and  C10_13 
REMARK    6  A    between atoms: C10_13  and  C11_14 
REMARK    7  A    between atoms: C11_14  and  N1_15 
REMARK    8  A    between atoms: N1_15  and  C12_16 
ROOT
HETATM    1  C8  UNL     1      24.160   2.887  52.254  1.00  0.00     0.031 C 
HETATM    2 CL1  UNL     1      23.794   4.361  53.152  1.00  0.00    -0.087 Cl
HETATM    3  C9  UNL     1      23.635   1.782  52.819  1.00  0.00    -0.004 C 
ENDROOT
BRANCH   1   4
HETATM    4  C7  UNL     1      24.921   2.732  50.994  1.00  0.00     0.218 C 
BRANCH   4   5
HETATM    5  O1  UNL     1      25.620   3.844  50.630  1.00  0.00    -0.381 OA
BRANCH   5   6
HETATM    6  C6  UNL     1      25.213   4.495  49.509  1.00  0.00     0.206 C 
BRANCH   6   7
HETATM    7  C5  UNL     1      26.398   5.235  48.932  1.00  0.00    -0.032 A 
HETATM    8  C4  UNL     1      27.669   4.736  48.747  1.00  0.00     0.009 A 
HETATM    9  C3  UNL     1      28.608   5.583  48.209  1.00  0.00     0.004 A 
HETATM   10  C2  UNL     1      28.339   6.886  47.852  1.00  0.00     0.042 A 
HETATM   11  C1  UNL     1      27.067   7.369  48.043  1.00  0.00     0.117 A 
HETATM   12  F1  UNL     1      26.776   8.665  47.695  1.00  0.00    -0.206 F 
HETATM   13  C16 UNL     1      26.126   6.521  48.582  1.00  0.00     0.051 A 
ENDBRANCH   6   7
ENDBRANCH   5   6
ENDBRANCH   4   5
ENDBRANCH   1   4
BRANCH   3  14
HETATM   14  C10 UNL     1      23.543   0.332  52.602  1.00  0.00     0.048 C 
BRANCH  14  15
HETATM   15  C11 UNL     1      23.757  -0.506  53.830  1.00  0.00     0.125 C 
BRANCH  15  16
HETATM   16  N1  UNL     1      25.077  -0.394  54.405  1.00  0.00    -0.373 N 
HETATM   17  H13 UNL     1      25.131  -0.421  55.464  1.00  0.00     0.161 HD
BRANCH  16  18
HETATM   18  C12 UNL     1      26.463  -0.245  54.177  1.00  0.00     0.145 A 
HETATM   19  C13 UNL     1      27.260  -0.932  53.276  1.00  0.00     0.053 A 
HETATM   20  C14 UNL     1      28.596  -0.586  53.273  1.00  0.00     0.025 A 
HETATM   21  C15 UNL     1      29.101   0.381  54.114  1.00  0.00     0.141 A 
HETATM   22  N2  UNL     1      28.269   1.023  54.978  1.00  0.00    -0.161 NA
HETATM   23  N3  UNL     1      26.962   0.710  55.005  1.00  0.00    -0.133 NA
ENDBRANCH  16  18
ENDBRANCH  15  16
ENDBRANCH  14  15
ENDBRANCH   3  14
TORSDOF 8
ENDMDL
MODEL 9
REMARK VINA RESULT:      -6.4      2.741      5.054
REMARK  8 active torsions:
REMARK  status: ('A' for Active; 'I' for Inactive)
REMARK    1  A    between atoms: C5_6  and  C6_7 
REMARK    2  A    between atoms: C6_7  and  O1_8 
REMARK    3  A    between atoms: O1_8  and  C7_9 
REMARK    4  A    between atoms: C7_9  and  C8_10 
REMARK    5  A    between atoms: C9_12  and  C10_13 
REMARK    6  A    between atoms: C10_13  and  C11_14 
REMARK    7  A    between atoms: C11_14  and  N1_15 
REMARK    8  A    between atoms: N1_15  and  C12_16 
ROOT
HETATM    1  C8  UNL     1      25.658   4.359  49.702  1.00  0.00     0.031 C 
HETATM    2 CL1  UNL     1      26.151   6.009  49.320  1.00  0.00    -0.087 Cl
HETATM    3  C9  UNL     1      24.337   4.247  49.941  1.00  0.00    -0.004 C 
ENDROOT
BRANCH   1   4
HETATM    4  C7  UNL     1      26.485   3.133  49.764  1.00  0.00     0.218 C 
BRANCH   4   5
HETATM    5  O1  UNL     1      26.909   2.816  51.020  1.00  0.00    -0.381 OA
BRANCH   5   6
HETATM    6  C6  UNL     1      26.306   1.764  51.633  1.00  0.00     0.206 C 
BRANCH   6   7
HETATM    7  C5  UNL     1      27.318   1.091  52.530  1.00  0.00    -0.032 A 
HETATM    8  C4  UNL     1      27.505  -0.264  52.689  1.00  0.00     0.009 A 
HETATM    9  C3  UNL     1      28.482  -0.670  53.566  1.00  0.00     0.004 A 
HETATM   10  C2  UNL     1      29.271   0.204  54.280  1.00  0.00     0.042 A 
HETATM   11  C1  UNL     1      29.074   1.554  54.111  1.00  0.00     0.117 A 
HETATM   12  F1  UNL     1      29.849   2.444  54.813  1.00  0.00    -0.206 F 
HETATM   13  C16 UNL     1      28.094   1.960  53.233  1.00  0.00     0.051 A 
ENDBRANCH   6   7
ENDBRANCH   5   6
ENDBRANCH   4   5
ENDBRANCH   1   4
BRANCH   3  14
HETATM   14  C10 UNL     1      23.327   3.233  50.275  1.00  0.00     0.048 C 
BRANCH  14  15
HETATM   15  C11 UNL     1      22.941   3.177  51.725  1.00  0.00     0.125 C 
BRANCH  15  16
HETATM   16  N1  UNL     1      22.350   1.925  52.135  1.00  0.00    -0.373 N 
HETATM   17  H13 UNL     1      21.615   1.519  51.487  1.00  0.00     0.161 HD
BRANCH  16  18
HETATM   18  C12 UNL     1      22.296   0.896  53.101  1.00  0.00     0.145 A 
HETATM   19  C13 UNL     1      21.212   0.495  53.864  1.00  0.00     0.053 A 
HETATM   20  C14 UNL     1      21.449  -0.539  54.746  1.00  0.00     0.025 A 
HETATM   21  C15 UNL     1      22.687  -1.133  54.857  1.00  0.00     0.141 A 
HETATM   22  N2  UNL     1      23.715  -0.697  54.081  1.00  0.00    -0.161 NA
HETATM   23  N3  UNL     1      23.516   0.308  53.212  1.00  0.00    -0.133 NA
ENDBRANCH  16  18
ENDBRANCH  15  16
ENDBRANCH  14  15
ENDBRANCH   3  14
TORSDOF 8
ENDMDL
