MODEL 1
REMARK VINA RESULT:      -7.4      0.000      0.000
REMARK  7 active torsions:
REMARK  status: ('A' for Active; 'I' for Inactive)
REMARK    1  A    between atoms: O1_2  and  C2_3 
REMARK    2  A    between atoms: C2_3  and  C3_4 
REMARK    3  A    between atoms: C3_4  and  C4_5 
REMARK    4  A    between atoms: C4_5  and  C15_20 
REMARK    5  A    between atoms: C8_11  and  N3_12 
REMARK    6  A    between atoms: N3_12  and  C9_13 
REMARK    7  A    between atoms: C15_20  and  C17_22 
ROOT
HETATM    1  C4  UNL     1      22.638   1.532  52.687  1.00  0.00    -0.045 C 
HETATM    2  C5  UNL     1      22.747   0.544  53.537  1.00  0.00     0.014 A 
HETATM    3  C6  UNL     1      21.651  -0.164  54.234  1.00  0.00     0.193 A 
HETATM    4  N1  UNL     1      22.130  -1.168  55.129  1.00  0.00    -0.278 NA
HETATM    5  C7  UNL     1      23.280  -1.569  55.398  1.00  0.00     0.229 A 
HETATM    6  N2  UNL     1      24.335  -0.924  54.706  1.00  0.00    -0.224 NA
HETATM    7  C8  UNL     1      24.095   0.040  53.849  1.00  0.00     0.138 A 
ENDROOT
BRANCH   1   8
HETATM    8  C3  UNL     1      21.187   1.346  52.950  1.00  0.00     0.009 C 
BRANCH   8   9
HETATM    9  C2  UNL     1      20.232   2.203  52.603  1.00  0.00     0.003 C 
BRANCH   9  10
HETATM   10  O1  UNL     1      19.284   3.231  52.411  1.00  0.00     0.000 OA
HETATM   11  C1  UNL     1      19.043   3.697  51.068  1.00  0.00     0.000 C 
ENDBRANCH   9  10
ENDBRANCH   8   9
ENDBRANCH   1   8
BRANCH   1  12
HETATM   12  C15 UNL     1      22.891   2.666  51.814  1.00  0.00     0.029 C 
HETATM   13  C16 UNL     1      23.777   3.749  52.372  1.00  0.00     0.016 C 
BRANCH  12  14
HETATM   14  C17 UNL     1      23.436   2.258  50.468  1.00  0.00     0.123 C 
HETATM   15 CL1  UNL     1      22.216   1.688  49.360  1.00  0.00    -0.130 Cl
ENDBRANCH  12  14
ENDBRANCH   1  12
BRANCH   7  16
HETATM   16  N3  UNL     1      25.238   0.571  53.178  1.00  0.00    -0.340 N 
HETATM   17  H9  UNL     1      24.958   1.428  52.596  1.00  0.00     0.167 HD
BRANCH  16  18
HETATM   18  C9  UNL     1      26.527  -0.034  53.308  1.00  0.00     0.033 A 
HETATM   19  C10 UNL     1      27.350   0.687  54.144  1.00  0.00     0.032 A 
HETATM   20  C11 UNL     1      28.648   0.335  54.447  1.00  0.00     0.044 A 
HETATM   21  C12 UNL     1      29.188  -0.824  53.882  1.00  0.00     0.116 A 
HETATM   22  F1  UNL     1      30.437  -1.297  54.081  1.00  0.00    -0.206 F 
HETATM   23  C13 UNL     1      28.342  -1.521  53.052  1.00  0.00     0.044 A 
HETATM   24  C14 UNL     1      27.067  -1.202  52.736  1.00  0.00     0.032 A 
ENDBRANCH  16  18
ENDBRANCH   7  16
TORSDOF 7
ENDMDL
MODEL 2
REMARK VINA RESULT:      -7.0      1.890      2.001
REMARK  7 active torsions:
REMARK  status: ('A' for Active; 'I' for Inactive)
REMARK    1  A    between atoms: O1_2  and  C2_3 
REMARK    2  A    between atoms: C2_3  and  C3_4 
REMARK    3  A    between atoms: C3_4  and  C4_5 
REMARK    4  A    between atoms: C4_5  and  C15_20 
REMARK    5  A    between atoms: C8_11  and  N3_12 
REMARK    6  A    between atoms: N3_12  and  C9_13 
REMARK    7  A    between atoms: C15_20  and  C17_22 
ROOT
HETATM    1  C4  UNL     1      23.379   1.366  51.869  1.00  0.00    -0.045 C 
HETATM    2  C5  UNL     1      23.033   0.401  52.682  1.00  0.00     0.014 A 
HETATM    3  C6  UNL     1      21.821  -0.442  52.607  1.00  0.00     0.193 A 
HETATM    4  N1  UNL     1      21.735  -1.375  53.685  1.00  0.00    -0.278 NA
HETATM    5  C7  UNL     1      22.498  -1.622  54.639  1.00  0.00     0.229 A 
HETATM    6  N2  UNL     1      23.683  -0.847  54.698  1.00  0.00    -0.224 NA
HETATM    7  C8  UNL     1      23.934   0.077  53.801  1.00  0.00     0.138 A 
ENDROOT
BRANCH   1   8
HETATM    8  C3  UNL     1      22.109   0.993  51.193  1.00  0.00     0.009 C 
BRANCH   8   9
HETATM    9  C2  UNL     1      21.850   1.171  49.901  1.00  0.00     0.003 C 
BRANCH   9  10
HETATM   10  O1  UNL     1      21.737   1.210  48.495  1.00  0.00     0.000 OA
HETATM   11  C1  UNL     1      21.509   2.485  47.862  1.00  0.00     0.000 C 
ENDBRANCH   9  10
ENDBRANCH   8   9
ENDBRANCH   1   8
BRANCH   1  12
HETATM   12  C15 UNL     1      24.005   2.522  51.250  1.00  0.00     0.029 C 
HETATM   13  C16 UNL     1      23.842   3.834  51.975  1.00  0.00     0.016 C 
BRANCH  12  14
HETATM   14  C17 UNL     1      25.473   2.316  50.974  1.00  0.00     0.123 C 
HETATM   15 CL1  UNL     1      26.060   3.202  49.592  1.00  0.00    -0.130 Cl
ENDBRANCH  12  14
ENDBRANCH   1  12
BRANCH   7  16
HETATM   16  N3  UNL     1      25.185   0.752  53.939  1.00  0.00    -0.340 N 
HETATM   17  H9  UNL     1      25.022   1.786  54.174  1.00  0.00     0.167 HD
BRANCH  16  18
HETATM   18  C9  UNL     1      26.426   0.067  53.753  1.00  0.00     0.033 A 
HETATM   19  C10 UNL     1      27.400   0.529  54.610  1.00  0.00     0.032 A 
HETATM   20  C11 UNL     1      28.692   0.048  54.647  1.00  0.00     0.044 A 
HETATM   21  C12 UNL     1      29.063  -0.974  53.768  1.00  0.00     0.116 A 
HETATM   22  F1  UNL     1      30.283  -1.544  53.684  1.00  0.00    -0.206 F 
HETATM   23  C13 UNL     1      28.068  -1.413  52.925  1.00  0.00     0.044 A 
HETATM   24  C14 UNL     1      26.795  -0.962  52.866  1.00  0.00     0.032 A 
ENDBRANCH  16  18
ENDBRANCH   7  16
TORSDOF 7
ENDMDL
MODEL 3
REMARK VINA RESULT:      -6.9      3.840      6.370
REMARK  7 active torsions:
REMARK  status: ('A' for Active; 'I' for Inactive)
REMARK    1  A    between atoms: O1_2  and  C2_3 
REMARK    2  A    between atoms: C2_3  and  C3_4 
REMARK    3  A    between atoms: C3_4  and  C4_5 
REMARK    4  A    between atoms: C4_5  and  C15_20 
REMARK    5  A    between atoms: C8_11  and  N3_12 
REMARK    6  A    between atoms: N3_12  and  C9_13 
REMARK    7  A    between atoms: C15_20  and  C17_22 
ROOT
HETATM    1  C4  UNL     1      23.872   0.690  53.417  1.00  0.00    -0.045 C 
HETATM    2  C5  UNL     1      22.834  -0.042  53.728  1.00  0.00     0.014 A 
HETATM    3  C6  UNL     1      22.826  -1.307  54.493  1.00  0.00     0.193 A 
HETATM    4  N1  UNL     1      21.518  -1.867  54.613  1.00  0.00    -0.278 NA
HETATM    5  C7  UNL     1      20.401  -1.472  54.225  1.00  0.00     0.229 A 
HETATM    6  N2  UNL     1      20.392  -0.240  53.525  1.00  0.00    -0.224 NA
HETATM    7  C8  UNL     1      21.503   0.421  53.300  1.00  0.00     0.138 A 
ENDROOT
BRANCH   1   8
HETATM    8  C3  UNL     1      24.602  -0.371  54.158  1.00  0.00     0.009 C 
BRANCH   8   9
HETATM    9  C2  UNL     1      25.888  -0.321  54.495  1.00  0.00     0.003 C 
BRANCH   9  10
HETATM   10  O1  UNL     1      27.210  -0.452  54.971  1.00  0.00     0.000 OA
HETATM   11  C1  UNL     1      28.193   0.507  54.532  1.00  0.00     0.000 C 
ENDBRANCH   9  10
ENDBRANCH   8   9
ENDBRANCH   1   8
BRANCH   1  12
HETATM   12  C15 UNL     1      24.777   1.663  52.828  1.00  0.00     0.029 C 
HETATM   13  C16 UNL     1      24.797   1.726  51.322  1.00  0.00     0.016 C 
BRANCH  12  14
HETATM   14  C17 UNL     1      24.560   3.059  53.355  1.00  0.00     0.123 C 
HETATM   15 CL1  UNL     1      23.833   4.141  52.197  1.00  0.00    -0.130 Cl
ENDBRANCH  12  14
ENDBRANCH   1  12
BRANCH   7  16
HETATM   16  N3  UNL     1      21.354   1.675  52.633  1.00  0.00    -0.340 N 
HETATM   17  H9  UNL     1      21.378   2.476  53.346  1.00  0.00     0.167 HD
BRANCH  16  18
HETATM   18  C9  UNL     1      21.183   1.749  51.216  1.00  0.00     0.033 A 
HETATM   19  C10 UNL     1      20.691   2.974  50.822  1.00  0.00     0.032 A 
HETATM   20  C11 UNL     1      20.429   3.320  49.514  1.00  0.00     0.044 A 
HETATM   21  C12 UNL     1      20.667   2.386  48.501  1.00  0.00     0.116 A 
HETATM   22  F1  UNL     1      20.460   2.575  47.181  1.00  0.00    -0.206 F 
HETATM   23  C13 UNL     1      21.157   1.173  48.927  1.00  0.00     0.044 A 
HETATM   24  C14 UNL     1      21.424   0.805  50.200  1.00  0.00     0.032 A 
ENDBRANCH  16  18
ENDBRANCH   7  16
TORSDOF 7
ENDMDL
MODEL 4
REMARK VINA RESULT:      -6.8      2.391      3.945
REMARK  7 active torsions:
REMARK  status: ('A' for Active; 'I' for Inactive)
REMARK    1  A    between atoms: O1_2  and  C2_3 
REMARK    2  A    between atoms: C2_3  and  C3_4 
REMARK    3  A    between atoms: C3_4  and  C4_5 
REMARK    4  A    between atoms: C4_5  and  C15_20 
REMARK    5  A    between atoms: C8_11  and  N3_12 
REMARK    6  A    between atoms: N3_12  and  C9_13 
REMARK    7  A    between atoms: C15_20  and  C17_22 
ROOT
HETATM    1  C4  UNL     1      22.262   0.994  51.519  1.00  0.00    -0.045 C 
HETATM    2  C5  UNL     1      23.108   1.784  50.909  1.00  0.00     0.014 A 
HETATM    3  C6  UNL     1      22.917   2.472  49.614  1.00  0.00     0.193 A 
HETATM    4  N1  UNL     1      24.065   3.224  49.219  1.00  0.00    -0.278 NA
HETATM    5  C7  UNL     1      25.163   3.426  49.774  1.00  0.00     0.229 A 
HETATM    6  N2  UNL     1      25.342   2.803  51.034  1.00  0.00    -0.224 NA
HETATM    7  C8  UNL     1      24.401   2.055  51.560  1.00  0.00     0.138 A 
ENDROOT
BRANCH   1   8
HETATM    8  C3  UNL     1      21.418   1.299  50.335  1.00  0.00     0.009 C 
BRANCH   8   9
HETATM    9  C2  UNL     1      20.143   0.949  50.195  1.00  0.00     0.003 C 
BRANCH   9  10
HETATM   10  O1  UNL     1      18.760   0.783  49.968  1.00  0.00     0.000 OA
HETATM   11  C1  UNL     1      17.984   0.078  50.956  1.00  0.00     0.000 C 
ENDBRANCH   9  10
ENDBRANCH   8   9
ENDBRANCH   1   8
BRANCH   1  12
HETATM   12  C15 UNL     1      21.633   0.025  52.400  1.00  0.00     0.029 C 
HETATM   13  C16 UNL     1      22.492  -1.135  52.834  1.00  0.00     0.016 C 
BRANCH  12  14
HETATM   14  C17 UNL     1      21.035   0.655  53.633  1.00  0.00     0.123 C 
HETATM   15 CL1  UNL     1      21.387  -0.211  55.105  1.00  0.00    -0.130 Cl
ENDBRANCH  12  14
ENDBRANCH   1  12
BRANCH   7  16
HETATM   16  N3  UNL     1      24.681   1.528  52.857  1.00  0.00    -0.340 N 
HETATM   17  H9  UNL     1      23.839   1.679  53.506  1.00  0.00     0.167 HD
BRANCH  16  18
HETATM   18  C9  UNL     1      25.939   0.922  53.160  1.00  0.00     0.033 A 
HETATM   19  C10 UNL     1      26.057  -0.327  52.592  1.00  0.00     0.032 A 
HETATM   20  C11 UNL     1      27.164  -1.138  52.723  1.00  0.00     0.044 A 
HETATM   21  C12 UNL     1      28.253  -0.687  53.476  1.00  0.00     0.116 A 
HETATM   22  F1  UNL     1      29.401  -1.362  53.695  1.00  0.00    -0.206 F 
HETATM   23  C13 UNL     1      28.104   0.564  54.030  1.00  0.00     0.044 A 
HETATM   24  C14 UNL     1      27.033   1.380  53.920  1.00  0.00     0.032 A 
ENDBRANCH  16  18
ENDBRANCH   7  16
TORSDOF 7
ENDMDL
MODEL 5
REMARK VINA RESULT:      -6.8      3.886      6.160
REMARK  7 active torsions:
REMARK  status: ('A' for Active; 'I' for Inactive)
REMARK    1  A    between atoms: O1_2  and  C2_3 
REMARK    2  A    between atoms: C2_3  and  C3_4 
REMARK    3  A    between atoms: C3_4  and  C4_5 
REMARK    4  A    between atoms: C4_5  and  C15_20 
REMARK    5  A    between atoms: C8_11  and  N3_12 
REMARK    6  A    between atoms: N3_12  and  C9_13 
REMARK    7  A    between atoms: C15_20  and  C17_22 
ROOT
HETATM    1  C4  UNL     1      24.991   2.781  51.304  1.00  0.00    -0.045 C 
HETATM    2  C5  UNL     1      25.413   1.650  51.808  1.00  0.00     0.014 A 
HETATM    3  C6  UNL     1      26.714   0.991  51.563  1.00  0.00     0.193 A 
HETATM    4  N1  UNL     1      26.830  -0.261  52.240  1.00  0.00    -0.278 NA
HETATM    5  C7  UNL     1      26.061  -0.869  53.011  1.00  0.00     0.229 A 
HETATM    6  N2  UNL     1      24.828  -0.227  53.284  1.00  0.00    -0.224 NA
HETATM    7  C8  UNL     1      24.530   0.929  52.739  1.00  0.00     0.138 A 
ENDROOT
BRANCH   1   8
HETATM    8  C3  UNL     1      26.322   2.764  50.644  1.00  0.00     0.009 C 
BRANCH   8   9
HETATM    9  C2  UNL     1      26.716   3.612  49.698  1.00  0.00     0.003 C 
BRANCH   9  10
HETATM   10  O1  UNL     1      27.312   4.546  48.824  1.00  0.00     0.000 OA
HETATM   11  C1  UNL     1      26.726   5.859  48.725  1.00  0.00     0.000 C 
ENDBRANCH   9  10
ENDBRANCH   8   9
ENDBRANCH   1   8
BRANCH   1  12
HETATM   12  C15 UNL     1      24.184   3.910  50.873  1.00  0.00     0.029 C 
HETATM   13  C16 UNL     1      23.067   3.599  49.910  1.00  0.00     0.016 C 
BRANCH  12  14
HETATM   14  C17 UNL     1      23.608   4.693  52.025  1.00  0.00     0.123 C 
HETATM   15 CL1  UNL     1      21.873   4.578  52.154  1.00  0.00    -0.130 Cl
ENDBRANCH  12  14
ENDBRANCH   1  12
BRANCH   7  16
HETATM   16  N3  UNL     1      23.281   1.497  53.135  1.00  0.00    -0.340 N 
HETATM   17  H9  UNL     1      23.446   2.314  53.811  1.00  0.00     0.167 HD
BRANCH  16  18
HETATM   18  C9  UNL     1      22.039   0.972  52.662  1.00  0.00     0.033 A 
HETATM   19  C10 UNL     1      21.238   0.538  53.695  1.00  0.00     0.032 A 
HETATM   20  C11 UNL     1      19.986  -0.015  53.527  1.00  0.00     0.044 A 
HETATM   21  C12 UNL     1      19.473  -0.158  52.234  1.00  0.00     0.116 A 
HETATM   22  F1  UNL     1      18.271  -0.679  51.910  1.00  0.00    -0.206 F 
HETATM   23  C13 UNL     1      20.297   0.284  51.224  1.00  0.00     0.044 A 
HETATM   24  C14 UNL     1      21.526   0.830  51.358  1.00  0.00     0.032 A 
ENDBRANCH  16  18
ENDBRANCH   7  16
TORSDOF 7
ENDMDL
MODEL 6
REMARK VINA RESULT:      -6.8      2.163      3.767
REMARK  7 active torsions:
REMARK  status: ('A' for Active; 'I' for Inactive)
REMARK    1  A    between atoms: O1_2  and  C2_3 
REMARK    2  A    between atoms: C2_3  and  C3_4 
REMARK    3  A    between atoms: C3_4  and  C4_5 
REMARK    4  A    between atoms: C4_5  and  C15_20 
REMARK    5  A    between atoms: C8_11  and  N3_12 
REMARK    6  A    between atoms: N3_12  and  C9_13 
REMARK    7  A    between atoms: C15_20  and  C17_22 
ROOT
HETATM    1  C4  UNL     1      22.196   2.329  51.974  1.00  0.00    -0.045 C 
HETATM    2  C5  UNL     1      23.144   3.094  51.498  1.00  0.00     0.014 A 
HETATM    3  C6  UNL     1      23.079   4.550  51.248  1.00  0.00     0.193 A 
HETATM    4  N1  UNL     1      24.285   5.063  50.680  1.00  0.00    -0.278 NA
HETATM    5  C7  UNL     1      25.371   4.520  50.394  1.00  0.00     0.229 A 
HETATM    6  N2  UNL     1      25.458   3.133  50.667  1.00  0.00    -0.224 NA
HETATM    7  C8  UNL     1      24.442   2.477  51.177  1.00  0.00     0.138 A 
ENDROOT
BRANCH   1   8
HETATM    8  C3  UNL     1      21.442   3.609  52.005  1.00  0.00     0.009 C 
BRANCH   8   9
HETATM    9  C2  UNL     1      20.116   3.713  52.036  1.00  0.00     0.003 C 
BRANCH   9  10
HETATM   10  O1  UNL     1      18.711   3.604  52.097  1.00  0.00     0.000 OA
HETATM   11  C1  UNL     1      18.076   2.533  51.369  1.00  0.00     0.000 C 
ENDBRANCH   9  10
ENDBRANCH   8   9
ENDBRANCH   1   8
BRANCH   1  12
HETATM   12  C15 UNL     1      21.370   1.201  52.370  1.00  0.00     0.029 C 
HETATM   13  C16 UNL     1      21.141   0.144  51.320  1.00  0.00     0.016 C 
BRANCH  12  14
HETATM   14  C17 UNL     1      21.867   0.521  53.621  1.00  0.00     0.123 C 
HETATM   15 CL1  UNL     1      22.593  -1.038  53.333  1.00  0.00    -0.130 Cl
ENDBRANCH  12  14
ENDBRANCH   1  12
BRANCH   7  16
HETATM   16  N3  UNL     1      24.673   1.095  51.456  1.00  0.00    -0.340 N 
HETATM   17  H9  UNL     1      23.946   0.491  50.949  1.00  0.00     0.167 HD
BRANCH  16  18
HETATM   18  C9  UNL     1      25.736   0.676  52.315  1.00  0.00     0.033 A 
HETATM   19  C10 UNL     1      25.592   1.177  53.590  1.00  0.00     0.032 A 
HETATM   20  C11 UNL     1      26.473   0.934  54.622  1.00  0.00     0.044 A 
HETATM   21  C12 UNL     1      27.593   0.130  54.386  1.00  0.00     0.116 A 
HETATM   22  F1  UNL     1      28.540  -0.196  55.291  1.00  0.00    -0.206 F 
HETATM   23  C13 UNL     1      27.708  -0.354  53.104  1.00  0.00     0.044 A 
HETATM   24  C14 UNL     1      26.862  -0.134  52.073  1.00  0.00     0.032 A 
ENDBRANCH  16  18
ENDBRANCH   7  16
TORSDOF 7
ENDMDL
MODEL 7
REMARK VINA RESULT:      -6.6      3.970      5.585
REMARK  7 active torsions:
REMARK  status: ('A' for Active; 'I' for Inactive)
REMARK    1  A    between atoms: O1_2  and  C2_3 
REMARK    2  A    between atoms: C2_3  and  C3_4 
REMARK    3  A    between atoms: C3_4  and  C4_5 
REMARK    4  A    between atoms: C4_5  and  C15_20 
REMARK    5  A    between atoms: C8_11  and  N3_12 
REMARK    6  A    between atoms: N3_12  and  C9_13 
REMARK    7  A    between atoms: C15_20  and  C17_22 
ROOT
HETATM    1  C4  UNL     1      23.660   2.533  51.246  1.00  0.00    -0.045 C 
HETATM    2  C5  UNL     1      24.827   2.348  51.807  1.00  0.00     0.014 A 
HETATM    3  C6  UNL     1      25.097   1.782  53.147  1.00  0.00     0.193 A 
HETATM    4  N1  UNL     1      26.490   1.762  53.462  1.00  0.00    -0.278 NA
HETATM    5  C7  UNL     1      27.499   2.100  52.812  1.00  0.00     0.229 A 
HETATM    6  N2  UNL     1      27.254   2.606  51.512  1.00  0.00    -0.224 NA
HETATM    7  C8  UNL     1      26.032   2.716  51.046  1.00  0.00     0.138 A 
ENDROOT
BRANCH   1   8
HETATM    8  C3  UNL     1      23.168   1.952  52.522  1.00  0.00     0.009 C 
BRANCH   8   9
HETATM    9  C2  UNL     1      21.977   1.384  52.694  1.00  0.00     0.003 C 
BRANCH   9  10
HETATM   10  O1  UNL     1      20.639   0.939  52.737  1.00  0.00     0.000 OA
HETATM   11  C1  UNL     1      19.627   1.751  52.108  1.00  0.00     0.000 C 
ENDBRANCH   9  10
ENDBRANCH   8   9
ENDBRANCH   1   8
BRANCH   1  12
HETATM   12  C15 UNL     1      22.569   2.959  50.386  1.00  0.00     0.029 C 
HETATM   13  C16 UNL     1      22.474   4.438  50.116  1.00  0.00     0.016 C 
BRANCH  12  14
HETATM   14  C17 UNL     1      22.550   2.236  49.062  1.00  0.00     0.123 C 
HETATM   15 CL1  UNL     1      21.466   0.871  49.022  1.00  0.00    -0.130 Cl
ENDBRANCH  12  14
ENDBRANCH   1  12
BRANCH   7  16
HETATM   16  N3  UNL     1      25.921   3.189  49.703  1.00  0.00    -0.340 N 
HETATM   17  H9  UNL     1      25.375   2.483  49.108  1.00  0.00     0.167 HD
BRANCH  16  18
HETATM   18  C9  UNL     1      26.505   4.430  49.299  1.00  0.00     0.033 A 
HETATM   19  C10 UNL     1      25.723   5.505  49.657  1.00  0.00     0.032 A 
HETATM   20  C11 UNL     1      26.043   6.820  49.391  1.00  0.00     0.044 A 
HETATM   21  C12 UNL     1      27.232   7.107  48.714  1.00  0.00     0.116 A 
HETATM   22  F1  UNL     1      27.680   8.337  48.383  1.00  0.00    -0.206 F 
HETATM   23  C13 UNL     1      27.991   6.013  48.370  1.00  0.00     0.044 A 
HETATM   24  C14 UNL     1      27.704   4.715  48.618  1.00  0.00     0.032 A 
ENDBRANCH  16  18
ENDBRANCH   7  16
TORSDOF 7
ENDMDL
MODEL 8
REMARK VINA RESULT:      -6.4      4.112      6.861
REMARK  7 active torsions:
REMARK  status: ('A' for Active; 'I' for Inactive)
REMARK    1  A    between atoms: O1_2  and  C2_3 
REMARK    2  A    between atoms: C2_3  and  C3_4 
REMARK    3  A    between atoms: C3_4  and  C4_5 
REMARK    4  A    between atoms: C4_5  and  C15_20 
REMARK    5  A    between atoms: C8_11  and  N3_12 
REMARK    6  A    between atoms: N3_12  and  C9_13 
REMARK    7  A    between atoms: C15_20  and  C17_22 
ROOT
HETATM    1  C4  UNL     1      23.307   1.456  52.195  1.00  0.00    -0.045 C 
HETATM    2  C5  UNL     1      22.992   0.570  53.105  1.00  0.00     0.014 A 
HETATM    3  C6  UNL     1      23.913  -0.321  53.844  1.00  0.00     0.193 A 
HETATM    4  N1  UNL     1      23.226  -1.199  54.737  1.00  0.00    -0.278 NA
HETATM    5  C7  UNL     1      22.019  -1.324  55.023  1.00  0.00     0.229 A 
HETATM    6  N2  UNL     1      21.132  -0.448  54.349  1.00  0.00    -0.224 NA
HETATM    7  C8  UNL     1      21.574   0.424  53.474  1.00  0.00     0.138 A 
ENDROOT
BRANCH   1   8
HETATM    8  C3  UNL     1      24.684   0.974  52.477  1.00  0.00     0.009 C 
BRANCH   8   9
HETATM    9  C2  UNL     1      25.801   1.612  52.137  1.00  0.00     0.003 C 
BRANCH   9  10
HETATM   10  O1  UNL     1      27.028   2.293  51.994  1.00  0.00     0.000 OA
HETATM   11  C1  UNL     1      27.975   2.231  53.079  1.00  0.00     0.000 C 
ENDBRANCH   9  10
ENDBRANCH   8   9
ENDBRANCH   1   8
BRANCH   1  12
HETATM   12  C15 UNL     1      23.280   2.425  51.113  1.00  0.00     0.029 C 
HETATM   13  C16 UNL     1      22.602   1.984  49.842  1.00  0.00     0.016 C 
BRANCH  12  14
HETATM   14  C17 UNL     1      22.689   3.749  51.528  1.00  0.00     0.123 C 
HETATM   15 CL1  UNL     1      23.542   4.520  52.839  1.00  0.00    -0.130 Cl
ENDBRANCH  12  14
ENDBRANCH   1  12
BRANCH   7  16
HETATM   16  N3  UNL     1      20.588   1.286  52.905  1.00  0.00    -0.340 N 
HETATM   17  H9  UNL     1      20.780   2.303  53.187  1.00  0.00     0.167 HD
BRANCH  16  18
HETATM   18  C9  UNL     1      19.522   0.771  52.103  1.00  0.00     0.033 A 
HETATM   19  C10 UNL     1      19.430   1.421  50.893  1.00  0.00     0.032 A 
HETATM   20  C11 UNL     1      18.492   1.131  49.925  1.00  0.00     0.044 A 
HETATM   21  C12 UNL     1      17.561   0.115  50.163  1.00  0.00     0.116 A 
HETATM   22  F1  UNL     1      16.587  -0.283  49.318  1.00  0.00    -0.206 F 
HETATM   23  C13 UNL     1      17.679  -0.515  51.381  1.00  0.00     0.044 A 
HETATM   24  C14 UNL     1      18.586  -0.253  52.348  1.00  0.00     0.032 A 
ENDBRANCH  16  18
ENDBRANCH   7  16
TORSDOF 7
ENDMDL
MODEL 9
REMARK VINA RESULT:      -6.4      4.398      6.240
REMARK  7 active torsions:
REMARK  status: ('A' for Active; 'I' for Inactive)
REMARK    1  A    between atoms: O1_2  and  C2_3 
REMARK    2  A    between atoms: C2_3  and  C3_4 
REMARK    3  A    between atoms: C3_4  and  C4_5 
REMARK    4  A    between atoms: C4_5  and  C15_20 
REMARK    5  A    between atoms: C8_11  and  N3_12 
REMARK    6  A    between atoms: N3_12  and  C9_13 
REMARK    7  A    between atoms: C15_20  and  C17_22 
ROOT
HETATM    1  C4  UNL     1      24.017   1.757  51.918  1.00  0.00    -0.045 C 
HETATM    2  C5  UNL     1      23.167   2.529  51.293  1.00  0.00     0.014 A 
HETATM    3  C6  UNL     1      21.743   2.247  51.007  1.00  0.00     0.193 A 
HETATM    4  N1  UNL     1      21.116   3.293  50.264  1.00  0.00    -0.278 NA
HETATM    5  C7  UNL     1      21.536   4.392  49.850  1.00  0.00     0.229 A 
HETATM    6  N2  UNL     1      22.888   4.689  50.152  1.00  0.00    -0.224 NA
HETATM    7  C8  UNL     1      23.636   3.841  50.817  1.00  0.00     0.138 A 
ENDROOT
BRANCH   1   8
HETATM    8  C3  UNL     1      22.839   0.856  52.011  1.00  0.00     0.009 C 
BRANCH   8   9
HETATM    9  C2  UNL     1      22.761  -0.224  52.783  1.00  0.00     0.003 C 
BRANCH   9  10
HETATM   10  O1  UNL     1      22.539  -1.251  53.725  1.00  0.00     0.000 OA
HETATM   11  C1  UNL     1      21.313  -1.229  54.483  1.00  0.00     0.000 C 
ENDBRANCH   9  10
ENDBRANCH   8   9
ENDBRANCH   1   8
BRANCH   1  12
HETATM   12  C15 UNL     1      25.216   1.140  52.460  1.00  0.00     0.029 C 
HETATM   13  C16 UNL     1      26.381   1.007  51.512  1.00  0.00     0.016 C 
BRANCH  12  14
HETATM   14  C17 UNL     1      25.706   1.815  53.716  1.00  0.00     0.123 C 
HETATM   15 CL1  UNL     1      26.485   0.731  54.838  1.00  0.00    -0.130 Cl
ENDBRANCH  12  14
ENDBRANCH   1  12
BRANCH   7  16
HETATM   16  N3  UNL     1      24.964   4.281  51.106  1.00  0.00    -0.340 N 
HETATM   17  H9  UNL     1      25.244   3.980  52.097  1.00  0.00     0.167 HD
BRANCH  16  18
HETATM   18  C9  UNL     1      25.726   5.026  50.154  1.00  0.00     0.033 A 
HETATM   19  C10 UNL     1      26.722   4.264  49.584  1.00  0.00     0.032 A 
HETATM   20  C11 UNL     1      27.608   4.729  48.636  1.00  0.00     0.044 A 
HETATM   21  C12 UNL     1      27.511   6.057  48.208  1.00  0.00     0.116 A 
HETATM   22  F1  UNL     1      28.302   6.655  47.292  1.00  0.00    -0.206 F 
HETATM   23  C13 UNL     1      26.508   6.791  48.795  1.00  0.00     0.044 A 
HETATM   24  C14 UNL     1      25.625   6.364  49.726  1.00  0.00     0.032 A 
ENDBRANCH  16  18
ENDBRANCH   7  16
TORSDOF 7
ENDMDL
