MODEL 1
REMARK VINA RESULT:      -8.4      0.000      0.000
REMARK  5 active torsions:
REMARK  status: ('A' for Active; 'I' for Inactive)
REMARK    1  A    between atoms: C4_5  and  N1_6 
REMARK    2  A    between atoms: C8_12  and  C9_13 
REMARK    3  A    between atoms: C9_13  and  C10_14 
REMARK    4  A    between atoms: C10_14  and  C11_15 
REMARK    5  A    between atoms: C11_15  and  N4_16 
ROOT
HETATM    1  N1  UNL     1      24.021   0.104  53.614  1.00  0.00    -0.281 N 
HETATM    2  N2  UNL     1      23.281  -0.885  54.317  1.00  0.00    -0.291 N 
HETATM    3  C5  UNL     1      21.928  -1.078  53.847  1.00  0.00     0.223 C 
HETATM    4  N3  UNL     1      21.448  -0.390  52.858  1.00  0.00    -0.245 NA
HETATM    5  C6  UNL     1      22.245   0.604  52.176  1.00  0.00     0.065 A 
HETATM    6  C7  UNL     1      21.951   0.790  50.897  1.00  0.00     0.039 A 
HETATM    7  C8  UNL     1      22.566   1.717  49.919  1.00  0.00    -0.020 A 
HETATM    8  C16 UNL     1      23.557   2.552  50.157  1.00  0.00     0.108 A 
HETATM    9  O2  UNL     1      23.835   3.226  49.008  1.00  0.00    -0.346 OA
HETATM   10  C17 UNL     1      24.397   4.542  49.119  1.00  0.00     0.202 C 
HETATM   11  C18 UNL     1      25.523   4.573  50.109  1.00  0.00     0.202 C 
HETATM   12  O3  UNL     1      25.316   3.786  51.257  1.00  0.00    -0.346 OA
HETATM   13  C19 UNL     1      24.329   2.838  51.349  1.00  0.00     0.101 A 
HETATM   14  C20 UNL     1      24.114   2.227  52.497  1.00  0.00     0.046 A 
HETATM   15  C21 UNL     1      23.234   1.217  53.047  1.00  0.00     0.185 A 
HETATM   16  H4  UNL     1      23.671  -1.455  55.124  1.00  0.00     0.188 HD
ENDROOT
BRANCH   7  17
HETATM   17  C9  UNL     1      21.838   1.517  48.660  1.00  0.00     0.043 C 
BRANCH  17  18
HETATM   18  C10 UNL     1      20.370   1.747  48.663  1.00  0.00     0.024 C 
BRANCH  18  19
HETATM   19  C11 UNL     1      20.186   3.274  48.607  1.00  0.00     0.117 C 
BRANCH  19  20
HETATM   20  N4  UNL     1      19.673   3.828  49.779  1.00  0.00    -0.408 N 
HETATM   21  C12 UNL     1      20.580   4.550  50.623  1.00  0.00     0.143 C 
HETATM   22  C13 UNL     1      20.602   4.056  52.042  1.00  0.00     0.187 C 
HETATM   23  O1  UNL     1      19.461   3.459  52.491  1.00  0.00    -0.388 OA
HETATM   24  C14 UNL     1      18.928   2.510  51.607  1.00  0.00     0.187 C 
HETATM   25  C15 UNL     1      18.508   3.355  50.391  1.00  0.00     0.143 C 
ENDBRANCH  19  20
ENDBRANCH  18  19
ENDBRANCH  17  18
ENDBRANCH   7  17
BRANCH   1  26
HETATM   26  C4  UNL     1      25.449  -0.117  53.555  1.00  0.00     0.036 A 
HETATM   27  C3  UNL     1      26.110   0.372  54.811  1.00  0.00     0.089 A 
HETATM   28  C2  UNL     1      27.547   0.054  54.547  1.00  0.00     0.021 A 
HETATM   29  C1  UNL     1      27.665  -0.505  53.367  1.00  0.00     0.115 A 
HETATM   30  F1  UNL     1      28.760  -0.956  52.711  1.00  0.00    -0.206 F 
HETATM   31  C22 UNL     1      26.361  -0.623  52.726  1.00  0.00     0.069 A 
ENDBRANCH   1  26
TORSDOF 5
ENDMDL
MODEL 2
REMARK VINA RESULT:      -7.8      1.353      2.221
REMARK  5 active torsions:
REMARK  status: ('A' for Active; 'I' for Inactive)
REMARK    1  A    between atoms: C4_5  and  N1_6 
REMARK    2  A    between atoms: C8_12  and  C9_13 
REMARK    3  A    between atoms: C9_13  and  C10_14 
REMARK    4  A    between atoms: C10_14  and  C11_15 
REMARK    5  A    between atoms: C11_15  and  N4_16 
ROOT
HETATM    1  N1  UNL     1      24.123  -0.119  53.930  1.00  0.00    -0.281 N 
HETATM    2  N2  UNL     1      23.465  -1.088  54.734  1.00  0.00    -0.291 N 
HETATM    3  C5  UNL     1      22.075  -1.306  54.403  1.00  0.00     0.223 C 
HETATM    4  N3  UNL     1      21.495  -0.657  53.442  1.00  0.00    -0.245 NA
HETATM    5  C6  UNL     1      22.212   0.318  52.654  1.00  0.00     0.065 A 
HETATM    6  C7  UNL     1      21.795   0.457  51.403  1.00  0.00     0.039 A 
HETATM    7  C8  UNL     1      22.303   1.354  50.339  1.00  0.00    -0.020 A 
HETATM    8  C16 UNL     1      23.303   2.204  50.452  1.00  0.00     0.108 A 
HETATM    9  O2  UNL     1      23.463   2.840  49.260  1.00  0.00    -0.346 OA
HETATM   10  C17 UNL     1      24.020   4.163  49.271  1.00  0.00     0.202 C 
HETATM   11  C18 UNL     1      25.234   4.236  50.146  1.00  0.00     0.202 C 
HETATM   12  O3  UNL     1      25.147   3.489  51.335  1.00  0.00    -0.346 OA
HETATM   13  C19 UNL     1      24.184   2.537  51.554  1.00  0.00     0.101 A 
HETATM   14  C20 UNL     1      24.086   1.965  52.738  1.00  0.00     0.046 A 
HETATM   15  C21 UNL     1      23.274   0.969  53.404  1.00  0.00     0.185 A 
HETATM   16  H4  UNL     1      23.937  -1.626  55.518  1.00  0.00     0.188 HD
ENDROOT
BRANCH   7  17
HETATM   17  C9  UNL     1      21.459   1.106  49.164  1.00  0.00     0.043 C 
BRANCH  17  18
HETATM   18  C10 UNL     1      20.010   1.414  49.272  1.00  0.00     0.024 C 
BRANCH  18  19
HETATM   19  C11 UNL     1      19.926   2.912  49.618  1.00  0.00     0.117 C 
BRANCH  19  20
HETATM   20  N4  UNL     1      19.647   3.733  48.526  1.00  0.00    -0.408 N 
HETATM   21  C12 UNL     1      18.539   3.369  47.690  1.00  0.00     0.143 C 
HETATM   22  C13 UNL     1      18.902   3.239  46.238  1.00  0.00     0.187 C 
HETATM   23  O1  UNL     1      19.962   3.983  45.811  1.00  0.00    -0.388 OA
HETATM   24  C14 UNL     1      21.085   3.908  46.646  1.00  0.00     0.187 C 
HETATM   25  C15 UNL     1      20.604   4.573  47.948  1.00  0.00     0.143 C 
ENDBRANCH  19  20
ENDBRANCH  18  19
ENDBRANCH  17  18
ENDBRANCH   7  17
BRANCH   1  26
HETATM   26  C4  UNL     1      25.541  -0.331  53.740  1.00  0.00     0.036 A 
HETATM   27  C3  UNL     1      26.323   0.314  54.847  1.00  0.00     0.089 A 
HETATM   28  C2  UNL     1      27.730  -0.019  54.467  1.00  0.00     0.021 A 
HETATM   29  C1  UNL     1      27.732  -0.718  53.358  1.00  0.00     0.115 A 
HETATM   30  F1  UNL     1      28.760  -1.236  52.644  1.00  0.00    -0.206 F 
HETATM   31  C22 UNL     1      26.370  -0.927  52.883  1.00  0.00     0.069 A 
ENDBRANCH   1  26
TORSDOF 5
ENDMDL
MODEL 3
REMARK VINA RESULT:      -7.3      3.471      7.802
REMARK  5 active torsions:
REMARK  status: ('A' for Active; 'I' for Inactive)
REMARK    1  A    between atoms: C4_5  and  N1_6 
REMARK    2  A    between atoms: C8_12  and  C9_13 
REMARK    3  A    between atoms: C9_13  and  C10_14 
REMARK    4  A    between atoms: C10_14  and  C11_15 
REMARK    5  A    between atoms: C11_15  and  N4_16 
ROOT
HETATM    1  N1  UNL     1      21.745   4.637  50.370  1.00  0.00    -0.281 N 
HETATM    2  N2  UNL     1      22.630   5.742  50.251  1.00  0.00    -0.291 N 
HETATM    3  C5  UNL     1      23.689   5.779  51.232  1.00  0.00     0.223 C 
HETATM    4  N3  UNL     1      23.805   4.862  52.143  1.00  0.00    -0.245 NA
HETATM    5  C6  UNL     1      22.877   3.757  52.218  1.00  0.00     0.065 A 
HETATM    6  C7  UNL     1      23.375   2.628  52.704  1.00  0.00     0.039 A 
HETATM    7  C8  UNL     1      22.707   1.323  52.912  1.00  0.00    -0.020 A 
HETATM    8  C16 UNL     1      21.450   1.040  52.636  1.00  0.00     0.108 A 
HETATM    9  O2  UNL     1      21.220  -0.260  52.967  1.00  0.00    -0.346 OA
HETATM   10  C17 UNL     1      19.885  -0.634  53.337  1.00  0.00     0.202 C 
HETATM   11  C18 UNL     1      18.877  -0.083  52.374  1.00  0.00     0.202 C 
HETATM   12  O3  UNL     1      19.153   1.219  51.917  1.00  0.00    -0.346 OA
HETATM   13  C19 UNL     1      20.370   1.830  52.083  1.00  0.00     0.101 A 
HETATM   14  C20 UNL     1      20.518   3.095  51.742  1.00  0.00     0.046 A 
HETATM   15  C21 UNL     1      21.552   4.109  51.735  1.00  0.00     0.185 A 
HETATM   16  H4  UNL     1      22.542   6.493  49.504  1.00  0.00     0.188 HD
ENDROOT
BRANCH   7  17
HETATM   17  C9  UNL     1      23.724   0.437  53.493  1.00  0.00     0.043 C 
BRANCH  17  18
HETATM   18  C10 UNL     1      25.126   0.924  53.534  1.00  0.00     0.024 C 
BRANCH  18  19
HETATM   19  C11 UNL     1      26.008  -0.338  53.517  1.00  0.00     0.117 C 
BRANCH  19  20
HETATM   20  N4  UNL     1      27.298  -0.125  53.034  1.00  0.00    -0.408 N 
HETATM   21  C12 UNL     1      28.173  -1.258  52.959  1.00  0.00     0.143 C 
HETATM   22  C13 UNL     1      29.477  -1.058  53.678  1.00  0.00     0.187 C 
HETATM   23  O1  UNL     1      29.912   0.230  53.792  1.00  0.00    -0.388 OA
HETATM   24  C14 UNL     1      28.927   1.129  54.222  1.00  0.00     0.187 C 
HETATM   25  C15 UNL     1      27.916   1.130  53.060  1.00  0.00     0.143 C 
ENDBRANCH  19  20
ENDBRANCH  18  19
ENDBRANCH  17  18
ENDBRANCH   7  17
BRANCH   1  26
HETATM   26  C4  UNL     1      21.151   4.183  49.132  1.00  0.00     0.036 A 
HETATM   27  C3  UNL     1      22.130   3.357  48.350  1.00  0.00     0.089 A 
HETATM   28  C2  UNL     1      21.332   2.997  47.137  1.00  0.00     0.021 A 
HETATM   29  C1  UNL     1      20.134   3.523  47.227  1.00  0.00     0.115 A 
HETATM   30  F1  UNL     1      19.081   3.468  46.378  1.00  0.00    -0.206 F 
HETATM   31  C22 UNL     1      19.997   4.272  48.471  1.00  0.00     0.069 A 
ENDBRANCH   1  26
TORSDOF 5
ENDMDL
MODEL 4
REMARK VINA RESULT:      -7.1      7.765     10.337
REMARK  5 active torsions:
REMARK  status: ('A' for Active; 'I' for Inactive)
REMARK    1  A    between atoms: C4_5  and  N1_6 
REMARK    2  A    between atoms: C8_12  and  C9_13 
REMARK    3  A    between atoms: C9_13  and  C10_14 
REMARK    4  A    between atoms: C10_14  and  C11_15 
REMARK    5  A    between atoms: C11_15  and  N4_16 
ROOT
HETATM    1  N1  UNL     1      33.303   6.617  47.375  1.00  0.00    -0.281 N 
HETATM    2  N2  UNL     1      33.967   5.368  47.237  1.00  0.00    -0.291 N 
HETATM    3  C5  UNL     1      33.215   4.228  47.708  1.00  0.00     0.223 C 
HETATM    4  N3  UNL     1      32.028   4.357  48.213  1.00  0.00    -0.245 NA
HETATM    5  C6  UNL     1      31.398   5.652  48.329  1.00  0.00     0.065 A 
HETATM    6  C7  UNL     1      30.074   5.650  48.255  1.00  0.00     0.039 A 
HETATM    7  C8  UNL     1      29.129   6.788  48.333  1.00  0.00    -0.020 A 
HETATM    8  C16 UNL     1      29.451   8.055  48.493  1.00  0.00     0.108 A 
HETATM    9  O2  UNL     1      28.305   8.789  48.513  1.00  0.00    -0.346 OA
HETATM   10  C17 UNL     1      28.309  10.023  49.246  1.00  0.00     0.202 C 
HETATM   11  C18 UNL     1      29.527  10.840  48.934  1.00  0.00     0.202 C 
HETATM   12  O3  UNL     1      30.711  10.094  48.786  1.00  0.00    -0.346 OA
HETATM   13  C19 UNL     1      30.724   8.730  48.635  1.00  0.00     0.101 A 
HETATM   14  C20 UNL     1      31.874   8.084  48.628  1.00  0.00     0.046 A 
HETATM   15  C21 UNL     1      32.361   6.726  48.506  1.00  0.00     0.185 A 
HETATM   16  H4  UNL     1      34.937   5.256  46.819  1.00  0.00     0.188 HD
ENDROOT
BRANCH   7  17
HETATM   17  C9  UNL     1      27.786   6.206  48.212  1.00  0.00     0.043 C 
BRANCH  17  18
HETATM   18  C10 UNL     1      27.599   4.797  48.641  1.00  0.00     0.024 C 
BRANCH  18  19
HETATM   19  C11 UNL     1      26.323   4.787  49.503  1.00  0.00     0.117 C 
BRANCH  19  20
HETATM   20  N4  UNL     1      25.792   3.517  49.719  1.00  0.00    -0.408 N 
HETATM   21  C12 UNL     1      24.428   3.295  49.333  1.00  0.00     0.143 C 
HETATM   22  C13 UNL     1      23.571   2.758  50.444  1.00  0.00     0.187 C 
HETATM   23  O1  UNL     1      24.213   2.040  51.410  1.00  0.00    -0.388 OA
HETATM   24  C14 UNL     1      25.382   2.645  51.889  1.00  0.00     0.187 C 
HETATM   25  C15 UNL     1      26.316   2.630  50.665  1.00  0.00     0.143 C 
ENDBRANCH  19  20
ENDBRANCH  18  19
ENDBRANCH  17  18
ENDBRANCH   7  17
BRANCH   1  26
HETATM   26  C4  UNL     1      33.647   7.613  46.385  1.00  0.00     0.036 A 
HETATM   27  C3  UNL     1      32.841   7.414  45.134  1.00  0.00     0.089 A 
HETATM   28  C2  UNL     1      33.340   8.523  44.264  1.00  0.00     0.021 A 
HETATM   29  C1  UNL     1      34.252   9.210  44.908  1.00  0.00     0.115 A 
HETATM   30  F1  UNL     1      34.975  10.290  44.526  1.00  0.00    -0.206 F 
HETATM   31  C22 UNL     1      34.461   8.659  46.241  1.00  0.00     0.069 A 
ENDBRANCH   1  26
TORSDOF 5
ENDMDL
MODEL 5
REMARK VINA RESULT:      -7.1      3.457      5.242
REMARK  5 active torsions:
REMARK  status: ('A' for Active; 'I' for Inactive)
REMARK    1  A    between atoms: C4_5  and  N1_6 
REMARK    2  A    between atoms: C8_12  and  C9_13 
REMARK    3  A    between atoms: C9_13  and  C10_14 
REMARK    4  A    between atoms: C10_14  and  C11_15 
REMARK    5  A    between atoms: C11_15  and  N4_16 
ROOT
HETATM    1  N1  UNL     1      22.059   0.976  53.093  1.00  0.00    -0.281 N 
HETATM    2  N2  UNL     1      22.594  -0.083  53.875  1.00  0.00    -0.291 N 
HETATM    3  C5  UNL     1      21.649  -1.122  54.216  1.00  0.00     0.223 C 
HETATM    4  N3  UNL     1      20.413  -1.071  53.827  1.00  0.00    -0.245 NA
HETATM    5  C6  UNL     1      19.921   0.029  53.031  1.00  0.00     0.065 A 
HETATM    6  C7  UNL     1      18.928  -0.266  52.203  1.00  0.00     0.039 A 
HETATM    7  C8  UNL     1      18.202   0.613  51.257  1.00  0.00    -0.020 A 
HETATM    8  C16 UNL     1      18.428   1.896  51.061  1.00  0.00     0.108 A 
HETATM    9  O2  UNL     1      17.558   2.345  50.115  1.00  0.00    -0.346 OA
HETATM   10  C17 UNL     1      17.179   3.728  50.152  1.00  0.00     0.202 C 
HETATM   11  C18 UNL     1      18.373   4.618  50.324  1.00  0.00     0.202 C 
HETATM   12  O3  UNL     1      19.351   4.122  51.206  1.00  0.00    -0.346 OA
HETATM   13  C19 UNL     1      19.377   2.822  51.643  1.00  0.00     0.101 A 
HETATM   14  C20 UNL     1      20.247   2.460  52.566  1.00  0.00     0.046 A 
HETATM   15  C21 UNL     1      20.627   1.271  53.299  1.00  0.00     0.185 A 
HETATM   16  H4  UNL     1      23.606  -0.132  54.192  1.00  0.00     0.188 HD
ENDROOT
BRANCH   7  17
HETATM   17  C9  UNL     1      17.192  -0.234  50.613  1.00  0.00     0.043 C 
BRANCH  17  18
HETATM   18  C10 UNL     1      16.118  -0.805  51.466  1.00  0.00     0.024 C 
BRANCH  18  19
HETATM   19  C11 UNL     1      14.938   0.179  51.367  1.00  0.00     0.117 C 
BRANCH  19  20
HETATM   20  N4  UNL     1      14.696   0.896  52.537  1.00  0.00    -0.408 N 
HETATM   21  C12 UNL     1      13.771   0.336  53.479  1.00  0.00     0.143 C 
HETATM   22  C13 UNL     1      12.655   1.269  53.853  1.00  0.00     0.187 C 
HETATM   23  O1  UNL     1      12.925   2.603  53.758  1.00  0.00    -0.388 OA
HETATM   24  C14 UNL     1      13.549   2.975  52.559  1.00  0.00     0.187 C 
HETATM   25  C15 UNL     1      14.917   2.274  52.638  1.00  0.00     0.143 C 
ENDBRANCH  19  20
ENDBRANCH  18  19
ENDBRANCH  17  18
ENDBRANCH   7  17
BRANCH   1  26
HETATM   26  C4  UNL     1      22.996   1.622  52.202  1.00  0.00     0.036 A 
HETATM   27  C3  UNL     1      24.055   2.344  52.984  1.00  0.00     0.089 A 
HETATM   28  C2  UNL     1      24.900   2.926  51.896  1.00  0.00     0.021 A 
HETATM   29  C1  UNL     1      24.406   2.592  50.729  1.00  0.00     0.115 A 
HETATM   30  F1  UNL     1      24.828   2.887  49.477  1.00  0.00    -0.206 F 
HETATM   31  C22 UNL     1      23.211   1.774  50.895  1.00  0.00     0.069 A 
ENDBRANCH   1  26
TORSDOF 5
ENDMDL
MODEL 6
REMARK VINA RESULT:      -7.1      2.944      5.520
REMARK  5 active torsions:
REMARK  status: ('A' for Active; 'I' for Inactive)
REMARK    1  A    between atoms: C4_5  and  N1_6 
REMARK    2  A    between atoms: C8_12  and  C9_13 
REMARK    3  A    between atoms: C9_13  and  C10_14 
REMARK    4  A    between atoms: C10_14  and  C11_15 
REMARK    5  A    between atoms: C11_15  and  N4_16 
ROOT
HETATM    1  N1  UNL     1      24.086   4.643  48.856  1.00  0.00    -0.281 N 
HETATM    2  N2  UNL     1      23.058   4.899  47.909  1.00  0.00    -0.291 N 
HETATM    3  C5  UNL     1      22.052   3.866  47.812  1.00  0.00     0.223 C 
HETATM    4  N3  UNL     1      22.104   2.795  48.542  1.00  0.00    -0.245 NA
HETATM    5  C6  UNL     1      23.172   2.585  49.492  1.00  0.00     0.065 A 
HETATM    6  C7  UNL     1      22.853   1.864  50.558  1.00  0.00     0.039 A 
HETATM    7  C8  UNL     1      23.697   1.467  51.709  1.00  0.00    -0.020 A 
HETATM    8  C16 UNL     1      24.965   1.777  51.885  1.00  0.00     0.108 A 
HETATM    9  O2  UNL     1      25.381   1.229  53.060  1.00  0.00    -0.346 OA
HETATM   10  C17 UNL     1      26.771   0.896  53.192  1.00  0.00     0.202 C 
HETATM   11  C18 UNL     1      27.648   2.016  52.721  1.00  0.00     0.202 C 
HETATM   12  O3  UNL     1      27.180   2.684  51.574  1.00  0.00    -0.346 OA
HETATM   13  C19 UNL     1      25.903   2.546  51.093  1.00  0.00     0.101 A 
HETATM   14  C20 UNL     1      25.572   3.103  49.945  1.00  0.00     0.046 A 
HETATM   15  C21 UNL     1      24.414   3.221  49.084  1.00  0.00     0.185 A 
HETATM   16  H4  UNL     1      23.008   5.776  47.312  1.00  0.00     0.188 HD
ENDROOT
BRANCH   7  17
HETATM   17  C9  UNL     1      22.836   0.659  52.581  1.00  0.00     0.043 C 
BRANCH  17  18
HETATM   18  C10 UNL     1      21.483   0.301  52.083  1.00  0.00     0.024 C 
BRANCH  18  19
HETATM   19  C11 UNL     1      20.493   1.095  52.954  1.00  0.00     0.117 C 
BRANCH  19  20
HETATM   20  N4  UNL     1      19.255   1.314  52.352  1.00  0.00    -0.408 N 
HETATM   21  C12 UNL     1      18.504   0.163  51.943  1.00  0.00     0.143 C 
HETATM   22  C13 UNL     1      18.101   0.193  50.496  1.00  0.00     0.187 C 
HETATM   23  O1  UNL     1      17.963   1.428  49.932  1.00  0.00    -0.388 OA
HETATM   24  C14 UNL     1      19.025   2.300  50.205  1.00  0.00     0.187 C 
HETATM   25  C15 UNL     1      18.923   2.520  51.725  1.00  0.00     0.143 C 
ENDBRANCH  19  20
ENDBRANCH  18  19
ENDBRANCH  17  18
ENDBRANCH   7  17
BRANCH   1  26
HETATM   26  C4  UNL     1      24.672   5.815  49.466  1.00  0.00     0.036 A 
HETATM   27  C3  UNL     1      23.740   6.401  50.486  1.00  0.00     0.089 A 
HETATM   28  C2  UNL     1      24.523   7.574  50.983  1.00  0.00     0.021 A 
HETATM   29  C1  UNL     1      25.674   7.631  50.357  1.00  0.00     0.115 A 
HETATM   30  F1  UNL     1      26.698   8.510  50.474  1.00  0.00    -0.206 F 
HETATM   31  C22 UNL     1      25.790   6.538  49.401  1.00  0.00     0.069 A 
ENDBRANCH   1  26
TORSDOF 5
ENDMDL
MODEL 7
REMARK VINA RESULT:      -7.0      3.371      7.460
REMARK  5 active torsions:
REMARK  status: ('A' for Active; 'I' for Inactive)
REMARK    1  A    between atoms: C4_5  and  N1_6 
REMARK    2  A    between atoms: C8_12  and  C9_13 
REMARK    3  A    between atoms: C9_13  and  C10_14 
REMARK    4  A    between atoms: C10_14  and  C11_15 
REMARK    5  A    between atoms: C11_15  and  N4_16 
ROOT
HETATM    1  N1  UNL     1      24.297   3.779  49.915  1.00  0.00    -0.281 N 
HETATM    2  N2  UNL     1      25.405   4.413  49.289  1.00  0.00    -0.291 N 
HETATM    3  C5  UNL     1      26.698   4.000  49.784  1.00  0.00     0.223 C 
HETATM    4  N3  UNL     1      26.815   3.118  50.727  1.00  0.00    -0.245 NA
HETATM    5  C6  UNL     1      25.655   2.502  51.329  1.00  0.00     0.065 A 
HETATM    6  C7  UNL     1      25.833   1.268  51.778  1.00  0.00     0.039 A 
HETATM    7  C8  UNL     1      24.866   0.361  52.439  1.00  0.00    -0.020 A 
HETATM    8  C16 UNL     1      23.604   0.632  52.703  1.00  0.00     0.108 A 
HETATM    9  O2  UNL     1      23.051  -0.453  53.311  1.00  0.00    -0.346 OA
HETATM   10  C17 UNL     1      21.953  -0.235  54.209  1.00  0.00     0.202 C 
HETATM   11  C18 UNL     1      20.935   0.689  53.612  1.00  0.00     0.202 C 
HETATM   12  O3  UNL     1      21.475   1.757  52.872  1.00  0.00    -0.346 OA
HETATM   13  C19 UNL     1      22.785   1.802  52.466  1.00  0.00     0.101 A 
HETATM   14  C20 UNL     1      23.253   2.890  51.886  1.00  0.00     0.046 A 
HETATM   15  C21 UNL     1      24.494   3.377  51.322  1.00  0.00     0.185 A 
HETATM   16  H4  UNL     1      25.314   5.132  48.514  1.00  0.00     0.188 HD
ENDROOT
BRANCH   7  17
HETATM   17  C9  UNL     1      25.607  -0.870  52.740  1.00  0.00     0.043 C 
BRANCH  17  18
HETATM   18  C10 UNL     1      26.939  -1.050  52.109  1.00  0.00     0.024 C 
BRANCH  18  19
HETATM   19  C11 UNL     1      27.878  -1.513  53.239  1.00  0.00     0.117 C 
BRANCH  19  20
HETATM   20  N4  UNL     1      28.432  -0.472  53.981  1.00  0.00    -0.408 N 
HETATM   21  C12 UNL     1      27.677   0.023  55.095  1.00  0.00     0.143 C 
HETATM   22  C13 UNL     1      27.439   1.506  55.048  1.00  0.00     0.187 C 
HETATM   23  O1  UNL     1      28.365   2.244  54.371  1.00  0.00    -0.388 OA
HETATM   24  C14 UNL     1      28.705   1.722  53.116  1.00  0.00     0.187 C 
HETATM   25  C15 UNL     1      29.401   0.393  53.462  1.00  0.00     0.143 C 
ENDBRANCH  19  20
ENDBRANCH  18  19
ENDBRANCH  17  18
ENDBRANCH   7  17
BRANCH   1  26
HETATM   26  C4  UNL     1      23.125   3.618  49.084  1.00  0.00     0.036 A 
HETATM   27  C3  UNL     1      22.689   4.942  48.526  1.00  0.00     0.089 A 
HETATM   28  C2  UNL     1      21.493   4.557  47.716  1.00  0.00     0.021 A 
HETATM   29  C1  UNL     1      21.298   3.264  47.806  1.00  0.00     0.115 A 
HETATM   30  F1  UNL     1      20.348   2.475  47.251  1.00  0.00    -0.206 F 
HETATM   31  C22 UNL     1      22.310   2.653  48.659  1.00  0.00     0.069 A 
ENDBRANCH   1  26
TORSDOF 5
ENDMDL
MODEL 8
REMARK VINA RESULT:      -6.9      3.405      7.231
REMARK  5 active torsions:
REMARK  status: ('A' for Active; 'I' for Inactive)
REMARK    1  A    between atoms: C4_5  and  N1_6 
REMARK    2  A    between atoms: C8_12  and  C9_13 
REMARK    3  A    between atoms: C9_13  and  C10_14 
REMARK    4  A    between atoms: C10_14  and  C11_15 
REMARK    5  A    between atoms: C11_15  and  N4_16 
ROOT
HETATM    1  N1  UNL     1      20.916   4.297  49.425  1.00  0.00    -0.281 N 
HETATM    2  N2  UNL     1      19.735   3.533  49.633  1.00  0.00    -0.291 N 
HETATM    3  C5  UNL     1      19.962   2.155  50.001  1.00  0.00     0.223 C 
HETATM    4  N3  UNL     1      21.160   1.672  50.127  1.00  0.00    -0.245 NA
HETATM    5  C6  UNL     1      22.328   2.494  49.905  1.00  0.00     0.065 A 
HETATM    6  C7  UNL     1      23.401   2.160  50.609  1.00  0.00     0.039 A 
HETATM    7  C8  UNL     1      24.744   2.784  50.623  1.00  0.00    -0.020 A 
HETATM    8  C16 UNL     1      25.123   3.827  49.913  1.00  0.00     0.108 A 
HETATM    9  O2  UNL     1      26.425   4.095  50.206  1.00  0.00    -0.346 OA
HETATM   10  C17 UNL     1      27.225   4.731  49.199  1.00  0.00     0.202 C 
HETATM   11  C18 UNL     1      26.507   5.895  48.585  1.00  0.00     0.202 C 
HETATM   12  O3  UNL     1      25.130   5.692  48.380  1.00  0.00    -0.346 OA
HETATM   13  C19 UNL     1      24.430   4.660  48.952  1.00  0.00     0.101 A 
HETATM   14  C20 UNL     1      23.171   4.458  48.616  1.00  0.00     0.046 A 
HETATM   15  C21 UNL     1      22.090   3.549  48.933  1.00  0.00     0.185 A 
HETATM   16  H4  UNL     1      18.753   3.924  49.536  1.00  0.00     0.188 HD
ENDROOT
BRANCH   7  17
HETATM   17  C9  UNL     1      25.545   1.997  51.568  1.00  0.00     0.043 C 
BRANCH  17  18
HETATM   18  C10 UNL     1      25.008   1.802  52.939  1.00  0.00     0.024 C 
BRANCH  18  19
HETATM   19  C11 UNL     1      26.226   1.869  53.879  1.00  0.00     0.117 C 
BRANCH  19  20
HETATM   20  N4  UNL     1      26.695   0.623  54.291  1.00  0.00    -0.408 N 
HETATM   21  C12 UNL     1      28.094   0.505  54.583  1.00  0.00     0.143 C 
HETATM   22  C13 UNL     1      28.776  -0.596  53.821  1.00  0.00     0.187 C 
HETATM   23  O1  UNL     1      27.989  -1.644  53.441  1.00  0.00    -0.388 OA
HETATM   24  C14 UNL     1      26.777  -1.263  52.852  1.00  0.00     0.187 C 
HETATM   25  C15 UNL     1      26.024  -0.570  54.002  1.00  0.00     0.143 C 
ENDBRANCH  19  20
ENDBRANCH  18  19
ENDBRANCH  17  18
ENDBRANCH   7  17
BRANCH   1  26
HETATM   26  C4  UNL     1      20.802   5.707  49.722  1.00  0.00     0.036 A 
HETATM   27  C3  UNL     1      21.628   6.060  50.925  1.00  0.00     0.089 A 
HETATM   28  C2  UNL     1      21.373   7.528  51.054  1.00  0.00     0.021 A 
HETATM   29  C1  UNL     1      20.560   7.919  50.103  1.00  0.00     0.115 A 
HETATM   30  F1  UNL     1      20.054   9.144  49.824  1.00  0.00    -0.206 F 
HETATM   31  C22 UNL     1      20.188   6.793  49.255  1.00  0.00     0.069 A 
ENDBRANCH   1  26
TORSDOF 5
ENDMDL
MODEL 9
REMARK VINA RESULT:      -6.8      6.440      9.597
REMARK  5 active torsions:
REMARK  status: ('A' for Active; 'I' for Inactive)
REMARK    1  A    between atoms: C4_5  and  N1_6 
REMARK    2  A    between atoms: C8_12  and  C9_13 
REMARK    3  A    between atoms: C9_13  and  C10_14 
REMARK    4  A    between atoms: C10_14  and  C11_15 
REMARK    5  A    between atoms: C11_15  and  N4_16 
ROOT
HETATM    1  N1  UNL     1      27.496  10.045  47.106  1.00  0.00    -0.281 N 
HETATM    2  N2  UNL     1      26.204  10.627  47.004  1.00  0.00    -0.291 N 
HETATM    3  C5  UNL     1      25.110   9.684  47.039  1.00  0.00     0.223 C 
HETATM    4  N3  UNL     1      25.315   8.409  47.155  1.00  0.00    -0.245 NA
HETATM    5  C6  UNL     1      26.652   7.869  47.257  1.00  0.00     0.065 A 
HETATM    6  C7  UNL     1      26.761   6.747  47.955  1.00  0.00     0.039 A 
HETATM    7  C8  UNL     1      27.968   5.942  48.252  1.00  0.00    -0.020 A 
HETATM    8  C16 UNL     1      29.197   6.212  47.862  1.00  0.00     0.108 A 
HETATM    9  O2  UNL     1      30.022   5.238  48.336  1.00  0.00    -0.346 OA
HETATM   10  C17 UNL     1      31.219   4.952  47.598  1.00  0.00     0.202 C 
HETATM   11  C18 UNL     1      31.945   6.210  47.226  1.00  0.00     0.202 C 
HETATM   12  O3  UNL     1      31.111   7.277  46.846  1.00  0.00    -0.346 OA
HETATM   13  C19 UNL     1      29.759   7.292  47.076  1.00  0.00     0.101 A 
HETATM   14  C20 UNL     1      29.021   8.267  46.581  1.00  0.00     0.046 A 
HETATM   15  C21 UNL     1      27.635   8.681  46.558  1.00  0.00     0.185 A 
HETATM   16  H4  UNL     1      26.030  11.671  46.914  1.00  0.00     0.188 HD
ENDROOT
BRANCH   7  17
HETATM   17  C9  UNL     1      27.505   4.797  49.044  1.00  0.00     0.043 C 
BRANCH  17  18
HETATM   18  C10 UNL     1      26.063   4.732  49.394  1.00  0.00     0.024 C 
BRANCH  18  19
HETATM   19  C11 UNL     1      25.799   3.274  49.813  1.00  0.00     0.117 C 
BRANCH  19  20
HETATM   20  N4  UNL     1      24.596   3.087  50.492  1.00  0.00    -0.408 N 
HETATM   21  C12 UNL     1      23.742   4.228  50.654  1.00  0.00     0.143 C 
HETATM   22  C13 UNL     1      23.362   4.495  52.083  1.00  0.00     0.187 C 
HETATM   23  O1  UNL     1      23.351   3.415  52.917  1.00  0.00    -0.388 OA
HETATM   24  C14 UNL     1      24.489   2.604  52.814  1.00  0.00     0.187 C 
HETATM   25  C15 UNL     1      24.390   2.033  51.388  1.00  0.00     0.143 C 
ENDBRANCH  19  20
ENDBRANCH  18  19
ENDBRANCH  17  18
ENDBRANCH   7  17
BRANCH   1  26
HETATM   26  C4  UNL     1      28.502  10.875  47.731  1.00  0.00     0.036 A 
HETATM   27  C3  UNL     1      28.907  11.993  46.814  1.00  0.00     0.089 A 
HETATM   28  C2  UNL     1      29.928  12.712  47.636  1.00  0.00     0.021 A 
HETATM   29  C1  UNL     1      30.066  12.109  48.792  1.00  0.00     0.115 A 
HETATM   30  F1  UNL     1      30.866  12.397  49.846  1.00  0.00    -0.206 F 
HETATM   31  C22 UNL     1      29.181  10.954  48.874  1.00  0.00     0.069 A 
ENDBRANCH   1  26
TORSDOF 5
ENDMDL
