MODEL 1
REMARK VINA RESULT:      -7.0      0.000      0.000
REMARK  1 active torsions:
REMARK  status: ('A' for Active; 'I' for Inactive)
REMARK       I    between atoms: N1_3  and  C3_4 
REMARK       I    between atoms: C3_4  and  N2_6 
REMARK    1  A    between atoms: C14_21  and  O3_22 
ROOT
HETATM    1  C1  UNL     1      26.788  -1.493  52.721  1.00  0.00     0.120 C 
HETATM    2  C2  UNL     1      25.952  -0.540  53.099  1.00  0.00    -0.038 C 
HETATM    3  N1  UNL     1      25.169   0.463  53.295  1.00  0.00    -0.154 NA
HETATM    4  C3  UNL     1      24.787   1.230  52.192  1.00  0.00     0.357 C 
HETATM    5  O1  UNL     1      25.630   1.399  51.246  1.00  0.00    -0.244 OA
HETATM    6  N2  UNL     1      23.496   1.839  52.066  1.00  0.00    -0.282 N 
HETATM    7  C4  UNL     1      22.473   1.707  53.084  1.00  0.00     0.149 C 
HETATM    8  C5  UNL     1      21.252   2.432  52.508  1.00  0.00     0.100 C 
HETATM    9  C6  UNL     1      20.274   1.541  51.883  1.00  0.00     0.079 A 
HETATM   10  C7  UNL     1      19.611   1.534  50.754  1.00  0.00     0.068 A 
HETATM   11  C8  UNL     1      18.730   0.339  50.656  1.00  0.00     0.088 A 
HETATM   12  C9  UNL     1      18.904  -0.322  51.972  1.00  0.00     0.181 A 
HETATM   13  O2  UNL     1      19.914   0.414  52.600  1.00  0.00    -0.352 OA
HETATM   14  N3  UNL     1      19.543   2.395  49.624  1.00  0.00    -0.236 NA
HETATM   15  C10 UNL     1      20.432   2.249  48.699  1.00  0.00     0.130 C 
HETATM   16  C11 UNL     1      21.648   1.489  48.228  1.00  0.00     0.354 C 
HETATM   17  N4  UNL     1      22.470   2.531  47.635  1.00  0.00     0.132 N 
HETATM   18  C12 UNL     1      23.056   3.381  48.687  1.00  0.00     0.425 C 
HETATM   19  N5  UNL     1      23.497   2.612  49.789  1.00  0.00    -0.243 NA
HETATM   20  C13 UNL     1      23.017   2.635  50.984  1.00  0.00     0.137 C 
HETATM   21  C14 UNL     1      21.905   3.406  51.631  1.00  0.00     0.202 C 
HETATM   22  C16 UNL     1      21.524   3.300  46.841  1.00  0.00     0.399 C 
HETATM   23  N6  UNL     1      20.271   3.170  47.598  1.00  0.00    -0.352 N 
HETATM   24  H20 UNL     1      19.532   3.790  47.152  1.00  0.00     0.162 HD
ENDROOT
BRANCH  21  25
HETATM   25  O3  UNL     1      22.407   4.447  52.415  1.00  0.00    -0.382 OA
HETATM   26  C15 UNL     1      22.734   5.573  51.692  1.00  0.00     0.202 C 
ENDBRANCH  21  25
TORSDOF 1
ENDMDL
MODEL 2
REMARK VINA RESULT:      -6.8      2.531      5.670
REMARK  1 active torsions:
REMARK  status: ('A' for Active; 'I' for Inactive)
REMARK       I    between atoms: N1_3  and  C3_4 
REMARK       I    between atoms: C3_4  and  N2_6 
REMARK    1  A    between atoms: C14_21  and  O3_22 
ROOT
HETATM    1  C1  UNL     1      15.877   3.955  52.335  1.00  0.00     0.120 C 
HETATM    2  C2  UNL     1      16.655   3.267  51.515  1.00  0.00    -0.038 C 
HETATM    3  N1  UNL     1      17.504   2.762  50.690  1.00  0.00    -0.154 NA
HETATM    4  C3  UNL     1      18.640   3.509  50.369  1.00  0.00     0.357 C 
HETATM    5  O1  UNL     1      18.533   4.781  50.301  1.00  0.00    -0.244 OA
HETATM    6  N2  UNL     1      19.921   2.920  50.112  1.00  0.00    -0.282 N 
HETATM    7  C4  UNL     1      20.142   1.489  50.164  1.00  0.00     0.149 C 
HETATM    8  C5  UNL     1      21.644   1.317  49.912  1.00  0.00     0.100 C 
HETATM    9  C6  UNL     1      22.435   1.146  51.132  1.00  0.00     0.079 A 
HETATM   10  C7  UNL     1      23.542   1.663  51.602  1.00  0.00     0.068 A 
HETATM   11  C8  UNL     1      23.877   1.093  52.934  1.00  0.00     0.088 A 
HETATM   12  C9  UNL     1      22.827   0.065  53.140  1.00  0.00     0.181 A 
HETATM   13  O2  UNL     1      21.958   0.234  52.057  1.00  0.00    -0.352 OA
HETATM   14  N3  UNL     1      24.478   2.625  51.135  1.00  0.00    -0.236 NA
HETATM   15  C10 UNL     1      24.219   3.873  51.344  1.00  0.00     0.130 C 
HETATM   16  C11 UNL     1      23.257   4.879  51.929  1.00  0.00     0.354 C 
HETATM   17  N4  UNL     1      23.279   5.952  50.948  1.00  0.00     0.132 N 
HETATM   18  C12 UNL     1      22.558   5.545  49.729  1.00  0.00     0.425 C 
HETATM   19  N5  UNL     1      21.375   4.834  50.039  1.00  0.00    -0.243 NA
HETATM   20  C13 UNL     1      21.132   3.597  49.780  1.00  0.00     0.137 C 
HETATM   21  C14 UNL     1      21.923   2.510  49.112  1.00  0.00     0.202 C 
HETATM   22  C16 UNL     1      24.695   6.121  50.659  1.00  0.00     0.399 C 
HETATM   23  N6  UNL     1      25.233   4.764  50.832  1.00  0.00    -0.352 N 
HETATM   24  H20 UNL     1      26.254   4.757  50.537  1.00  0.00     0.162 HD
ENDROOT
BRANCH  21  25
HETATM   25  O3  UNL     1      21.473   2.291  47.808  1.00  0.00    -0.382 OA
HETATM   26  C15 UNL     1      21.917   3.232  46.906  1.00  0.00     0.202 C 
ENDBRANCH  21  25
TORSDOF 1
ENDMDL
MODEL 3
REMARK VINA RESULT:      -6.7     10.609     12.603
REMARK  1 active torsions:
REMARK  status: ('A' for Active; 'I' for Inactive)
REMARK       I    between atoms: N1_3  and  C3_4 
REMARK       I    between atoms: C3_4  and  N2_6 
REMARK    1  A    between atoms: C14_21  and  O3_22 
ROOT
HETATM    1  C1  UNL     1      33.303   4.455  41.633  1.00  0.00     0.120 C 
HETATM    2  C2  UNL     1      33.542   4.417  42.934  1.00  0.00    -0.038 C 
HETATM    3  N1  UNL     1      33.798   4.569  44.187  1.00  0.00    -0.154 NA
HETATM    4  C3  UNL     1      33.772   5.861  44.716  1.00  0.00     0.357 C 
HETATM    5  O1  UNL     1      34.164   6.829  43.978  1.00  0.00    -0.244 OA
HETATM    6  N2  UNL     1      33.328   6.158  46.045  1.00  0.00    -0.282 N 
HETATM    7  C4  UNL     1      32.867   5.131  46.957  1.00  0.00     0.149 C 
HETATM    8  C5  UNL     1      32.420   5.892  48.210  1.00  0.00     0.100 C 
HETATM    9  C6  UNL     1      30.977   6.130  48.276  1.00  0.00     0.079 A 
HETATM   10  C7  UNL     1      30.217   7.162  48.539  1.00  0.00     0.068 A 
HETATM   11  C8  UNL     1      28.776   6.802  48.456  1.00  0.00     0.088 A 
HETATM   12  C9  UNL     1      28.803   5.342  48.195  1.00  0.00     0.181 A 
HETATM   13  O2  UNL     1      30.157   5.047  48.010  1.00  0.00    -0.352 OA
HETATM   14  N3  UNL     1      30.452   8.522  48.881  1.00  0.00    -0.236 NA
HETATM   15  C10 UNL     1      30.658   9.360  47.919  1.00  0.00     0.130 C 
HETATM   16  C11 UNL     1      30.774   9.563  46.428  1.00  0.00     0.354 C 
HETATM   17  N4  UNL     1      31.870  10.513  46.317  1.00  0.00     0.132 N 
HETATM   18  C12 UNL     1      33.152   9.851  46.615  1.00  0.00     0.425 C 
HETATM   19  N5  UNL     1      33.215   8.560  46.039  1.00  0.00    -0.243 NA
HETATM   20  C13 UNL     1      33.266   7.439  46.670  1.00  0.00     0.137 C 
HETATM   21  C14 UNL     1      33.276   7.077  48.126  1.00  0.00     0.202 C 
HETATM   22  C16 UNL     1      31.569  11.501  47.341  1.00  0.00     0.399 C 
HETATM   23  N6  UNL     1      30.884  10.711  48.375  1.00  0.00    -0.352 N 
HETATM   24  H20 UNL     1      30.714  11.328  49.224  1.00  0.00     0.162 HD
ENDROOT
BRANCH  21  25
HETATM   25  O3  UNL     1      34.562   6.731  48.548  1.00  0.00    -0.382 OA
HETATM   26  C15 UNL     1      35.465   7.768  48.469  1.00  0.00     0.202 C 
ENDBRANCH  21  25
TORSDOF 1
ENDMDL
MODEL 4
REMARK VINA RESULT:      -6.4     10.827     13.564
REMARK  1 active torsions:
REMARK  status: ('A' for Active; 'I' for Inactive)
REMARK       I    between atoms: N1_3  and  C3_4 
REMARK       I    between atoms: C3_4  and  N2_6 
REMARK    1  A    between atoms: C14_21  and  O3_22 
ROOT
HETATM    1  C1  UNL     1      26.945   8.444  46.559  1.00  0.00     0.120 C 
HETATM    2  C2  UNL     1      28.192   8.821  46.326  1.00  0.00    -0.038 C 
HETATM    3  N1  UNL     1      29.453   9.063  46.235  1.00  0.00    -0.154 NA
HETATM    4  C3  UNL     1      30.344   8.172  46.839  1.00  0.00     0.357 C 
HETATM    5  O1  UNL     1      29.994   7.609  47.932  1.00  0.00    -0.244 OA
HETATM    6  N2  UNL     1      31.631   7.856  46.294  1.00  0.00    -0.282 N 
HETATM    7  C4  UNL     1      32.117   8.442  45.062  1.00  0.00     0.149 C 
HETATM    8  C5  UNL     1      33.474   7.772  44.818  1.00  0.00     0.100 C 
HETATM    9  C6  UNL     1      33.421   6.654  43.875  1.00  0.00     0.079 A 
HETATM   10  C7  UNL     1      33.885   5.430  43.857  1.00  0.00     0.068 A 
HETATM   11  C8  UNL     1      33.510   4.732  42.598  1.00  0.00     0.088 A 
HETATM   12  C9  UNL     1      32.821   5.787  41.815  1.00  0.00     0.181 A 
HETATM   13  O2  UNL     1      32.733   6.871  42.694  1.00  0.00    -0.352 OA
HETATM   14  N3  UNL     1      34.654   4.634  44.750  1.00  0.00    -0.236 NA
HETATM   15  C10 UNL     1      34.030   4.012  45.694  1.00  0.00     0.130 C 
HETATM   16  C11 UNL     1      32.700   3.719  46.346  1.00  0.00     0.354 C 
HETATM   17  N4  UNL     1      33.028   3.726  47.763  1.00  0.00     0.132 N 
HETATM   18  C12 UNL     1      33.273   5.104  48.224  1.00  0.00     0.425 C 
HETATM   19  N5  UNL     1      32.344   6.011  47.662  1.00  0.00    -0.243 NA
HETATM   20  C13 UNL     1      32.603   6.964  46.835  1.00  0.00     0.137 C 
HETATM   21  C14 UNL     1      33.868   7.452  46.191  1.00  0.00     0.202 C 
HETATM   22  C16 UNL     1      34.256   2.950  47.832  1.00  0.00     0.399 C 
HETATM   23  N6  UNL     1      34.901   3.233  46.542  1.00  0.00    -0.352 N 
HETATM   24  H20 UNL     1      35.868   2.792  46.535  1.00  0.00     0.162 HD
ENDROOT
BRANCH  21  25
HETATM   25  O3  UNL     1      34.327   8.617  46.809  1.00  0.00    -0.382 OA
HETATM   26  C15 UNL     1      35.066   8.384  47.947  1.00  0.00     0.202 C 
ENDBRANCH  21  25
TORSDOF 1
ENDMDL
MODEL 5
REMARK VINA RESULT:      -6.3      3.503      5.363
REMARK  1 active torsions:
REMARK  status: ('A' for Active; 'I' for Inactive)
REMARK       I    between atoms: N1_3  and  C3_4 
REMARK       I    between atoms: C3_4  and  N2_6 
REMARK    1  A    between atoms: C14_21  and  O3_22 
ROOT
HETATM    1  C1  UNL     1      28.477   5.912  48.236  1.00  0.00     0.120 C 
HETATM    2  C2  UNL     1      27.516   5.102  48.652  1.00  0.00    -0.038 C 
HETATM    3  N1  UNL     1      26.506   4.469  49.139  1.00  0.00    -0.154 NA
HETATM    4  C3  UNL     1      25.433   5.215  49.633  1.00  0.00     0.357 C 
HETATM    5  O1  UNL     1      25.679   6.332  50.204  1.00  0.00    -0.244 OA
HETATM    6  N2  UNL     1      24.068   4.791  49.531  1.00  0.00    -0.282 N 
HETATM    7  C4  UNL     1      23.688   3.542  48.902  1.00  0.00     0.149 C 
HETATM    8  C5  UNL     1      22.156   3.535  48.942  1.00  0.00     0.100 C 
HETATM    9  C6  UNL     1      21.529   3.969  47.693  1.00  0.00     0.079 A 
HETATM   10  C7  UNL     1      20.567   4.798  47.374  1.00  0.00     0.068 A 
HETATM   11  C8  UNL     1      20.356   4.835  45.902  1.00  0.00     0.088 A 
HETATM   12  C9  UNL     1      21.295   3.804  45.396  1.00  0.00     0.181 A 
HETATM   13  O2  UNL     1      22.018   3.408  46.526  1.00  0.00    -0.352 OA
HETATM   14  N3  UNL     1      19.695   5.652  48.103  1.00  0.00    -0.236 NA
HETATM   15  C10 UNL     1      20.128   6.826  48.423  1.00  0.00     0.130 C 
HETATM   16  C11 UNL     1      21.274   7.807  48.363  1.00  0.00     0.354 C 
HETATM   17  N4  UNL     1      21.244   8.419  49.681  1.00  0.00     0.132 N 
HETATM   18  C12 UNL     1      21.734   7.471  50.697  1.00  0.00     0.425 C 
HETATM   19  N5  UNL     1      22.856   6.746  50.231  1.00  0.00    -0.243 NA
HETATM   20  C13 UNL     1      22.911   5.480  50.002  1.00  0.00     0.137 C 
HETATM   21  C14 UNL     1      21.912   4.368  50.120  1.00  0.00     0.202 C 
HETATM   22  C16 UNL     1      19.831   8.695  49.895  1.00  0.00     0.399 C 
HETATM   23  N6  UNL     1      19.165   7.611  49.159  1.00  0.00    -0.352 N 
HETATM   24  H20 UNL     1      18.119   7.662  49.342  1.00  0.00     0.162 HD
ENDROOT
BRANCH  21  25
HETATM   25  O3  UNL     1      22.147   3.603  51.265  1.00  0.00    -0.382 OA
HETATM   26  C15 UNL     1      21.025   3.414  52.042  1.00  0.00     0.202 C 
ENDBRANCH  21  25
TORSDOF 1
ENDMDL
MODEL 6
REMARK VINA RESULT:      -6.2      3.063      4.831
REMARK  1 active torsions:
REMARK  status: ('A' for Active; 'I' for Inactive)
REMARK       I    between atoms: N1_3  and  C3_4 
REMARK       I    between atoms: C3_4  and  N2_6 
REMARK    1  A    between atoms: C14_21  and  O3_22 
ROOT
HETATM    1  C1  UNL     1      28.304   6.950  47.837  1.00  0.00     0.120 C 
HETATM    2  C2  UNL     1      27.350   7.172  48.727  1.00  0.00    -0.038 C 
HETATM    3  N1  UNL     1      26.300   7.350  49.450  1.00  0.00    -0.154 NA
HETATM    4  C3  UNL     1      25.072   6.903  48.956  1.00  0.00     0.357 C 
HETATM    5  O1  UNL     1      24.861   6.971  47.697  1.00  0.00    -0.244 OA
HETATM    6  N2  UNL     1      24.036   6.370  49.790  1.00  0.00    -0.282 N 
HETATM    7  C4  UNL     1      24.179   6.252  51.226  1.00  0.00     0.149 C 
HETATM    8  C5  UNL     1      22.890   5.568  51.693  1.00  0.00     0.100 C 
HETATM    9  C6  UNL     1      23.024   4.125  51.898  1.00  0.00     0.079 A 
HETATM   10  C7  UNL     1      22.332   3.069  51.553  1.00  0.00     0.068 A 
HETATM   11  C8  UNL     1      22.969   1.823  52.056  1.00  0.00     0.088 A 
HETATM   12  C9  UNL     1      24.117   2.322  52.851  1.00  0.00     0.181 A 
HETATM   13  O2  UNL     1      24.125   3.701  52.621  1.00  0.00    -0.352 OA
HETATM   14  N3  UNL     1      21.131   2.850  50.825  1.00  0.00    -0.236 NA
HETATM   15  C10 UNL     1      21.208   2.787  49.537  1.00  0.00     0.130 C 
HETATM   16  C11 UNL     1      22.104   2.850  48.324  1.00  0.00     0.354 C 
HETATM   17  N4  UNL     1      21.295   3.583  47.363  1.00  0.00     0.132 N 
HETATM   18  C12 UNL     1      21.221   5.006  47.737  1.00  0.00     0.425 C 
HETATM   19  N5  UNL     1      22.472   5.489  48.189  1.00  0.00    -0.243 NA
HETATM   20  C13 UNL     1      22.757   5.890  49.379  1.00  0.00     0.137 C 
HETATM   21  C14 UNL     1      21.961   5.998  50.647  1.00  0.00     0.202 C 
HETATM   22  C16 UNL     1      19.983   2.966  47.484  1.00  0.00     0.399 C 
HETATM   23  N6  UNL     1      19.935   2.560  48.896  1.00  0.00    -0.352 N 
HETATM   24  H20 UNL     1      18.963   2.190  49.115  1.00  0.00     0.162 HD
ENDROOT
BRANCH  21  25
HETATM   25  O3  UNL     1      21.589   7.321  50.893  1.00  0.00    -0.382 OA
HETATM   26  C15 UNL     1      20.588   7.776  50.064  1.00  0.00     0.202 C 
ENDBRANCH  21  25
TORSDOF 1
ENDMDL
MODEL 7
REMARK VINA RESULT:      -6.1     23.583     28.021
REMARK  1 active torsions:
REMARK  status: ('A' for Active; 'I' for Inactive)
REMARK       I    between atoms: N1_3  and  C3_4 
REMARK       I    between atoms: C3_4  and  N2_6 
REMARK    1  A    between atoms: C14_21  and  O3_22 
ROOT
HETATM    1  C1  UNL     1      37.418  -1.888  67.124  1.00  0.00     0.120 C 
HETATM    2  C2  UNL     1      38.673  -1.533  66.898  1.00  0.00    -0.038 C 
HETATM    3  N1  UNL     1      39.850  -1.027  66.769  1.00  0.00    -0.154 NA
HETATM    4  C3  UNL     1      40.180   0.085  67.546  1.00  0.00     0.357 C 
HETATM    5  O1  UNL     1      39.266   0.940  67.806  1.00  0.00    -0.244 OA
HETATM    6  N2  UNL     1      41.494   0.317  68.069  1.00  0.00    -0.282 N 
HETATM    7  C4  UNL     1      42.596  -0.592  67.829  1.00  0.00     0.149 C 
HETATM    8  C5  UNL     1      43.766  -0.007  68.628  1.00  0.00     0.100 C 
HETATM    9  C6  UNL     1      43.967  -0.638  69.933  1.00  0.00     0.079 A 
HETATM   10  C7  UNL     1      44.162  -0.206  71.154  1.00  0.00     0.068 A 
HETATM   11  C8  UNL     1      44.305  -1.339  72.107  1.00  0.00     0.088 A 
HETATM   12  C9  UNL     1      44.262  -2.533  71.228  1.00  0.00     0.181 A 
HETATM   13  O2  UNL     1      43.963  -2.021  69.961  1.00  0.00    -0.352 OA
HETATM   14  N3  UNL     1      44.268   1.075  71.761  1.00  0.00    -0.236 NA
HETATM   15  C10 UNL     1      43.176   1.678  72.096  1.00  0.00     0.130 C 
HETATM   16  C11 UNL     1      41.668   1.623  72.134  1.00  0.00     0.354 C 
HETATM   17  N4  UNL     1      41.288   2.988  71.808  1.00  0.00     0.132 N 
HETATM   18  C12 UNL     1      41.526   3.258  70.380  1.00  0.00     0.425 C 
HETATM   19  N5  UNL     1      41.145   2.160  69.574  1.00  0.00    -0.243 NA
HETATM   20  C13 UNL     1      41.925   1.417  68.868  1.00  0.00     0.137 C 
HETATM   21  C14 UNL     1      43.407   1.411  68.634  1.00  0.00     0.202 C 
HETATM   22  C16 UNL     1      42.182   3.795  72.625  1.00  0.00     0.399 C 
HETATM   23  N6  UNL     1      43.396   2.968  72.705  1.00  0.00    -0.352 N 
HETATM   24  H20 UNL     1      44.158   3.521  73.198  1.00  0.00     0.162 HD
ENDROOT
BRANCH  21  25
HETATM   25  O3  UNL     1      43.720   1.958  67.387  1.00  0.00    -0.382 OA
HETATM   26  C15 UNL     1      44.611   3.006  67.453  1.00  0.00     0.202 C 
ENDBRANCH  21  25
TORSDOF 1
ENDMDL
MODEL 8
REMARK VINA RESULT:      -6.0      2.605      6.437
REMARK  1 active torsions:
REMARK  status: ('A' for Active; 'I' for Inactive)
REMARK       I    between atoms: N1_3  and  C3_4 
REMARK       I    between atoms: C3_4  and  N2_6 
REMARK    1  A    between atoms: C14_21  and  O3_22 
ROOT
HETATM    1  C1  UNL     1      20.765   3.971  44.111  1.00  0.00     0.120 C 
HETATM    2  C2  UNL     1      20.279   4.345  45.284  1.00  0.00    -0.038 C 
HETATM    3  N1  UNL     1      19.885   4.549  46.492  1.00  0.00    -0.154 NA
HETATM    4  C3  UNL     1      20.455   3.785  47.512  1.00  0.00     0.357 C 
HETATM    5  O1  UNL     1      20.771   2.572  47.260  1.00  0.00    -0.244 OA
HETATM    6  N2  UNL     1      20.704   4.291  48.829  1.00  0.00    -0.282 N 
HETATM    7  C4  UNL     1      20.381   5.651  49.212  1.00  0.00     0.149 C 
HETATM    8  C5  UNL     1      20.884   5.782  50.653  1.00  0.00     0.100 C 
HETATM    9  C6  UNL     1      22.197   6.417  50.767  1.00  0.00     0.079 A 
HETATM   10  C7  UNL     1      23.305   6.153  51.414  1.00  0.00     0.068 A 
HETATM   11  C8  UNL     1      24.343   7.183  51.142  1.00  0.00     0.088 A 
HETATM   12  C9  UNL     1      23.631   8.171  50.294  1.00  0.00     0.181 A 
HETATM   13  O2  UNL     1      22.387   7.583  50.046  1.00  0.00    -0.352 OA
HETATM   14  N3  UNL     1      23.729   5.127  52.301  1.00  0.00    -0.236 NA
HETATM   15  C10 UNL     1      24.181   4.031  51.786  1.00  0.00     0.130 C 
HETATM   16  C11 UNL     1      24.493   3.268  50.522  1.00  0.00     0.354 C 
HETATM   17  N4  UNL     1      24.083   1.914  50.853  1.00  0.00     0.132 N 
HETATM   18  C12 UNL     1      22.613   1.818  50.887  1.00  0.00     0.425 C 
HETATM   19  N5  UNL     1      22.022   2.544  49.826  1.00  0.00    -0.243 NA
HETATM   20  C13 UNL     1      21.280   3.591  49.931  1.00  0.00     0.137 C 
HETATM   21  C14 UNL     1      20.788   4.391  51.101  1.00  0.00     0.202 C 
HETATM   22  C16 UNL     1      24.627   1.710  52.187  1.00  0.00     0.399 C 
HETATM   23  N6  UNL     1      24.586   3.058  52.772  1.00  0.00    -0.352 N 
HETATM   24  H20 UNL     1      24.867   2.998  53.796  1.00  0.00     0.162 HD
ENDROOT
BRANCH  21  25
HETATM   25  O3  UNL     1      19.451   4.102  51.379  1.00  0.00    -0.382 OA
HETATM   26  C15 UNL     1      19.263   2.867  51.961  1.00  0.00     0.202 C 
ENDBRANCH  21  25
TORSDOF 1
ENDMDL
MODEL 9
REMARK VINA RESULT:      -5.9     23.763     26.581
REMARK  1 active torsions:
REMARK  status: ('A' for Active; 'I' for Inactive)
REMARK       I    between atoms: N1_3  and  C3_4 
REMARK       I    between atoms: C3_4  and  N2_6 
REMARK    1  A    between atoms: C14_21  and  O3_22 
ROOT
HETATM    1  C1  UNL     1      36.103   1.996  72.785  1.00  0.00     0.120 C 
HETATM    2  C2  UNL     1      36.841   2.105  71.693  1.00  0.00    -0.038 C 
HETATM    3  N1  UNL     1      37.702   2.143  70.736  1.00  0.00    -0.154 NA
HETATM    4  C3  UNL     1      38.904   1.451  70.899  1.00  0.00     0.357 C 
HETATM    5  O1  UNL     1      39.419   1.393  72.068  1.00  0.00    -0.244 OA
HETATM    6  N2  UNL     1      39.590   0.801  69.823  1.00  0.00    -0.282 N 
HETATM    7  C4  UNL     1      39.087   0.810  68.464  1.00  0.00     0.149 C 
HETATM    8  C5  UNL     1      40.074  -0.059  67.676  1.00  0.00     0.100 C 
HETATM    9  C6  UNL     1      39.623  -1.438  67.479  1.00  0.00     0.079 A 
HETATM   10  C7  UNL     1      40.165  -2.621  67.616  1.00  0.00     0.068 A 
HETATM   11  C8  UNL     1      39.201  -3.697  67.259  1.00  0.00     0.088 A 
HETATM   12  C9  UNL     1      38.012  -2.948  66.785  1.00  0.00     0.181 A 
HETATM   13  O2  UNL     1      38.321  -1.608  67.041  1.00  0.00    -0.352 OA
HETATM   14  N3  UNL     1      41.441  -3.101  68.019  1.00  0.00    -0.236 NA
HETATM   15  C10 UNL     1      41.664  -3.237  69.284  1.00  0.00     0.130 C 
HETATM   16  C11 UNL     1      41.113  -3.099  70.682  1.00  0.00     0.354 C 
HETATM   17  N4  UNL     1      42.253  -2.590  71.429  1.00  0.00     0.132 N 
HETATM   18  C12 UNL     1      42.503  -1.180  71.081  1.00  0.00     0.425 C 
HETATM   19  N5  UNL     1      41.295  -0.453  70.965  1.00  0.00    -0.243 NA
HETATM   20  C13 UNL     1      40.815   0.073  69.892  1.00  0.00     0.137 C 
HETATM   21  C14 UNL     1      41.290   0.125  68.469  1.00  0.00     0.202 C 
HETATM   22  C16 UNL     1      43.357  -3.421  70.972  1.00  0.00     0.399 C 
HETATM   23  N6  UNL     1      42.987  -3.731  69.583  1.00  0.00    -0.352 N 
HETATM   24  H20 UNL     1      43.790  -4.253  69.121  1.00  0.00     0.162 HD
ENDROOT
BRANCH  21  25
HETATM   25  O3  UNL     1      41.836   1.375  68.168  1.00  0.00    -0.382 OA
HETATM   26  C15 UNL     1      43.159   1.499  68.529  1.00  0.00     0.202 C 
ENDBRANCH  21  25
TORSDOF 1
ENDMDL
