MODEL 1
REMARK VINA RESULT:      -8.5      0.000      0.000
REMARK  6 active torsions:
REMARK  status: ('A' for Active; 'I' for Inactive)
REMARK    1  A    between atoms: C6_8  and  N3_9 
REMARK    2  A    between atoms: C14_19  and  O1_20 
REMARK    3  A    between atoms: O1_20  and  C15_21 
REMARK    4  A    between atoms: C15_21  and  C16_22 
REMARK    5  A    between atoms: C16_22  and  C17_23 
REMARK    6  A    between atoms: C17_23  and  N4_24 
ROOT
HETATM    1  C1  UNL     1      19.907   0.628  51.041  1.00  0.00     0.051 C 
HETATM    2  C2  UNL     1      21.111   0.407  51.840  1.00  0.00    -0.026 A 
HETATM    3  C3  UNL     1      20.967  -0.382  52.962  1.00  0.00     0.042 A 
HETATM    4  C4  UNL     1      22.059  -0.632  53.763  1.00  0.00     0.072 A 
HETATM    5  N1  UNL     1      22.032  -1.399  54.885  1.00  0.00    -0.241 NA
HETATM    6  C5  UNL     1      23.188  -1.572  55.585  1.00  0.00     0.236 A 
HETATM    7  N2  UNL     1      24.365  -1.020  55.222  1.00  0.00    -0.223 NA
HETATM    8  C6  UNL     1      24.412  -0.256  54.111  1.00  0.00     0.144 A 
HETATM    9  C12 UNL     1      23.264  -0.073  53.398  1.00  0.00     0.042 A 
HETATM   10  C13 UNL     1      23.410   0.714  52.278  1.00  0.00     0.055 A 
HETATM   11  C14 UNL     1      22.312   0.969  51.469  1.00  0.00     0.075 A 
ENDROOT
BRANCH  11  12
HETATM   12  O1  UNL     1      22.485   1.774  50.335  1.00  0.00    -0.351 OA
BRANCH  12  13
HETATM   13  C15 UNL     1      22.100   3.110  50.313  1.00  0.00     0.177 C 
BRANCH  13  14
HETATM   14  C16 UNL     1      23.023   3.943  51.155  1.00  0.00     0.057 C 
BRANCH  14  15
HETATM   15  C17 UNL     1      23.506   5.173  50.437  1.00  0.00     0.274 C 
BRANCH  15  16
HETATM   16  N4  UNL     1      24.958   5.106  50.322  1.00  0.00     0.092 N 
HETATM   17  C18 UNL     1      25.349   5.294  48.918  1.00  0.00     0.298 C 
HETATM   18  C19 UNL     1      26.863   5.252  48.921  1.00  0.00     0.198 C 
HETATM   19  O2  UNL     1      27.269   3.975  49.181  1.00  0.00    -0.388 OA
HETATM   20  C20 UNL     1      26.382   3.146  49.800  1.00  0.00     0.198 C 
HETATM   21  C21 UNL     1      25.430   3.792  50.767  1.00  0.00     0.298 C 
ENDBRANCH  15  16
ENDBRANCH  14  15
ENDBRANCH  13  14
ENDBRANCH  12  13
ENDBRANCH  11  12
BRANCH   8  22
HETATM   22  N3  UNL     1      25.726   0.259  53.913  1.00  0.00    -0.336 N 
HETATM   23  C7  UNL     1      26.614  -0.849  53.643  1.00  0.00     0.120 A 
HETATM   24  C8  UNL     1      27.919  -0.767  53.409  1.00  0.00     0.087 A 
HETATM   25 CL1  UNL     1      29.003  -2.088  53.083  1.00  0.00    -0.080 Cl
HETATM   26  C9  UNL     1      28.553   0.567  53.416  1.00  0.00     0.137 A 
HETATM   27  F1  UNL     1      29.855   0.869  53.204  1.00  0.00    -0.205 F 
HETATM   28  C10 UNL     1      27.698   1.544  53.667  1.00  0.00     0.037 A 
HETATM   29  C11 UNL     1      26.242   1.613  53.942  1.00  0.00     0.160 A 
ENDBRANCH   8  22
TORSDOF 6
ENDMDL
MODEL 2
REMARK VINA RESULT:      -8.4      3.195      5.691
REMARK  6 active torsions:
REMARK  status: ('A' for Active; 'I' for Inactive)
REMARK    1  A    between atoms: C6_8  and  N3_9 
REMARK    2  A    between atoms: C14_19  and  O1_20 
REMARK    3  A    between atoms: O1_20  and  C15_21 
REMARK    4  A    between atoms: C15_21  and  C16_22 
REMARK    5  A    between atoms: C16_22  and  C17_23 
REMARK    6  A    between atoms: C17_23  and  N4_24 
ROOT
HETATM    1  C1  UNL     1      21.204  -1.163  54.455  1.00  0.00     0.051 C 
HETATM    2  C2  UNL     1      21.512  -0.001  53.623  1.00  0.00    -0.026 A 
HETATM    3  C3  UNL     1      20.494   0.911  53.440  1.00  0.00     0.042 A 
HETATM    4  C4  UNL     1      20.713   2.030  52.667  1.00  0.00     0.072 A 
HETATM    5  N1  UNL     1      19.786   2.993  52.426  1.00  0.00    -0.241 NA
HETATM    6  C5  UNL     1      20.135   4.055  51.648  1.00  0.00     0.236 A 
HETATM    7  N2  UNL     1      21.359   4.203  51.099  1.00  0.00    -0.223 NA
HETATM    8  C6  UNL     1      22.294   3.256  51.327  1.00  0.00     0.144 A 
HETATM    9  C12 UNL     1      21.961   2.187  52.106  1.00  0.00     0.042 A 
HETATM   10  C13 UNL     1      22.979   1.278  52.288  1.00  0.00     0.055 A 
HETATM   11  C14 UNL     1      22.761   0.149  53.065  1.00  0.00     0.075 A 
ENDROOT
BRANCH  11  12
HETATM   12  O1  UNL     1      23.813  -0.762  53.236  1.00  0.00    -0.351 OA
BRANCH  12  13
HETATM   13  C15 UNL     1      24.873  -0.509  54.101  1.00  0.00     0.177 C 
BRANCH  13  14
HETATM   14  C16 UNL     1      26.139  -1.131  53.585  1.00  0.00     0.057 C 
BRANCH  14  15
HETATM   15  C17 UNL     1      26.606  -0.505  52.300  1.00  0.00     0.274 C 
BRANCH  15  16
HETATM   16  N4  UNL     1      27.754   0.347  52.586  1.00  0.00     0.092 N 
HETATM   17  C18 UNL     1      28.300   0.007  53.908  1.00  0.00     0.298 C 
HETATM   18  C19 UNL     1      29.503   0.910  54.082  1.00  0.00     0.198 C 
HETATM   19  O2  UNL     1      29.071   2.194  54.253  1.00  0.00    -0.388 OA
HETATM   20  C20 UNL     1      27.819   2.500  53.810  1.00  0.00     0.198 C 
HETATM   21  C21 UNL     1      27.339   1.751  52.599  1.00  0.00     0.298 C 
ENDBRANCH  15  16
ENDBRANCH  14  15
ENDBRANCH  13  14
ENDBRANCH  12  13
ENDBRANCH  11  12
BRANCH   8  22
HETATM   22  N3  UNL     1      23.503   3.572  50.643  1.00  0.00    -0.336 N 
HETATM   23  C7  UNL     1      23.816   4.962  50.887  1.00  0.00     0.120 A 
HETATM   24  C8  UNL     1      24.866   5.623  50.413  1.00  0.00     0.087 A 
HETATM   25 CL1  UNL     1      25.259   7.294  50.696  1.00  0.00    -0.080 Cl
HETATM   26  C9  UNL     1      25.826   4.898  49.555  1.00  0.00     0.137 A 
HETATM   27  F1  UNL     1      26.950   5.380  48.976  1.00  0.00    -0.205 F 
HETATM   28  C10 UNL     1      25.494   3.633  49.365  1.00  0.00     0.037 A 
HETATM   29  C11 UNL     1      24.378   2.765  49.815  1.00  0.00     0.160 A 
ENDBRANCH   8  22
TORSDOF 6
ENDMDL
MODEL 3
REMARK VINA RESULT:      -8.2      2.313      3.666
REMARK  6 active torsions:
REMARK  status: ('A' for Active; 'I' for Inactive)
REMARK    1  A    between atoms: C6_8  and  N3_9 
REMARK    2  A    between atoms: C14_19  and  O1_20 
REMARK    3  A    between atoms: O1_20  and  C15_21 
REMARK    4  A    between atoms: C15_21  and  C16_22 
REMARK    5  A    between atoms: C16_22  and  C17_23 
REMARK    6  A    between atoms: C17_23  and  N4_24 
ROOT
HETATM    1  C1  UNL     1      22.937   4.412  49.512  1.00  0.00     0.051 C 
HETATM    2  C2  UNL     1      23.600   3.441  50.381  1.00  0.00    -0.026 A 
HETATM    3  C3  UNL     1      22.785   2.520  51.006  1.00  0.00     0.042 A 
HETATM    4  C4  UNL     1      23.341   1.576  51.841  1.00  0.00     0.072 A 
HETATM    5  N1  UNL     1      22.635   0.619  52.500  1.00  0.00    -0.241 NA
HETATM    6  C5  UNL     1      23.309  -0.261  53.291  1.00  0.00     0.236 A 
HETATM    7  N2  UNL     1      24.648  -0.234  53.457  1.00  0.00    -0.223 NA
HETATM    8  C6  UNL     1      25.367   0.708  52.811  1.00  0.00     0.144 A 
HETATM    9  C12 UNL     1      24.707   1.596  52.013  1.00  0.00     0.042 A 
HETATM   10  C13 UNL     1      25.521   2.514  51.390  1.00  0.00     0.055 A 
HETATM   11  C14 UNL     1      24.966   3.468  50.550  1.00  0.00     0.075 A 
ENDROOT
BRANCH  11  12
HETATM   12  O1  UNL     1      25.816   4.393  49.927  1.00  0.00    -0.351 OA
BRANCH  12  13
HETATM   13  C15 UNL     1      26.946   3.994  49.220  1.00  0.00     0.177 C 
BRANCH  13  14
HETATM   14  C16 UNL     1      27.605   5.173  48.565  1.00  0.00     0.057 C 
BRANCH  14  15
HETATM   15  C17 UNL     1      26.809   6.440  48.721  1.00  0.00     0.274 C 
BRANCH  15  16
HETATM   16  N4  UNL     1      27.625   7.562  48.273  1.00  0.00     0.092 N 
HETATM   17  C18 UNL     1      29.046   7.191  48.337  1.00  0.00     0.298 C 
HETATM   18  C19 UNL     1      29.793   8.400  47.812  1.00  0.00     0.198 C 
HETATM   19  O2  UNL     1      29.700   9.409  48.726  1.00  0.00    -0.388 OA
HETATM   20  C20 UNL     1      28.678   9.350  49.626  1.00  0.00     0.198 C 
HETATM   21  C21 UNL     1      27.403   8.717  49.146  1.00  0.00     0.298 C 
ENDBRANCH  15  16
ENDBRANCH  14  15
ENDBRANCH  13  14
ENDBRANCH  12  13
ENDBRANCH  11  12
BRANCH   8  22
HETATM   22  N3  UNL     1      26.750   0.593  53.135  1.00  0.00    -0.336 N 
HETATM   23  C7  UNL     1      27.137  -0.793  52.997  1.00  0.00     0.120 A 
HETATM   24  C8  UNL     1      28.348  -1.292  53.217  1.00  0.00     0.087 A 
HETATM   25 CL1  UNL     1      28.832  -2.955  53.057  1.00  0.00    -0.080 Cl
HETATM   26  C9  UNL     1      29.423  -0.372  53.641  1.00  0.00     0.137 A 
HETATM   27  F1  UNL     1      30.714  -0.673  53.914  1.00  0.00    -0.205 F 
HETATM   28  C10 UNL     1      29.017   0.881  53.750  1.00  0.00     0.037 A 
HETATM   29  C11 UNL     1      27.726   1.583  53.545  1.00  0.00     0.160 A 
ENDBRANCH   8  22
TORSDOF 6
ENDMDL
MODEL 4
REMARK VINA RESULT:      -8.2      1.705      2.246
REMARK  6 active torsions:
REMARK  status: ('A' for Active; 'I' for Inactive)
REMARK    1  A    between atoms: C6_8  and  N3_9 
REMARK    2  A    between atoms: C14_19  and  O1_20 
REMARK    3  A    between atoms: O1_20  and  C15_21 
REMARK    4  A    between atoms: C15_21  and  C16_22 
REMARK    5  A    between atoms: C16_22  and  C17_23 
REMARK    6  A    between atoms: C17_23  and  N4_24 
ROOT
HETATM    1  C1  UNL     1      18.545  -0.027  51.568  1.00  0.00     0.051 C 
HETATM    2  C2  UNL     1      19.896  -0.072  52.123  1.00  0.00    -0.026 A 
HETATM    3  C3  UNL     1      20.062  -0.811  53.275  1.00  0.00     0.042 A 
HETATM    4  C4  UNL     1      21.309  -0.897  53.855  1.00  0.00     0.072 A 
HETATM    5  N1  UNL     1      21.586  -1.602  54.983  1.00  0.00    -0.241 NA
HETATM    6  C5  UNL     1      22.867  -1.610  55.449  1.00  0.00     0.236 A 
HETATM    7  N2  UNL     1      23.879  -0.952  54.847  1.00  0.00    -0.223 NA
HETATM    8  C6  UNL     1      23.624  -0.247  53.726  1.00  0.00     0.144 A 
HETATM    9  C12 UNL     1      22.347  -0.229  53.245  1.00  0.00     0.042 A 
HETATM   10  C13 UNL     1      22.183   0.509  52.095  1.00  0.00     0.055 A 
HETATM   11  C14 UNL     1      20.929   0.599  51.508  1.00  0.00     0.075 A 
ENDROOT
BRANCH  11  12
HETATM   12  O1  UNL     1      20.788   1.357  50.338  1.00  0.00    -0.351 OA
BRANCH  12  13
HETATM   13  C15 UNL     1      21.372   0.971  49.136  1.00  0.00     0.177 C 
BRANCH  13  14
HETATM   14  C16 UNL     1      22.264   2.057  48.607  1.00  0.00     0.057 C 
BRANCH  14  15
HETATM   15  C17 UNL     1      21.609   3.410  48.642  1.00  0.00     0.274 C 
BRANCH  15  16
HETATM   16  N4  UNL     1      22.422   4.302  49.461  1.00  0.00     0.092 N 
HETATM   17  C18 UNL     1      23.713   3.660  49.751  1.00  0.00     0.298 C 
HETATM   18  C19 UNL     1      24.487   4.680  50.559  1.00  0.00     0.198 C 
HETATM   19  O2  UNL     1      23.917   4.791  51.795  1.00  0.00    -0.388 OA
HETATM   20  C20 UNL     1      22.622   4.387  51.929  1.00  0.00     0.198 C 
HETATM   21  C21 UNL     1      21.739   4.573  50.727  1.00  0.00     0.298 C 
ENDBRANCH  15  16
ENDBRANCH  14  15
ENDBRANCH  13  14
ENDBRANCH  12  13
ENDBRANCH  11  12
BRANCH   8  22
HETATM   22  N3  UNL     1      24.806   0.399  53.260  1.00  0.00    -0.336 N 
HETATM   23  C7  UNL     1      25.887   0.077  54.163  1.00  0.00     0.120 A 
HETATM   24  C8  UNL     1      27.143   0.497  54.060  1.00  0.00     0.087 A 
HETATM   25 CL1  UNL     1      28.457   0.121  55.137  1.00  0.00    -0.080 Cl
HETATM   26  C9  UNL     1      27.503   1.373  52.928  1.00  0.00     0.137 A 
HETATM   27  F1  UNL     1      28.713   1.907  52.641  1.00  0.00    -0.205 F 
HETATM   28  C10 UNL     1      26.479   1.635  52.133  1.00  0.00     0.037 A 
HETATM   29  C11 UNL     1      25.047   1.251  52.112  1.00  0.00     0.160 A 
ENDBRANCH   8  22
TORSDOF 6
ENDMDL
MODEL 5
REMARK VINA RESULT:      -8.1      3.572      5.570
REMARK  6 active torsions:
REMARK  status: ('A' for Active; 'I' for Inactive)
REMARK    1  A    between atoms: C6_8  and  N3_9 
REMARK    2  A    between atoms: C14_19  and  O1_20 
REMARK    3  A    between atoms: O1_20  and  C15_21 
REMARK    4  A    between atoms: C15_21  and  C16_22 
REMARK    5  A    between atoms: C16_22  and  C17_23 
REMARK    6  A    between atoms: C17_23  and  N4_24 
ROOT
HETATM    1  C1  UNL     1      23.398  -1.427  55.698  1.00  0.00     0.051 C 
HETATM    2  C2  UNL     1      22.665  -0.884  54.556  1.00  0.00    -0.026 A 
HETATM    3  C3  UNL     1      21.309  -1.131  54.522  1.00  0.00     0.042 A 
HETATM    4  C4  UNL     1      20.556  -0.649  53.474  1.00  0.00     0.072 A 
HETATM    5  N1  UNL     1      19.215  -0.826  53.345  1.00  0.00    -0.241 NA
HETATM    6  C5  UNL     1      18.587  -0.290  52.261  1.00  0.00     0.236 A 
HETATM    7  N2  UNL     1      19.229   0.411  51.303  1.00  0.00    -0.223 NA
HETATM    8  C6  UNL     1      20.561   0.598  51.414  1.00  0.00     0.144 A 
HETATM    9  C12 UNL     1      21.205   0.069  52.495  1.00  0.00     0.042 A 
HETATM   10  C13 UNL     1      22.558   0.317  52.527  1.00  0.00     0.055 A 
HETATM   11  C14 UNL     1      23.321  -0.168  53.580  1.00  0.00     0.075 A 
ENDROOT
BRANCH  11  12
HETATM   12  O1  UNL     1      24.698   0.098  53.590  1.00  0.00    -0.351 OA
BRANCH  12  13
HETATM   13  C15 UNL     1      25.578  -0.546  52.727  1.00  0.00     0.177 C 
BRANCH  13  14
HETATM   14  C16 UNL     1      26.539   0.434  52.121  1.00  0.00     0.057 C 
BRANCH  14  15
HETATM   15  C17 UNL     1      26.190   1.861  52.447  1.00  0.00     0.274 C 
BRANCH  15  16
HETATM   16  N4  UNL     1      25.501   2.446  51.303  1.00  0.00     0.092 N 
HETATM   17  C18 UNL     1      26.456   3.224  50.500  1.00  0.00     0.298 C 
HETATM   18  C19 UNL     1      25.653   3.743  49.326  1.00  0.00     0.198 C 
HETATM   19  O2  UNL     1      24.782   4.695  49.772  1.00  0.00    -0.388 OA
HETATM   20  C20 UNL     1      24.465   4.687  51.097  1.00  0.00     0.198 C 
HETATM   21  C21 UNL     1      24.441   3.343  51.767  1.00  0.00     0.298 C 
ENDBRANCH  15  16
ENDBRANCH  14  15
ENDBRANCH  13  14
ENDBRANCH  12  13
ENDBRANCH  11  12
BRANCH   8  22
HETATM   22  N3  UNL     1      21.059   1.331  50.298  1.00  0.00    -0.336 N 
HETATM   23  C7  UNL     1      20.883   2.741  50.564  1.00  0.00     0.120 A 
HETATM   24  C8  UNL     1      21.224   3.738  49.754  1.00  0.00     0.087 A 
HETATM   25 CL1  UNL     1      21.021   5.439  50.055  1.00  0.00    -0.080 Cl
HETATM   26  C9  UNL     1      21.844   3.409  48.455  1.00  0.00     0.137 A 
HETATM   27  F1  UNL     1      22.261   4.265  47.493  1.00  0.00    -0.205 F 
HETATM   28  C10 UNL     1      21.983   2.108  48.263  1.00  0.00     0.037 A 
HETATM   29  C11 UNL     1      21.659   0.895  49.053  1.00  0.00     0.160 A 
ENDBRANCH   8  22
TORSDOF 6
ENDMDL
MODEL 6
REMARK VINA RESULT:      -8.0      3.223      5.455
REMARK  6 active torsions:
REMARK  status: ('A' for Active; 'I' for Inactive)
REMARK    1  A    between atoms: C6_8  and  N3_9 
REMARK    2  A    between atoms: C14_19  and  O1_20 
REMARK    3  A    between atoms: O1_20  and  C15_21 
REMARK    4  A    between atoms: C15_21  and  C16_22 
REMARK    5  A    between atoms: C16_22  and  C17_23 
REMARK    6  A    between atoms: C17_23  and  N4_24 
ROOT
HETATM    1  C1  UNL     1      28.949   1.525  53.465  1.00  0.00     0.051 C 
HETATM    2  C2  UNL     1      27.545   1.119  53.457  1.00  0.00    -0.026 A 
HETATM    3  C3  UNL     1      27.144   0.274  54.470  1.00  0.00     0.042 A 
HETATM    4  C4  UNL     1      25.835  -0.151  54.525  1.00  0.00     0.072 A 
HETATM    5  N1  UNL     1      25.332  -0.975  55.481  1.00  0.00    -0.241 NA
HETATM    6  C5  UNL     1      24.014  -1.313  55.423  1.00  0.00     0.236 A 
HETATM    7  N2  UNL     1      23.176  -0.872  54.462  1.00  0.00    -0.223 NA
HETATM    8  C6  UNL     1      23.657  -0.052  53.504  1.00  0.00     0.144 A 
HETATM    9  C12 UNL     1      24.974   0.298  53.548  1.00  0.00     0.042 A 
HETATM   10  C13 UNL     1      25.372   1.141  52.536  1.00  0.00     0.055 A 
HETATM   11  C14 UNL     1      26.690   1.570  52.476  1.00  0.00     0.075 A 
ENDROOT
BRANCH  11  12
HETATM   12  O1  UNL     1      27.071   2.429  51.436  1.00  0.00    -0.351 OA
BRANCH  12  13
HETATM   13  C15 UNL     1      26.136   3.114  50.667  1.00  0.00     0.177 C 
BRANCH  13  14
HETATM   14  C16 UNL     1      26.815   3.901  49.583  1.00  0.00     0.057 C 
BRANCH  14  15
HETATM   15  C17 UNL     1      26.101   5.188  49.272  1.00  0.00     0.274 C 
BRANCH  15  16
HETATM   16  N4  UNL     1      24.855   5.225  50.029  1.00  0.00     0.092 N 
HETATM   17  C18 UNL     1      23.716   5.107  49.107  1.00  0.00     0.298 C 
HETATM   18  C19 UNL     1      22.489   5.111  49.994  1.00  0.00     0.198 C 
HETATM   19  O2  UNL     1      22.327   6.360  50.520  1.00  0.00    -0.388 OA
HETATM   20  C20 UNL     1      23.419   7.175  50.556  1.00  0.00     0.198 C 
HETATM   21  C21 UNL     1      24.748   6.499  50.745  1.00  0.00     0.298 C 
ENDBRANCH  15  16
ENDBRANCH  14  15
ENDBRANCH  13  14
ENDBRANCH  12  13
ENDBRANCH  11  12
BRANCH   8  22
HETATM   22  N3  UNL     1      22.634   0.278  52.568  1.00  0.00    -0.336 N 
HETATM   23  C7  UNL     1      21.384  -0.268  53.048  1.00  0.00     0.120 A 
HETATM   24  C8  UNL     1      20.205  -0.168  52.444  1.00  0.00     0.087 A 
HETATM   25 CL1  UNL     1      18.691  -0.818  53.005  1.00  0.00    -0.080 Cl
HETATM   26  C9  UNL     1      20.127   0.564  51.164  1.00  0.00     0.137 A 
HETATM   27  F1  UNL     1      19.035   0.779  50.395  1.00  0.00    -0.205 F 
HETATM   28  C10 UNL     1      21.296   1.043  50.772  1.00  0.00     0.037 A 
HETATM   29  C11 UNL     1      22.673   1.018  51.322  1.00  0.00     0.160 A 
ENDBRANCH   8  22
TORSDOF 6
ENDMDL
MODEL 7
REMARK VINA RESULT:      -8.0      3.840      6.041
REMARK  6 active torsions:
REMARK  status: ('A' for Active; 'I' for Inactive)
REMARK    1  A    between atoms: C6_8  and  N3_9 
REMARK    2  A    between atoms: C14_19  and  O1_20 
REMARK    3  A    between atoms: O1_20  and  C15_21 
REMARK    4  A    between atoms: C15_21  and  C16_22 
REMARK    5  A    between atoms: C16_22  and  C17_23 
REMARK    6  A    between atoms: C17_23  and  N4_24 
ROOT
HETATM    1  C1  UNL     1      26.888   0.344  52.423  1.00  0.00     0.051 C 
HETATM    2  C2  UNL     1      25.440   0.420  52.613  1.00  0.00    -0.026 A 
HETATM    3  C3  UNL     1      24.895  -0.452  53.532  1.00  0.00     0.042 A 
HETATM    4  C4  UNL     1      23.537  -0.436  53.762  1.00  0.00     0.072 A 
HETATM    5  N1  UNL     1      22.898  -1.244  54.648  1.00  0.00    -0.241 NA
HETATM    6  C5  UNL     1      21.548  -1.122  54.786  1.00  0.00     0.236 A 
HETATM    7  N2  UNL     1      20.808  -0.237  54.085  1.00  0.00    -0.223 NA
HETATM    8  C6  UNL     1      21.425   0.574  53.201  1.00  0.00     0.144 A 
HETATM    9  C12 UNL     1      22.777   0.466  53.052  1.00  0.00     0.042 A 
HETATM   10  C13 UNL     1      23.319   1.337  52.135  1.00  0.00     0.055 A 
HETATM   11  C14 UNL     1      24.686   1.324  51.899  1.00  0.00     0.075 A 
ENDROOT
BRANCH  11  12
HETATM   12  O1  UNL     1      25.215   2.220  50.960  1.00  0.00    -0.351 OA
BRANCH  12  13
HETATM   13  C15 UNL     1      24.764   3.532  50.860  1.00  0.00     0.177 C 
BRANCH  13  14
HETATM   14  C16 UNL     1      24.939   4.048  49.461  1.00  0.00     0.057 C 
BRANCH  14  15
HETATM   15  C17 UNL     1      23.653   4.560  48.870  1.00  0.00     0.274 C 
BRANCH  15  16
HETATM   16  N4  UNL     1      22.600   3.587  49.132  1.00  0.00     0.092 N 
HETATM   17  C18 UNL     1      22.749   2.444  48.220  1.00  0.00     0.298 C 
HETATM   18  C19 UNL     1      21.644   1.484  48.607  1.00  0.00     0.198 C 
HETATM   19  O2  UNL     1      20.444   2.017  48.231  1.00  0.00    -0.388 OA
HETATM   20  C20 UNL     1      20.388   3.365  48.038  1.00  0.00     0.198 C 
HETATM   21  C21 UNL     1      21.290   4.200  48.902  1.00  0.00     0.298 C 
ENDBRANCH  15  16
ENDBRANCH  14  15
ENDBRANCH  13  14
ENDBRANCH  12  13
ENDBRANCH  11  12
BRANCH   8  22
HETATM   22  N3  UNL     1      20.477   1.410  52.542  1.00  0.00    -0.336 N 
HETATM   23  C7  UNL     1      19.579   0.570  51.782  1.00  0.00     0.120 A 
HETATM   24  C8  UNL     1      18.564   0.987  51.034  1.00  0.00     0.087 A 
HETATM   25 CL1  UNL     1      17.473  -0.008  50.113  1.00  0.00    -0.080 Cl
HETATM   26  C9  UNL     1      18.300   2.437  50.950  1.00  0.00     0.137 A 
HETATM   27  F1  UNL     1      17.326   3.065  50.250  1.00  0.00    -0.205 F 
HETATM   28  C10 UNL     1      19.148   3.159  51.663  1.00  0.00     0.037 A 
HETATM   29  C11 UNL     1      20.309   2.850  52.533  1.00  0.00     0.160 A 
ENDBRANCH   8  22
TORSDOF 6
ENDMDL
MODEL 8
REMARK VINA RESULT:      -8.0      3.990      6.377
REMARK  6 active torsions:
REMARK  status: ('A' for Active; 'I' for Inactive)
REMARK    1  A    between atoms: C6_8  and  N3_9 
REMARK    2  A    between atoms: C14_19  and  O1_20 
REMARK    3  A    between atoms: O1_20  and  C15_21 
REMARK    4  A    between atoms: C15_21  and  C16_22 
REMARK    5  A    between atoms: C16_22  and  C17_23 
REMARK    6  A    between atoms: C17_23  and  N4_24 
ROOT
HETATM    1  C1  UNL     1      22.318  -1.552  55.235  1.00  0.00     0.051 C 
HETATM    2  C2  UNL     1      21.779  -0.903  54.042  1.00  0.00    -0.026 A 
HETATM    3  C3  UNL     1      20.417  -1.005  53.849  1.00  0.00     0.042 A 
HETATM    4  C4  UNL     1      19.840  -0.419  52.744  1.00  0.00     0.072 A 
HETATM    5  N1  UNL     1      18.511  -0.451  52.461  1.00  0.00    -0.241 NA
HETATM    6  C5  UNL     1      18.068   0.178  51.337  1.00  0.00     0.236 A 
HETATM    7  N2  UNL     1      18.883   0.834  50.484  1.00  0.00    -0.223 NA
HETATM    8  C6  UNL     1      20.205   0.877  50.748  1.00  0.00     0.144 A 
HETATM    9  C12 UNL     1      20.665   0.254  51.871  1.00  0.00     0.042 A 
HETATM   10  C13 UNL     1      22.024   0.357  52.062  1.00  0.00     0.055 A 
HETATM   11  C14 UNL     1      22.610  -0.233  53.172  1.00  0.00     0.075 A 
ENDROOT
BRANCH  11  12
HETATM   12  O1  UNL     1      23.996  -0.115  53.344  1.00  0.00    -0.351 OA
BRANCH  12  13
HETATM   13  C15 UNL     1      24.683   1.047  53.007  1.00  0.00     0.177 C 
BRANCH  13  14
HETATM   14  C16 UNL     1      25.745   0.757  51.986  1.00  0.00     0.057 C 
BRANCH  14  15
HETATM   15  C17 UNL     1      26.929   1.678  52.109  1.00  0.00     0.274 C 
BRANCH  15  16
HETATM   16  N4  UNL     1      28.060   0.916  52.627  1.00  0.00     0.092 N 
HETATM   17  C18 UNL     1      27.661  -0.486  52.819  1.00  0.00     0.298 C 
HETATM   18  C19 UNL     1      28.910  -1.186  53.311  1.00  0.00     0.198 C 
HETATM   19  O2  UNL     1      29.179  -0.770  54.583  1.00  0.00    -0.388 OA
HETATM   20  C20 UNL     1      28.641   0.417  54.983  1.00  0.00     0.198 C 
HETATM   21  C21 UNL     1      28.476   1.465  53.920  1.00  0.00     0.298 C 
ENDBRANCH  15  16
ENDBRANCH  14  15
ENDBRANCH  13  14
ENDBRANCH  12  13
ENDBRANCH  11  12
BRANCH   8  22
HETATM   22  N3  UNL     1      20.898   1.584  49.723  1.00  0.00    -0.336 N 
HETATM   23  C7  UNL     1      20.787   3.000  49.990  1.00  0.00     0.120 A 
HETATM   24  C8  UNL     1      21.302   3.978  49.253  1.00  0.00     0.087 A 
HETATM   25 CL1  UNL     1      21.179   5.686  49.559  1.00  0.00    -0.080 Cl
HETATM   26  C9  UNL     1      22.067   3.620  48.042  1.00  0.00     0.137 A 
HETATM   27  F1  UNL     1      22.667   4.453  47.162  1.00  0.00    -0.205 F 
HETATM   28  C10 UNL     1      22.139   2.314  47.844  1.00  0.00     0.037 A 
HETATM   29  C11 UNL     1      21.629   1.119  48.560  1.00  0.00     0.160 A 
ENDBRANCH   8  22
TORSDOF 6
ENDMDL
MODEL 9
REMARK VINA RESULT:      -7.9      2.027      2.770
REMARK  6 active torsions:
REMARK  status: ('A' for Active; 'I' for Inactive)
REMARK    1  A    between atoms: C6_8  and  N3_9 
REMARK    2  A    between atoms: C14_19  and  O1_20 
REMARK    3  A    between atoms: O1_20  and  C15_21 
REMARK    4  A    between atoms: C15_21  and  C16_22 
REMARK    5  A    between atoms: C16_22  and  C17_23 
REMARK    6  A    between atoms: C17_23  and  N4_24 
ROOT
HETATM    1  C1  UNL     1      21.964   2.810  50.825  1.00  0.00     0.051 C 
HETATM    2  C2  UNL     1      22.866   1.950  51.589  1.00  0.00    -0.026 A 
HETATM    3  C3  UNL     1      22.302   1.235  52.625  1.00  0.00     0.042 A 
HETATM    4  C4  UNL     1      23.093   0.405  53.388  1.00  0.00     0.072 A 
HETATM    5  N1  UNL     1      22.642  -0.350  54.425  1.00  0.00    -0.241 NA
HETATM    6  C5  UNL     1      23.530  -1.136  55.095  1.00  0.00     0.236 A 
HETATM    7  N2  UNL     1      24.841  -1.205  54.784  1.00  0.00    -0.223 NA
HETATM    8  C6  UNL     1      25.308  -0.464  53.758  1.00  0.00     0.144 A 
HETATM    9  C12 UNL     1      24.432   0.327  53.075  1.00  0.00     0.042 A 
HETATM   10  C13 UNL     1      24.996   1.040  52.042  1.00  0.00     0.055 A 
HETATM   11  C14 UNL     1      24.204   1.879  51.271  1.00  0.00     0.075 A 
ENDROOT
BRANCH  11  12
HETATM   12  O1  UNL     1      24.802   2.595  50.225  1.00  0.00    -0.351 OA
BRANCH  12  13
HETATM   13  C15 UNL     1      25.690   3.639  50.460  1.00  0.00     0.177 C 
BRANCH  13  14
HETATM   14  C16 UNL     1      25.492   4.740  49.460  1.00  0.00     0.057 C 
BRANCH  14  15
HETATM   15  C17 UNL     1      25.385   6.095  50.107  1.00  0.00     0.274 C 
BRANCH  15  16
HETATM   16  N4  UNL     1      25.947   7.089  49.201  1.00  0.00     0.092 N 
HETATM   17  C18 UNL     1      27.166   6.554  48.578  1.00  0.00     0.298 C 
HETATM   18  C19 UNL     1      27.636   7.639  47.633  1.00  0.00     0.198 C 
HETATM   19  O2  UNL     1      28.105   8.691  48.365  1.00  0.00    -0.388 OA
HETATM   20  C20 UNL     1      27.685   8.795  49.658  1.00  0.00     0.198 C 
HETATM   21  C21 UNL     1      26.296   8.300  49.948  1.00  0.00     0.298 C 
ENDBRANCH  15  16
ENDBRANCH  14  15
ENDBRANCH  13  14
ENDBRANCH  12  13
ENDBRANCH  11  12
BRANCH   8  22
HETATM   22  N3  UNL     1      26.713  -0.649  53.605  1.00  0.00    -0.336 N 
HETATM   23  C7  UNL     1      27.387   0.507  54.155  1.00  0.00     0.120 A 
HETATM   24  C8  UNL     1      28.700   0.701  54.193  1.00  0.00     0.087 A 
HETATM   25 CL1  UNL     1      29.529   2.083  54.848  1.00  0.00    -0.080 Cl
HETATM   26  C9  UNL     1      29.583  -0.342  53.632  1.00  0.00     0.137 A 
HETATM   27  F1  UNL     1      30.935  -0.341  53.572  1.00  0.00    -0.205 F 
HETATM   28  C10 UNL     1      28.918  -1.375  53.145  1.00  0.00     0.037 A 
HETATM   29  C11 UNL     1      27.483  -1.734  53.031  1.00  0.00     0.160 A 
ENDBRANCH   8  22
TORSDOF 6
ENDMDL
