MODEL 1
REMARK VINA RESULT:      -6.6      0.000      0.000
REMARK  8 active torsions:
REMARK  status: ('A' for Active; 'I' for Inactive)
REMARK    1  A    between atoms: C2_2  and  C3_3 
REMARK    2  A    between atoms: C2_2  and  C6_7 
REMARK    3  A    between atoms: C3_3  and  N1_4 
REMARK    4  A    between atoms: C6_7  and  C7_9 
REMARK    5  A    between atoms: C7_9  and  O2_19 
REMARK    6  A    between atoms: C8_10  and  C9_11 
REMARK    7  A    between atoms: C9_11  and  C10_12 
REMARK    8  A    between atoms: C10_12  and  C11_13 
ROOT
HETATM    1  C7  UNL     1      25.916   2.543  51.542  1.00  0.00     0.114 C 
HETATM    2  C8  UNL     1      24.665   2.787  51.186  1.00  0.00     0.014 C 
ENDROOT
BRANCH   1   3
HETATM    3  C6  UNL     1      26.158   1.838  52.791  1.00  0.00     0.208 C 
HETATM    4  O1  UNL     1      25.738   2.425  53.827  1.00  0.00    -0.285 OA
BRANCH   3   5
HETATM    5  C2  UNL     1      26.826   0.553  52.923  1.00  0.00    -0.009 C 
HETATM    6  C1  UNL     1      26.596  -0.277  51.930  1.00  0.00     0.044 C 
BRANCH   5   7
HETATM    7  C3  UNL     1      27.683   0.295  54.107  1.00  0.00     0.154 C 
BRANCH   7   8
HETATM    8  N1  UNL     1      29.043   0.655  53.830  1.00  0.00    -0.417 N 
HETATM    9  C4  UNL     1      29.527   1.807  54.510  1.00  0.00     0.142 C 
HETATM   10  C5  UNL     1      29.922  -0.461  53.757  1.00  0.00     0.142 C 
ENDBRANCH   7   8
ENDBRANCH   5   7
ENDBRANCH   3   5
ENDBRANCH   1   3
BRANCH   1  11
HETATM   11  O2  UNL     1      26.968   2.957  50.736  1.00  0.00    -0.352 OA
HETATM   12  C17 UNL     1      26.576   3.790  49.631  1.00  0.00     0.210 C 
ENDBRANCH   1  11
BRANCH   2  13
HETATM   13  C9  UNL     1      23.233   2.651  51.525  1.00  0.00     0.035 C 
BRANCH  13  14
HETATM   14  C10 UNL     1      22.841   1.201  51.332  1.00  0.00     0.042 C 
BRANCH  14  15
HETATM   15  C11 UNL     1      22.391   0.557  52.606  1.00  0.00    -0.058 A 
HETATM   16  C12 UNL     1      21.165   1.004  53.051  1.00  0.00     0.007 A 
HETATM   17  C13 UNL     1      20.742   0.389  54.239  1.00  0.00     0.001 A 
HETATM   18  C14 UNL     1      21.510  -0.575  54.885  1.00  0.00     0.000 A 
HETATM   19  C15 UNL     1      22.745  -0.962  54.353  1.00  0.00     0.001 A 
HETATM   20  C16 UNL     1      23.213  -0.387  53.179  1.00  0.00     0.007 A 
ENDBRANCH  14  15
ENDBRANCH  13  14
ENDBRANCH   2  13
TORSDOF 8
ENDMDL
MODEL 2
REMARK VINA RESULT:      -6.4      1.939      4.913
REMARK  8 active torsions:
REMARK  status: ('A' for Active; 'I' for Inactive)
REMARK    1  A    between atoms: C2_2  and  C3_3 
REMARK    2  A    between atoms: C2_2  and  C6_7 
REMARK    3  A    between atoms: C3_3  and  N1_4 
REMARK    4  A    between atoms: C6_7  and  C7_9 
REMARK    5  A    between atoms: C7_9  and  O2_19 
REMARK    6  A    between atoms: C8_10  and  C9_11 
REMARK    7  A    between atoms: C9_11  and  C10_12 
REMARK    8  A    between atoms: C10_12  and  C11_13 
ROOT
HETATM    1  C7  UNL     1      24.277  -0.189  53.617  1.00  0.00     0.114 C 
HETATM    2  C8  UNL     1      24.031   0.959  53.007  1.00  0.00     0.014 C 
ENDROOT
BRANCH   1   3
HETATM    3  C6  UNL     1      25.649  -0.500  53.987  1.00  0.00     0.208 C 
HETATM    4  O1  UNL     1      25.865  -0.575  55.229  1.00  0.00    -0.285 OA
BRANCH   3   5
HETATM    5  C2  UNL     1      26.748  -0.719  53.060  1.00  0.00    -0.009 C 
HETATM    6  C1  UNL     1      26.709  -1.880  52.445  1.00  0.00     0.044 C 
BRANCH   5   7
HETATM    7  C3  UNL     1      27.774   0.339  52.883  1.00  0.00     0.154 C 
BRANCH   7   8
HETATM    8  N1  UNL     1      28.803   0.209  53.873  1.00  0.00    -0.417 N 
HETATM    9  C4  UNL     1      29.871  -0.670  53.542  1.00  0.00     0.142 C 
HETATM   10  C5  UNL     1      29.158   1.442  54.488  1.00  0.00     0.142 C 
ENDBRANCH   7   8
ENDBRANCH   5   7
ENDBRANCH   3   5
ENDBRANCH   1   3
BRANCH   1  11
HETATM   11  O2  UNL     1      23.242  -1.072  53.894  1.00  0.00    -0.352 OA
HETATM   12  C17 UNL     1      22.096  -0.465  54.515  1.00  0.00     0.210 C 
ENDBRANCH   1  11
BRANCH   2  13
HETATM   13  C9  UNL     1      24.587   2.217  52.465  1.00  0.00     0.035 C 
BRANCH  13  14
HETATM   14  C10 UNL     1      24.576   2.123  50.955  1.00  0.00     0.042 C 
BRANCH  14  15
HETATM   15  C11 UNL     1      25.199   3.317  50.303  1.00  0.00    -0.058 A 
HETATM   16  C12 UNL     1      24.425   4.456  50.375  1.00  0.00     0.007 A 
HETATM   17  C13 UNL     1      25.018   5.576  49.773  1.00  0.00     0.001 A 
HETATM   18  C14 UNL     1      26.269   5.512  49.167  1.00  0.00     0.000 A 
HETATM   19  C15 UNL     1      26.979   4.306  49.144  1.00  0.00     0.001 A 
HETATM   20  C16 UNL     1      26.440   3.166  49.726  1.00  0.00     0.007 A 
ENDBRANCH  14  15
ENDBRANCH  13  14
ENDBRANCH   2  13
TORSDOF 8
ENDMDL
MODEL 3
REMARK VINA RESULT:      -6.3      2.208      5.168
REMARK  8 active torsions:
REMARK  status: ('A' for Active; 'I' for Inactive)
REMARK    1  A    between atoms: C2_2  and  C3_3 
REMARK    2  A    between atoms: C2_2  and  C6_7 
REMARK    3  A    between atoms: C3_3  and  N1_4 
REMARK    4  A    between atoms: C6_7  and  C7_9 
REMARK    5  A    between atoms: C7_9  and  O2_19 
REMARK    6  A    between atoms: C8_10  and  C9_11 
REMARK    7  A    between atoms: C9_11  and  C10_12 
REMARK    8  A    between atoms: C10_12  and  C11_13 
ROOT
HETATM    1  C7  UNL     1      23.169   2.032  52.602  1.00  0.00     0.114 C 
HETATM    2  C8  UNL     1      23.001   0.733  52.788  1.00  0.00     0.014 C 
ENDROOT
BRANCH   1   3
HETATM    3  C6  UNL     1      24.525   2.558  52.554  1.00  0.00     0.208 C 
HETATM    4  O1  UNL     1      24.976   2.975  53.657  1.00  0.00    -0.285 OA
BRANCH   3   5
HETATM    5  C2  UNL     1      25.362   2.634  51.368  1.00  0.00    -0.009 C 
HETATM    6  C1  UNL     1      26.500   1.982  51.470  1.00  0.00     0.044 C 
BRANCH   5   7
HETATM    7  C3  UNL     1      24.886   3.397  50.188  1.00  0.00     0.154 C 
BRANCH   7   8
HETATM    8  N1  UNL     1      25.442   4.719  50.189  1.00  0.00    -0.417 N 
HETATM    9  C4  UNL     1      26.341   5.011  49.125  1.00  0.00     0.142 C 
HETATM   10  C5  UNL     1      24.500   5.731  50.524  1.00  0.00     0.142 C 
ENDBRANCH   7   8
ENDBRANCH   5   7
ENDBRANCH   3   5
ENDBRANCH   1   3
BRANCH   1  11
HETATM   11  O2  UNL     1      22.070   2.868  52.459  1.00  0.00    -0.352 OA
HETATM   12  C17 UNL     1      20.802   2.190  52.494  1.00  0.00     0.210 C 
ENDBRANCH   1  11
BRANCH   2  13
HETATM   13  C9  UNL     1      23.645  -0.582  52.993  1.00  0.00     0.035 C 
BRANCH  13  14
HETATM   14  C10 UNL     1      24.401  -0.534  54.304  1.00  0.00     0.042 C 
BRANCH  14  15
HETATM   15  C11 UNL     1      25.885  -0.520  54.107  1.00  0.00    -0.058 A 
HETATM   16  C12 UNL     1      26.312  -1.293  53.048  1.00  0.00     0.007 A 
HETATM   17  C13 UNL     1      27.702  -1.269  52.861  1.00  0.00     0.001 A 
HETATM   18  C14 UNL     1      28.544  -0.527  53.684  1.00  0.00     0.000 A 
HETATM   19  C15 UNL     1      28.014   0.227  54.737  1.00  0.00     0.001 A 
HETATM   20  C16 UNL     1      26.644   0.240  54.967  1.00  0.00     0.007 A 
ENDBRANCH  14  15
ENDBRANCH  13  14
ENDBRANCH   2  13
TORSDOF 8
ENDMDL
MODEL 4
REMARK VINA RESULT:      -6.2      2.090      4.436
REMARK  8 active torsions:
REMARK  status: ('A' for Active; 'I' for Inactive)
REMARK    1  A    between atoms: C2_2  and  C3_3 
REMARK    2  A    between atoms: C2_2  and  C6_7 
REMARK    3  A    between atoms: C3_3  and  N1_4 
REMARK    4  A    between atoms: C6_7  and  C7_9 
REMARK    5  A    between atoms: C7_9  and  O2_19 
REMARK    6  A    between atoms: C8_10  and  C9_11 
REMARK    7  A    between atoms: C9_11  and  C10_12 
REMARK    8  A    between atoms: C10_12  and  C11_13 
ROOT
HETATM    1  C7  UNL     1      26.846   1.869  53.308  1.00  0.00     0.114 C 
HETATM    2  C8  UNL     1      26.549   0.627  53.657  1.00  0.00     0.014 C 
ENDROOT
BRANCH   1   3
HETATM    3  C6  UNL     1      26.232   2.420  52.110  1.00  0.00     0.208 C 
HETATM    4  O1  UNL     1      27.008   2.551  51.123  1.00  0.00    -0.285 OA
BRANCH   3   5
HETATM    5  C2  UNL     1      24.839   2.815  51.976  1.00  0.00    -0.009 C 
HETATM    6  C1  UNL     1      24.305   3.285  53.083  1.00  0.00     0.044 C 
BRANCH   5   7
HETATM    7  C3  UNL     1      24.164   2.674  50.663  1.00  0.00     0.154 C 
BRANCH   7   8
HETATM    8  N1  UNL     1      23.769   3.958  50.161  1.00  0.00    -0.417 N 
HETATM    9  C4  UNL     1      24.717   4.612  49.326  1.00  0.00     0.142 C 
HETATM   10  C5  UNL     1      22.408   4.012  49.748  1.00  0.00     0.142 C 
ENDBRANCH   7   8
ENDBRANCH   5   7
ENDBRANCH   3   5
ENDBRANCH   1   3
BRANCH   1  11
HETATM   11  O2  UNL     1      27.726   2.621  54.074  1.00  0.00    -0.352 OA
HETATM   12  C17 UNL     1      29.108   2.250  53.923  1.00  0.00     0.210 C 
ENDBRANCH   1  11
BRANCH   2  13
HETATM   13  C9  UNL     1      25.785  -0.598  53.341  1.00  0.00     0.035 C 
BRANCH  13  14
HETATM   14  C10 UNL     1      24.848  -0.877  54.497  1.00  0.00     0.042 C 
BRANCH  14  15
HETATM   15  C11 UNL     1      23.408  -0.740  54.110  1.00  0.00    -0.058 A 
HETATM   16  C12 UNL     1      23.220  -0.245  52.837  1.00  0.00     0.007 A 
HETATM   17  C13 UNL     1      21.869  -0.129  52.475  1.00  0.00     0.001 A 
HETATM   18  C14 UNL     1      20.840  -0.486  53.342  1.00  0.00     0.000 A 
HETATM   19  C15 UNL     1      21.134  -0.978  54.618  1.00  0.00     0.001 A 
HETATM   20  C16 UNL     1      22.454  -1.114  55.028  1.00  0.00     0.007 A 
ENDBRANCH  14  15
ENDBRANCH  13  14
ENDBRANCH   2  13
TORSDOF 8
ENDMDL
MODEL 5
REMARK VINA RESULT:      -6.1      2.464      5.693
REMARK  8 active torsions:
REMARK  status: ('A' for Active; 'I' for Inactive)
REMARK    1  A    between atoms: C2_2  and  C3_3 
REMARK    2  A    between atoms: C2_2  and  C6_7 
REMARK    3  A    between atoms: C3_3  and  N1_4 
REMARK    4  A    between atoms: C6_7  and  C7_9 
REMARK    5  A    between atoms: C7_9  and  O2_19 
REMARK    6  A    between atoms: C8_10  and  C9_11 
REMARK    7  A    between atoms: C9_11  and  C10_12 
REMARK    8  A    between atoms: C10_12  and  C11_13 
ROOT
HETATM    1  C7  UNL     1      25.152   2.365  52.675  1.00  0.00     0.114 C 
HETATM    2  C8  UNL     1      25.729   2.944  51.635  1.00  0.00     0.014 C 
ENDROOT
BRANCH   1   3
HETATM    3  C6  UNL     1      25.202   0.914  52.778  1.00  0.00     0.208 C 
HETATM    4  O1  UNL     1      24.083   0.334  52.700  1.00  0.00    -0.285 OA
BRANCH   3   5
HETATM    5  C2  UNL     1      26.405   0.118  52.960  1.00  0.00    -0.009 C 
HETATM    6  C1  UNL     1      26.529  -0.872  52.104  1.00  0.00     0.044 C 
BRANCH   5   7
HETATM    7  C3  UNL     1      27.358   0.475  54.040  1.00  0.00     0.154 C 
BRANCH   7   8
HETATM    8  N1  UNL     1      28.550   1.048  53.488  1.00  0.00    -0.417 N 
HETATM    9  C4  UNL     1      28.714   2.447  53.691  1.00  0.00     0.142 C 
HETATM   10  C5  UNL     1      29.706   0.237  53.666  1.00  0.00     0.142 C 
ENDBRANCH   7   8
ENDBRANCH   5   7
ENDBRANCH   3   5
ENDBRANCH   1   3
BRANCH   1  11
HETATM   11  O2  UNL     1      24.515   3.131  53.641  1.00  0.00    -0.352 OA
HETATM   12  C17 UNL     1      23.663   4.162  53.112  1.00  0.00     0.210 C 
ENDBRANCH   1  11
BRANCH   2  13
HETATM   13  C9  UNL     1      26.491   2.762  50.381  1.00  0.00     0.035 C 
BRANCH  13  14
HETATM   14  C10 UNL     1      25.765   3.506  49.280  1.00  0.00     0.042 C 
BRANCH  14  15
HETATM   15  C11 UNL     1      26.440   4.791  48.918  1.00  0.00    -0.058 A 
HETATM   16  C12 UNL     1      27.794   4.662  48.686  1.00  0.00     0.007 A 
HETATM   17  C13 UNL     1      28.420   5.868  48.337  1.00  0.00     0.001 A 
HETATM   18  C14 UNL     1      27.717   7.065  48.242  1.00  0.00     0.000 A 
HETATM   19  C15 UNL     1      26.341   7.094  48.499  1.00  0.00     0.001 A 
HETATM   20  C16 UNL     1      25.670   5.930  48.849  1.00  0.00     0.007 A 
ENDBRANCH  14  15
ENDBRANCH  13  14
ENDBRANCH   2  13
TORSDOF 8
ENDMDL
MODEL 6
REMARK VINA RESULT:      -5.9      3.122      7.009
REMARK  8 active torsions:
REMARK  status: ('A' for Active; 'I' for Inactive)
REMARK    1  A    between atoms: C2_2  and  C3_3 
REMARK    2  A    between atoms: C2_2  and  C6_7 
REMARK    3  A    between atoms: C3_3  and  N1_4 
REMARK    4  A    between atoms: C6_7  and  C7_9 
REMARK    5  A    between atoms: C7_9  and  O2_19 
REMARK    6  A    between atoms: C8_10  and  C9_11 
REMARK    7  A    between atoms: C9_11  and  C10_12 
REMARK    8  A    between atoms: C10_12  and  C11_13 
ROOT
HETATM    1  C7  UNL     1      22.601   0.626  53.317  1.00  0.00     0.114 C 
HETATM    2  C8  UNL     1      23.874   0.267  53.368  1.00  0.00     0.014 C 
ENDROOT
BRANCH   1   3
HETATM    3  C6  UNL     1      22.187   1.573  52.293  1.00  0.00     0.208 C 
HETATM    4  O1  UNL     1      22.270   2.789  52.624  1.00  0.00    -0.285 OA
BRANCH   3   5
HETATM    5  C2  UNL     1      21.703   1.229  50.966  1.00  0.00    -0.009 C 
HETATM    6  C1  UNL     1      22.439   1.702  49.985  1.00  0.00     0.044 C 
BRANCH   5   7
HETATM    7  C3  UNL     1      20.479   0.401  50.830  1.00  0.00     0.154 C 
BRANCH   7   8
HETATM    8  N1  UNL     1      19.446   0.887  51.698  1.00  0.00    -0.417 N 
HETATM    9  C4  UNL     1      18.742   2.034  51.236  1.00  0.00     0.142 C 
HETATM   10  C5  UNL     1      18.667  -0.147  52.288  1.00  0.00     0.142 C 
ENDBRANCH   7   8
ENDBRANCH   5   7
ENDBRANCH   3   5
ENDBRANCH   1   3
BRANCH   1  11
HETATM   11  O2  UNL     1      21.688   0.107  54.225  1.00  0.00    -0.352 OA
HETATM   12  C17 UNL     1      21.641  -1.330  54.260  1.00  0.00     0.210 C 
ENDBRANCH   1  11
BRANCH   2  13
HETATM   13  C9  UNL     1      25.225   0.411  52.787  1.00  0.00     0.035 C 
BRANCH  13  14
HETATM   14  C10 UNL     1      25.891  -0.948  52.807  1.00  0.00     0.042 C 
BRANCH  14  15
HETATM   15  C11 UNL     1      27.357  -0.862  53.098  1.00  0.00    -0.058 A 
HETATM   16  C12 UNL     1      28.015  -2.070  52.997  1.00  0.00     0.007 A 
HETATM   17  C13 UNL     1      29.391  -1.982  53.260  1.00  0.00     0.001 A 
HETATM   18  C14 UNL     1      30.003  -0.777  53.590  1.00  0.00     0.000 A 
HETATM   19  C15 UNL     1      29.247   0.399  53.668  1.00  0.00     0.001 A 
HETATM   20  C16 UNL     1      27.881   0.369  53.417  1.00  0.00     0.007 A 
ENDBRANCH  14  15
ENDBRANCH  13  14
ENDBRANCH   2  13
TORSDOF 8
ENDMDL
MODEL 7
REMARK VINA RESULT:      -5.9      2.426      5.902
REMARK  8 active torsions:
REMARK  status: ('A' for Active; 'I' for Inactive)
REMARK    1  A    between atoms: C2_2  and  C3_3 
REMARK    2  A    between atoms: C2_2  and  C6_7 
REMARK    3  A    between atoms: C3_3  and  N1_4 
REMARK    4  A    between atoms: C6_7  and  C7_9 
REMARK    5  A    between atoms: C7_9  and  O2_19 
REMARK    6  A    between atoms: C8_10  and  C9_11 
REMARK    7  A    between atoms: C9_11  and  C10_12 
REMARK    8  A    between atoms: C10_12  and  C11_13 
ROOT
HETATM    1  C7  UNL     1      22.575   0.425  52.781  1.00  0.00     0.114 C 
HETATM    2  C8  UNL     1      23.565  -0.277  53.307  1.00  0.00     0.014 C 
ENDROOT
BRANCH   1   3
HETATM    3  C6  UNL     1      22.774   1.849  52.560  1.00  0.00     0.208 C 
HETATM    4  O1  UNL     1      21.719   2.545  52.572  1.00  0.00    -0.285 OA
BRANCH   3   5
HETATM    5  C2  UNL     1      24.053   2.502  52.333  1.00  0.00    -0.009 C 
HETATM    6  C1  UNL     1      24.476   3.223  53.348  1.00  0.00     0.044 C 
BRANCH   5   7
HETATM    7  C3  UNL     1      24.752   2.304  51.040  1.00  0.00     0.154 C 
BRANCH   7   8
HETATM    8  N1  UNL     1      24.589   3.456  50.201  1.00  0.00    -0.417 N 
HETATM    9  C4  UNL     1      25.779   4.180  49.908  1.00  0.00     0.142 C 
HETATM   10  C5  UNL     1      23.685   3.249  49.121  1.00  0.00     0.142 C 
ENDBRANCH   7   8
ENDBRANCH   5   7
ENDBRANCH   3   5
ENDBRANCH   1   3
BRANCH   1  11
HETATM   11  O2  UNL     1      21.376  -0.192  52.449  1.00  0.00    -0.352 OA
HETATM   12  C17 UNL     1      20.619  -0.659  53.579  1.00  0.00     0.210 C 
ENDBRANCH   1  11
BRANCH   2  13
HETATM   13  C9  UNL     1      24.945  -0.266  53.837  1.00  0.00     0.035 C 
BRANCH  13  14
HETATM   14  C10 UNL     1      25.868  -0.777  52.752  1.00  0.00     0.042 C 
BRANCH  14  15
HETATM   15  C11 UNL     1      27.309  -0.510  53.054  1.00  0.00    -0.058 A 
HETATM   16  C12 UNL     1      27.598   0.825  53.247  1.00  0.00     0.007 A 
HETATM   17  C13 UNL     1      28.948   1.070  53.541  1.00  0.00     0.001 A 
HETATM   18  C14 UNL     1      29.883   0.043  53.623  1.00  0.00     0.000 A 
HETATM   19  C15 UNL     1      29.491  -1.284  53.409  1.00  0.00     0.001 A 
HETATM   20  C16 UNL     1      28.167  -1.584  53.115  1.00  0.00     0.007 A 
ENDBRANCH  14  15
ENDBRANCH  13  14
ENDBRANCH   2  13
TORSDOF 8
ENDMDL
MODEL 8
REMARK VINA RESULT:      -5.8      2.258      6.127
REMARK  8 active torsions:
REMARK  status: ('A' for Active; 'I' for Inactive)
REMARK    1  A    between atoms: C2_2  and  C3_3 
REMARK    2  A    between atoms: C2_2  and  C6_7 
REMARK    3  A    between atoms: C3_3  and  N1_4 
REMARK    4  A    between atoms: C6_7  and  C7_9 
REMARK    5  A    between atoms: C7_9  and  O2_19 
REMARK    6  A    between atoms: C8_10  and  C9_11 
REMARK    7  A    between atoms: C9_11  and  C10_12 
REMARK    8  A    between atoms: C10_12  and  C11_13 
ROOT
HETATM    1  C7  UNL     1      26.710   0.598  53.561  1.00  0.00     0.114 C 
HETATM    2  C8  UNL     1      26.868   1.426  52.541  1.00  0.00     0.014 C 
ENDROOT
BRANCH   1   3
HETATM    3  C6  UNL     1      25.833  -0.551  53.394  1.00  0.00     0.208 C 
HETATM    4  O1  UNL     1      26.277  -1.458  52.637  1.00  0.00    -0.285 OA
BRANCH   3   5
HETATM    5  C2  UNL     1      24.529  -0.718  54.015  1.00  0.00    -0.009 C 
HETATM    6  C1  UNL     1      24.576  -0.969  55.305  1.00  0.00     0.044 C 
BRANCH   5   7
HETATM    7  C3  UNL     1      23.305  -0.590  53.186  1.00  0.00     0.154 C 
BRANCH   7   8
HETATM    8  N1  UNL     1      22.505   0.510  53.641  1.00  0.00    -0.417 N 
HETATM    9  C4  UNL     1      22.459   1.639  52.776  1.00  0.00     0.142 C 
HETATM   10  C5  UNL     1      21.275   0.110  54.235  1.00  0.00     0.142 C 
ENDBRANCH   7   8
ENDBRANCH   5   7
ENDBRANCH   3   5
ENDBRANCH   1   3
BRANCH   1  11
HETATM   11  O2  UNL     1      27.371   0.828  54.760  1.00  0.00    -0.352 OA
HETATM   12  C17 UNL     1      28.667   0.211  54.850  1.00  0.00     0.210 C 
ENDBRANCH   1  11
BRANCH   2  13
HETATM   13  C9  UNL     1      26.512   1.750  51.143  1.00  0.00     0.035 C 
BRANCH  13  14
HETATM   14  C10 UNL     1      25.475   2.853  51.167  1.00  0.00     0.042 C 
BRANCH  14  15
HETATM   15  C11 UNL     1      25.835   3.996  50.271  1.00  0.00    -0.058 A 
HETATM   16  C12 UNL     1      26.984   3.786  49.538  1.00  0.00     0.007 A 
HETATM   17  C13 UNL     1      27.312   4.855  48.691  1.00  0.00     0.001 A 
HETATM   18  C14 UNL     1      26.533   6.006  48.621  1.00  0.00     0.000 A 
HETATM   19  C15 UNL     1      25.382   6.126  49.409  1.00  0.00     0.001 A 
HETATM   20  C16 UNL     1      25.010   5.097  50.264  1.00  0.00     0.007 A 
ENDBRANCH  14  15
ENDBRANCH  13  14
ENDBRANCH   2  13
TORSDOF 8
ENDMDL
MODEL 9
REMARK VINA RESULT:      -5.8      1.756      5.089
REMARK  8 active torsions:
REMARK  status: ('A' for Active; 'I' for Inactive)
REMARK    1  A    between atoms: C2_2  and  C3_3 
REMARK    2  A    between atoms: C2_2  and  C6_7 
REMARK    3  A    between atoms: C3_3  and  N1_4 
REMARK    4  A    between atoms: C6_7  and  C7_9 
REMARK    5  A    between atoms: C7_9  and  O2_19 
REMARK    6  A    between atoms: C8_10  and  C9_11 
REMARK    7  A    between atoms: C9_11  and  C10_12 
REMARK    8  A    between atoms: C10_12  and  C11_13 
ROOT
HETATM    1  C7  UNL     1      23.680   1.305  52.737  1.00  0.00     0.114 C 
HETATM    2  C8  UNL     1      23.091   2.124  51.882  1.00  0.00     0.014 C 
ENDROOT
BRANCH   1   3
HETATM    3  C6  UNL     1      25.054   1.581  53.131  1.00  0.00     0.208 C 
HETATM    4  O1  UNL     1      25.207   2.601  53.859  1.00  0.00    -0.285 OA
BRANCH   3   5
HETATM    5  C2  UNL     1      26.217   0.793  52.756  1.00  0.00    -0.009 C 
HETATM    6  C1  UNL     1      26.788   1.178  51.636  1.00  0.00     0.044 C 
BRANCH   5   7
HETATM    7  C3  UNL     1      26.654  -0.323  53.631  1.00  0.00     0.154 C 
BRANCH   7   8
HETATM    8  N1  UNL     1      27.688  -1.085  52.993  1.00  0.00    -0.417 N 
HETATM    9  C4  UNL     1      28.979  -0.985  53.581  1.00  0.00     0.142 C 
HETATM   10  C5  UNL     1      27.269  -2.383  52.586  1.00  0.00     0.142 C 
ENDBRANCH   7   8
ENDBRANCH   5   7
ENDBRANCH   3   5
ENDBRANCH   1   3
BRANCH   1  11
HETATM   11  O2  UNL     1      22.996   0.207  53.242  1.00  0.00    -0.352 OA
HETATM   12  C17 UNL     1      21.704   0.517  53.793  1.00  0.00     0.210 C 
ENDBRANCH   1  11
BRANCH   2  13
HETATM   13  C9  UNL     1      23.212   3.337  51.045  1.00  0.00     0.035 C 
BRANCH  13  14
HETATM   14  C10 UNL     1      23.958   2.963  49.782  1.00  0.00     0.042 C 
BRANCH  14  15
HETATM   15  C11 UNL     1      24.976   3.989  49.394  1.00  0.00    -0.058 A 
HETATM   16  C12 UNL     1      24.439   5.231  49.127  1.00  0.00     0.007 A 
HETATM   17  C13 UNL     1      25.398   6.192  48.775  1.00  0.00     0.001 A 
HETATM   18  C14 UNL     1      26.755   5.891  48.708  1.00  0.00     0.000 A 
HETATM   19  C15 UNL     1      27.203   4.596  48.996  1.00  0.00     0.001 A 
HETATM   20  C16 UNL     1      26.297   3.606  49.352  1.00  0.00     0.007 A 
ENDBRANCH  14  15
ENDBRANCH  13  14
ENDBRANCH   2  13
TORSDOF 8
ENDMDL
