MODEL 1
REMARK VINA RESULT:      -7.9      0.000      0.000
REMARK  5 active torsions:
REMARK  status: ('A' for Active; 'I' for Inactive)
REMARK    1  A    between atoms: C2_2  and  S1_3 
REMARK    2  A    between atoms: S1_3  and  N1_6 
REMARK    3  A    between atoms: N1_6  and  C3_7 
REMARK    4  A    between atoms: C6_10  and  N2_11 
REMARK    5  A    between atoms: N2_11  and  C7_12 
ROOT
HETATM    1  C3  UNL     1      26.602   2.518  51.272  1.00  0.00     0.136 C 
HETATM    2  C4  UNL     1      25.371   1.917  51.377  1.00  0.00     0.055 C 
HETATM    3  C5  UNL     1      24.007   1.922  51.380  1.00  0.00     0.054 C 
HETATM    4  C6  UNL     1      23.432   2.536  52.473  1.00  0.00     0.129 C 
HETATM    5  N3  UNL     1      23.125   3.841  52.573  1.00  0.00    -0.225 NA
HETATM    6  C13 UNL     1      23.498   4.577  51.485  1.00  0.00     0.234 C 
HETATM    7  N4  UNL     1      24.702   4.964  50.962  1.00  0.00    -0.253 NA
HETATM    8  C14 UNL     1      25.184   4.430  49.852  1.00  0.00     0.137 C 
HETATM    9  C15 UNL     1      26.254   3.695  49.349  1.00  0.00     0.138 C 
HETATM   10  N5  UNL     1      26.847   2.642  49.980  1.00  0.00    -0.241 NA
ENDROOT
BRANCH   4  11
HETATM   11  N2  UNL     1      23.341   1.380  53.282  1.00  0.00    -0.341 N 
HETATM   12  H7  UNL     1      24.251   1.248  53.816  1.00  0.00     0.167 HD
BRANCH  11  13
HETATM   13  C7  UNL     1      22.297   0.454  53.467  1.00  0.00     0.034 A 
HETATM   14  C8  UNL     1      22.484  -0.644  54.271  1.00  0.00     0.029 A 
HETATM   15  C9  UNL     1      21.492  -1.579  54.471  1.00  0.00     0.004 A 
HETATM   16  C10 UNL     1      20.277  -1.440  53.867  1.00  0.00     0.019 A 
HETATM   17  C11 UNL     1      20.100  -0.341  53.068  1.00  0.00     0.013 A 
HETATM   18 BR1  UNL     1      18.411  -0.144  52.229  1.00  0.00    -0.051 Br
HETATM   19  C12 UNL     1      21.074   0.628  52.837  1.00  0.00     0.048 A 
ENDBRANCH  11  13
ENDBRANCH   4  11
BRANCH   1  20
HETATM   20  N1  UNL     1      27.349   2.882  52.425  1.00  0.00    -0.265 N 
HETATM   21  H4  UNL     1      27.759   3.838  52.448  1.00  0.00     0.180 HD
BRANCH  20  22
HETATM   22  S1  UNL     1      27.461   1.660  53.636  1.00  0.00     0.253 S 
HETATM   23  O1  UNL     1      26.254   1.593  54.523  1.00  0.00    -0.201 OA
HETATM   24  O2  UNL     1      28.676   1.881  54.504  1.00  0.00    -0.201 OA
BRANCH  22  25
HETATM   25  C2  UNL     1      27.663   0.112  52.808  1.00  0.00     0.121 C 
HETATM   26  C1  UNL     1      26.793  -0.748  53.332  1.00  0.00     0.025 C 
ENDBRANCH  22  25
ENDBRANCH  20  22
ENDBRANCH   1  20
TORSDOF 5
ENDMDL
MODEL 2
REMARK VINA RESULT:      -7.7      1.889      2.147
REMARK  5 active torsions:
REMARK  status: ('A' for Active; 'I' for Inactive)
REMARK    1  A    between atoms: C2_2  and  S1_3 
REMARK    2  A    between atoms: S1_3  and  N1_6 
REMARK    3  A    between atoms: N1_6  and  C3_7 
REMARK    4  A    between atoms: C6_10  and  N2_11 
REMARK    5  A    between atoms: N2_11  and  C7_12 
ROOT
HETATM    1  C3  UNL     1      25.461   3.002  51.288  1.00  0.00     0.136 C 
HETATM    2  C4  UNL     1      24.381   2.418  50.670  1.00  0.00     0.055 C 
HETATM    3  C5  UNL     1      23.114   2.423  50.168  1.00  0.00     0.054 C 
HETATM    4  C6  UNL     1      22.114   2.493  51.116  1.00  0.00     0.129 C 
HETATM    5  N3  UNL     1      21.583   3.620  51.619  1.00  0.00    -0.225 NA
HETATM    6  C13 UNL     1      22.173   4.761  51.153  1.00  0.00     0.234 C 
HETATM    7  N4  UNL     1      23.402   5.337  51.325  1.00  0.00    -0.253 NA
HETATM    8  C14 UNL     1      24.308   5.347  50.361  1.00  0.00     0.137 C 
HETATM    9  C15 UNL     1      25.590   4.907  50.039  1.00  0.00     0.138 C 
HETATM   10  N5  UNL     1      26.100   3.683  50.354  1.00  0.00    -0.241 NA
ENDROOT
BRANCH   4  11
HETATM   11  N2  UNL     1      21.948   1.099  51.281  1.00  0.00    -0.341 N 
HETATM   12  H7  UNL     1      21.843   0.638  50.328  1.00  0.00     0.167 HD
BRANCH  11  13
HETATM   13  C7  UNL     1      21.907   0.297  52.438  1.00  0.00     0.034 A 
HETATM   14  C8  UNL     1      20.716  -0.236  52.865  1.00  0.00     0.029 A 
HETATM   15  C9  UNL     1      20.631  -1.017  53.997  1.00  0.00     0.004 A 
HETATM   16  C10 UNL     1      21.745  -1.287  54.738  1.00  0.00     0.019 A 
HETATM   17  C11 UNL     1      22.927  -0.751  54.302  1.00  0.00     0.013 A 
HETATM   18 BR1  UNL     1      24.477  -1.127  55.328  1.00  0.00    -0.051 Br
HETATM   19  C12 UNL     1      23.060   0.044  53.166  1.00  0.00     0.048 A 
ENDBRANCH  11  13
ENDBRANCH   4  11
BRANCH   1  20
HETATM   20  N1  UNL     1      25.709   2.820  52.675  1.00  0.00    -0.265 N 
HETATM   21  H4  UNL     1      25.083   3.315  53.343  1.00  0.00     0.180 HD
BRANCH  20  22
HETATM   22  S1  UNL     1      27.034   1.781  53.047  1.00  0.00     0.253 S 
HETATM   23  O1  UNL     1      27.132   1.446  54.506  1.00  0.00    -0.201 OA
HETATM   24  O2  UNL     1      28.339   2.406  52.615  1.00  0.00    -0.201 OA
BRANCH  22  25
HETATM   25  C2  UNL     1      26.816   0.293  52.120  1.00  0.00     0.121 C 
HETATM   26  C1  UNL     1      27.320  -0.711  52.835  1.00  0.00     0.025 C 
ENDBRANCH  22  25
ENDBRANCH  20  22
ENDBRANCH   1  20
TORSDOF 5
ENDMDL
MODEL 3
REMARK VINA RESULT:      -7.5      3.009      6.087
REMARK  5 active torsions:
REMARK  status: ('A' for Active; 'I' for Inactive)
REMARK    1  A    between atoms: C2_2  and  S1_3 
REMARK    2  A    between atoms: S1_3  and  N1_6 
REMARK    3  A    between atoms: N1_6  and  C3_7 
REMARK    4  A    between atoms: C6_10  and  N2_11 
REMARK    5  A    between atoms: N2_11  and  C7_12 
ROOT
HETATM    1  C3  UNL     1      23.425   0.238  53.335  1.00  0.00     0.136 C 
HETATM    2  C4  UNL     1      23.412   1.567  52.982  1.00  0.00     0.055 C 
HETATM    3  C5  UNL     1      22.997   2.624  52.229  1.00  0.00     0.054 C 
HETATM    4  C6  UNL     1      23.457   2.625  50.928  1.00  0.00     0.129 C 
HETATM    5  N3  UNL     1      22.853   2.043  49.878  1.00  0.00    -0.225 NA
HETATM    6  C13 UNL     1      21.721   1.354  50.208  1.00  0.00     0.234 C 
HETATM    7  N4  UNL     1      21.475   0.204  50.909  1.00  0.00    -0.253 NA
HETATM    8  C14 UNL     1      20.935   0.226  52.117  1.00  0.00     0.137 C 
HETATM    9  C15 UNL     1      21.175  -0.118  53.445  1.00  0.00     0.138 C 
HETATM   10  N5  UNL     1      22.363   0.044  54.094  1.00  0.00    -0.241 NA
ENDROOT
BRANCH   4  11
HETATM   11  N2  UNL     1      24.632   3.374  51.171  1.00  0.00    -0.341 N 
HETATM   12  H7  UNL     1      24.930   3.247  52.184  1.00  0.00     0.167 HD
BRANCH  11  13
HETATM   13  C7  UNL     1      25.403   4.194  50.327  1.00  0.00     0.034 A 
HETATM   14  C8  UNL     1      26.515   3.687  49.700  1.00  0.00     0.029 A 
HETATM   15  C9  UNL     1      27.303   4.460  48.874  1.00  0.00     0.004 A 
HETATM   16  C10 UNL     1      26.998   5.771  48.653  1.00  0.00     0.019 A 
HETATM   17  C11 UNL     1      25.887   6.267  49.283  1.00  0.00     0.013 A 
HETATM   18 BR1  UNL     1      25.459   8.088  48.976  1.00  0.00    -0.051 Br
HETATM   19  C12 UNL     1      25.062   5.524  50.126  1.00  0.00     0.048 A 
ENDBRANCH  11  13
ENDBRANCH   4  11
BRANCH   1  20
HETATM   20  N1  UNL     1      24.452  -0.636  52.887  1.00  0.00    -0.265 N 
HETATM   21  H4  UNL     1      24.270  -1.187  52.022  1.00  0.00     0.180 HD
BRANCH  20  22
HETATM   22  S1  UNL     1      25.874  -0.649  53.861  1.00  0.00     0.253 S 
HETATM   23  O1  UNL     1      26.849  -1.720  53.471  1.00  0.00    -0.201 OA
HETATM   24  O2  UNL     1      25.520  -0.837  55.317  1.00  0.00    -0.201 OA
BRANCH  22  25
HETATM   25  C2  UNL     1      26.645   0.931  53.693  1.00  0.00     0.121 C 
HETATM   26  C1  UNL     1      27.115   1.027  52.450  1.00  0.00     0.025 C 
ENDBRANCH  22  25
ENDBRANCH  20  22
ENDBRANCH   1  20
TORSDOF 5
ENDMDL
MODEL 4
REMARK VINA RESULT:      -7.5      3.739      5.668
REMARK  5 active torsions:
REMARK  status: ('A' for Active; 'I' for Inactive)
REMARK    1  A    between atoms: C2_2  and  S1_3 
REMARK    2  A    between atoms: S1_3  and  N1_6 
REMARK    3  A    between atoms: N1_6  and  C3_7 
REMARK    4  A    between atoms: C6_10  and  N2_11 
REMARK    5  A    between atoms: N2_11  and  C7_12 
ROOT
HETATM    1  C3  UNL     1      21.442   2.229  52.514  1.00  0.00     0.136 C 
HETATM    2  C4  UNL     1      22.572   2.996  52.665  1.00  0.00     0.055 C 
HETATM    3  C5  UNL     1      23.546   3.835  52.212  1.00  0.00     0.054 C 
HETATM    4  C6  UNL     1      24.455   3.256  51.350  1.00  0.00     0.129 C 
HETATM    5  N3  UNL     1      24.336   3.180  50.014  1.00  0.00    -0.225 NA
HETATM    6  C13 UNL     1      23.159   3.683  49.538  1.00  0.00     0.234 C 
HETATM    7  N4  UNL     1      21.851   3.287  49.615  1.00  0.00    -0.253 NA
HETATM    8  C14 UNL     1      20.973   3.925  50.372  1.00  0.00     0.137 C 
HETATM    9  C15 UNL     1      20.119   3.760  51.460  1.00  0.00     0.138 C 
HETATM   10  N5  UNL     1      20.416   3.059  52.590  1.00  0.00    -0.241 NA
ENDROOT
BRANCH   4  11
HETATM   11  N2  UNL     1      25.384   2.855  52.338  1.00  0.00    -0.341 N 
HETATM   12  H7  UNL     1      25.652   3.694  52.934  1.00  0.00     0.167 HD
BRANCH  11  13
HETATM   13  C7  UNL     1      25.957   1.601  52.622  1.00  0.00     0.034 A 
HETATM   14  C8  UNL     1      25.178   0.470  52.618  1.00  0.00     0.029 A 
HETATM   15  C9  UNL     1      25.697  -0.774  52.901  1.00  0.00     0.004 A 
HETATM   16  C10 UNL     1      27.020  -0.922  53.199  1.00  0.00     0.019 A 
HETATM   17  C11 UNL     1      27.788   0.212  53.200  1.00  0.00     0.013 A 
HETATM   18 BR1  UNL     1      29.629   0.010  53.612  1.00  0.00    -0.051 Br
HETATM   19  C12 UNL     1      27.307   1.490  52.921  1.00  0.00     0.048 A 
ENDBRANCH  11  13
ENDBRANCH   4  11
BRANCH   1  20
HETATM   20  N1  UNL     1      21.521   0.824  52.318  1.00  0.00    -0.265 N 
HETATM   21  H4  UNL     1      22.000   0.486  51.458  1.00  0.00     0.180 HD
BRANCH  20  22
HETATM   22  S1  UNL     1      20.798  -0.127  53.562  1.00  0.00     0.253 S 
HETATM   23  O1  UNL     1      19.442  -0.652  53.193  1.00  0.00    -0.201 OA
HETATM   24  O2  UNL     1      20.668   0.673  54.835  1.00  0.00    -0.201 OA
BRANCH  22  25
HETATM   25  C2  UNL     1      21.881  -1.484  53.886  1.00  0.00     0.121 C 
HETATM   26  C1  UNL     1      22.587  -1.192  54.977  1.00  0.00     0.025 C 
ENDBRANCH  22  25
ENDBRANCH  20  22
ENDBRANCH   1  20
TORSDOF 5
ENDMDL
MODEL 5
REMARK VINA RESULT:      -7.4      3.404      6.369
REMARK  5 active torsions:
REMARK  status: ('A' for Active; 'I' for Inactive)
REMARK    1  A    between atoms: C2_2  and  S1_3 
REMARK    2  A    between atoms: S1_3  and  N1_6 
REMARK    3  A    between atoms: N1_6  and  C3_7 
REMARK    4  A    between atoms: C6_10  and  N2_11 
REMARK    5  A    between atoms: N2_11  and  C7_12 
ROOT
HETATM    1  C3  UNL     1      24.259   1.942  52.368  1.00  0.00     0.136 C 
HETATM    2  C4  UNL     1      23.898   3.222  52.020  1.00  0.00     0.055 C 
HETATM    3  C5  UNL     1      23.208   4.136  51.281  1.00  0.00     0.054 C 
HETATM    4  C6  UNL     1      23.619   4.250  49.969  1.00  0.00     0.129 C 
HETATM    5  N3  UNL     1      23.158   3.530  48.933  1.00  0.00    -0.225 NA
HETATM    6  C13 UNL     1      22.248   2.576  49.289  1.00  0.00     0.234 C 
HETATM    7  N4  UNL     1      22.321   1.403  49.992  1.00  0.00    -0.253 NA
HETATM    8  C14 UNL     1      21.824   1.291  51.213  1.00  0.00     0.137 C 
HETATM    9  C15 UNL     1      22.177   1.024  52.533  1.00  0.00     0.138 C 
HETATM   10  N5  UNL     1      23.300   1.485  53.153  1.00  0.00    -0.241 NA
ENDROOT
BRANCH   4  11
HETATM   11  N2  UNL     1      24.570   5.274  50.184  1.00  0.00    -0.341 N 
HETATM   12  H7  UNL     1      24.253   5.888  50.994  1.00  0.00     0.167 HD
BRANCH  11  13
HETATM   13  C7  UNL     1      25.782   5.571  49.533  1.00  0.00     0.034 A 
HETATM   14  C8  UNL     1      26.666   4.565  49.230  1.00  0.00     0.029 A 
HETATM   15  C9  UNL     1      27.867   4.814  48.601  1.00  0.00     0.004 A 
HETATM   16  C10 UNL     1      28.219   6.087  48.258  1.00  0.00     0.019 A 
HETATM   17  C11 UNL     1      27.330   7.083  48.565  1.00  0.00     0.013 A 
HETATM   18 BR1  UNL     1      27.815   8.853  48.087  1.00  0.00    -0.051 Br
HETATM   19  C12 UNL     1      26.106   6.878  49.199  1.00  0.00     0.048 A 
ENDBRANCH  11  13
ENDBRANCH   4  11
BRANCH   1  20
HETATM   20  N1  UNL     1      25.463   1.357  51.891  1.00  0.00    -0.265 N 
HETATM   21  H4  UNL     1      25.429   0.874  50.969  1.00  0.00     0.180 HD
BRANCH  20  22
HETATM   22  S1  UNL     1      26.825   1.544  52.931  1.00  0.00     0.253 S 
HETATM   23  O1  UNL     1      26.489   2.209  54.232  1.00  0.00    -0.201 OA
HETATM   24  O2  UNL     1      27.907   2.349  52.251  1.00  0.00    -0.201 OA
BRANCH  22  25
HETATM   25  C2  UNL     1      27.472  -0.068  53.249  1.00  0.00     0.121 C 
HETATM   26  C1  UNL     1      26.817  -0.932  52.476  1.00  0.00     0.025 C 
ENDBRANCH  22  25
ENDBRANCH  20  22
ENDBRANCH   1  20
TORSDOF 5
ENDMDL
MODEL 6
REMARK VINA RESULT:      -7.0      8.287     10.972
REMARK  5 active torsions:
REMARK  status: ('A' for Active; 'I' for Inactive)
REMARK    1  A    between atoms: C2_2  and  S1_3 
REMARK    2  A    between atoms: S1_3  and  N1_6 
REMARK    3  A    between atoms: N1_6  and  C3_7 
REMARK    4  A    between atoms: C6_10  and  N2_11 
REMARK    5  A    between atoms: N2_11  and  C7_12 
ROOT
HETATM    1  C3  UNL     1      34.256   7.052  47.775  1.00  0.00     0.136 C 
HETATM    2  C4  UNL     1      33.043   6.749  48.347  1.00  0.00     0.055 C 
HETATM    3  C5  UNL     1      32.065   5.889  48.748  1.00  0.00     0.054 C 
HETATM    4  C6  UNL     1      31.353   5.302  47.722  1.00  0.00     0.129 C 
HETATM    5  N3  UNL     1      31.670   4.156  47.098  1.00  0.00    -0.225 NA
HETATM    6  C13 UNL     1      32.846   3.606  47.523  1.00  0.00     0.234 C 
HETATM    7  N4  UNL     1      34.163   3.963  47.405  1.00  0.00    -0.253 NA
HETATM    8  C14 UNL     1      34.854   4.426  48.434  1.00  0.00     0.137 C 
HETATM    9  C15 UNL     1      35.554   5.541  48.886  1.00  0.00     0.138 C 
HETATM   10  N5  UNL     1      35.170   6.836  48.703  1.00  0.00    -0.241 NA
ENDROOT
BRANCH   4  11
HETATM   11  N2  UNL     1      30.337   6.283  47.647  1.00  0.00    -0.341 N 
HETATM   12  H7  UNL     1      30.744   7.186  47.260  1.00  0.00     0.167 HD
BRANCH  11  13
HETATM   13  C7  UNL     1      28.971   6.234  47.982  1.00  0.00     0.034 A 
HETATM   14  C8  UNL     1      28.160   7.313  47.728  1.00  0.00     0.029 A 
HETATM   15  C9  UNL     1      26.820   7.310  48.049  1.00  0.00     0.004 A 
HETATM   16  C10 UNL     1      26.251   6.220  48.640  1.00  0.00     0.019 A 
HETATM   17  C11 UNL     1      27.068   5.150  48.889  1.00  0.00     0.013 A 
HETATM   18 BR1  UNL     1      26.280   3.631  49.707  1.00  0.00    -0.051 Br
HETATM   19  C12 UNL     1      28.427   5.108  48.582  1.00  0.00     0.048 A 
ENDBRANCH  11  13
ENDBRANCH   4  11
BRANCH   1  20
HETATM   20  N1  UNL     1      34.348   7.497  46.428  1.00  0.00    -0.265 N 
HETATM   21  H4  UNL     1      34.216   6.787  45.679  1.00  0.00     0.180 HD
BRANCH  20  22
HETATM   22  S1  UNL     1      34.669   9.180  46.238  1.00  0.00     0.253 S 
HETATM   23  O1  UNL     1      35.774   9.466  45.265  1.00  0.00    -0.201 OA
HETATM   24  O2  UNL     1      35.030   9.806  47.564  1.00  0.00    -0.201 OA
BRANCH  22  25
HETATM   25  C2  UNL     1      33.179   9.941  45.669  1.00  0.00     0.121 C 
HETATM   26  C1  UNL     1      32.727  10.731  46.641  1.00  0.00     0.025 C 
ENDBRANCH  22  25
ENDBRANCH  20  22
ENDBRANCH   1  20
TORSDOF 5
ENDMDL
MODEL 7
REMARK VINA RESULT:      -6.8      5.213      7.172
REMARK  5 active torsions:
REMARK  status: ('A' for Active; 'I' for Inactive)
REMARK    1  A    between atoms: C2_2  and  S1_3 
REMARK    2  A    between atoms: S1_3  and  N1_6 
REMARK    3  A    between atoms: N1_6  and  C3_7 
REMARK    4  A    between atoms: C6_10  and  N2_11 
REMARK    5  A    between atoms: N2_11  and  C7_12 
ROOT
HETATM    1  C3  UNL     1      29.366   8.025  48.292  1.00  0.00     0.136 C 
HETATM    2  C4  UNL     1      28.154   7.479  47.942  1.00  0.00     0.055 C 
HETATM    3  C5  UNL     1      26.793   7.407  47.978  1.00  0.00     0.054 C 
HETATM    4  C6  UNL     1      26.268   6.974  49.178  1.00  0.00     0.129 C 
HETATM    5  N3  UNL     1      25.942   7.754  50.223  1.00  0.00    -0.225 NA
HETATM    6  C13 UNL     1      26.240   9.074  50.037  1.00  0.00     0.234 C 
HETATM    7  N4  UNL     1      27.406   9.785  49.950  1.00  0.00    -0.253 NA
HETATM    8  C14 UNL     1      27.836  10.280  48.801  1.00  0.00     0.137 C 
HETATM    9  C15 UNL     1      28.891  10.220  47.893  1.00  0.00     0.138 C 
HETATM   10  N5  UNL     1      29.537   9.080  47.517  1.00  0.00    -0.241 NA
ENDROOT
BRANCH   4  11
HETATM   11  N2  UNL     1      26.243   5.597  48.858  1.00  0.00    -0.341 N 
HETATM   12  H7  UNL     1      26.821   5.426  47.982  1.00  0.00     0.167 HD
BRANCH  11  13
HETATM   13  C7  UNL     1      25.615   4.507  49.488  1.00  0.00     0.034 A 
HETATM   14  C8  UNL     1      24.263   4.312  49.343  1.00  0.00     0.029 A 
HETATM   15  C9  UNL     1      23.608   3.262  49.950  1.00  0.00     0.004 A 
HETATM   16  C10 UNL     1      24.293   2.374  50.726  1.00  0.00     0.019 A 
HETATM   17  C11 UNL     1      25.640   2.577  50.865  1.00  0.00     0.013 A 
HETATM   18 BR1  UNL     1      26.596   1.343  51.941  1.00  0.00    -0.051 Br
HETATM   19  C12 UNL     1      26.344   3.623  50.270  1.00  0.00     0.048 A 
ENDBRANCH  11  13
ENDBRANCH   4  11
BRANCH   1  20
HETATM   20  N1  UNL     1      30.169   7.451  49.315  1.00  0.00    -0.265 N 
HETATM   21  H4  UNL     1      30.114   7.878  50.263  1.00  0.00     0.180 HD
BRANCH  20  22
HETATM   22  S1  UNL     1      31.127   6.105  48.821  1.00  0.00     0.253 S 
HETATM   23  O1  UNL     1      30.337   5.044  48.115  1.00  0.00    -0.201 OA
HETATM   24  O2  UNL     1      31.813   5.475  50.009  1.00  0.00    -0.201 OA
BRANCH  22  25
HETATM   25  C2  UNL     1      32.380   6.718  47.737  1.00  0.00     0.121 C 
HETATM   26  C1  UNL     1      32.099   6.293  46.506  1.00  0.00     0.025 C 
ENDBRANCH  22  25
ENDBRANCH  20  22
ENDBRANCH   1  20
TORSDOF 5
ENDMDL
MODEL 8
REMARK VINA RESULT:      -6.8      3.941      5.594
REMARK  5 active torsions:
REMARK  status: ('A' for Active; 'I' for Inactive)
REMARK    1  A    between atoms: C2_2  and  S1_3 
REMARK    2  A    between atoms: S1_3  and  N1_6 
REMARK    3  A    between atoms: N1_6  and  C3_7 
REMARK    4  A    between atoms: C6_10  and  N2_11 
REMARK    5  A    between atoms: N2_11  and  C7_12 
ROOT
HETATM    1  C3  UNL     1      25.520   6.443  49.615  1.00  0.00     0.136 C 
HETATM    2  C4  UNL     1      25.221   5.153  49.986  1.00  0.00     0.055 C 
HETATM    3  C5  UNL     1      24.374   4.168  50.397  1.00  0.00     0.054 C 
HETATM    4  C6  UNL     1      23.926   4.293  51.696  1.00  0.00     0.129 C 
HETATM    5  N3  UNL     1      22.832   4.967  52.091  1.00  0.00    -0.225 NA
HETATM    6  C13 UNL     1      22.188   5.612  51.074  1.00  0.00     0.234 C 
HETATM    7  N4  UNL     1      22.490   6.689  50.285  1.00  0.00    -0.253 NA
HETATM    8  C14 UNL     1      22.817   6.549  49.011  1.00  0.00     0.137 C 
HETATM    9  C15 UNL     1      23.847   6.769  48.100  1.00  0.00     0.138 C 
HETATM   10  N5  UNL     1      25.170   6.556  48.347  1.00  0.00    -0.241 NA
ENDROOT
BRANCH   4  11
HETATM   11  N2  UNL     1      24.957   3.535  52.298  1.00  0.00    -0.341 N 
HETATM   12  H7  UNL     1      25.763   4.178  52.560  1.00  0.00     0.167 HD
BRANCH  11  13
HETATM   13  C7  UNL     1      25.057   2.160  52.579  1.00  0.00     0.034 A 
HETATM   14  C8  UNL     1      26.221   1.484  52.307  1.00  0.00     0.029 A 
HETATM   15  C9  UNL     1      26.358   0.135  52.559  1.00  0.00     0.004 A 
HETATM   16  C10 UNL     1      25.324  -0.578  53.092  1.00  0.00     0.019 A 
HETATM   17  C11 UNL     1      24.168   0.106  53.359  1.00  0.00     0.013 A 
HETATM   18 BR1  UNL     1      22.730  -0.883  54.103  1.00  0.00    -0.051 Br
HETATM   19  C12 UNL     1      23.985   1.466  53.122  1.00  0.00     0.048 A 
ENDBRANCH  11  13
ENDBRANCH   4  11
BRANCH   1  20
HETATM   20  N1  UNL     1      26.091   7.364  50.535  1.00  0.00    -0.265 N 
HETATM   21  H4  UNL     1      25.974   7.162  51.550  1.00  0.00     0.180 HD
BRANCH  20  22
HETATM   22  S1  UNL     1      26.909   8.699  49.815  1.00  0.00     0.253 S 
HETATM   23  O1  UNL     1      27.945   8.287  48.811  1.00  0.00    -0.201 OA
HETATM   24  O2  UNL     1      27.581   9.544  50.871  1.00  0.00    -0.201 OA
BRANCH  22  25
HETATM   25  C2  UNL     1      25.690   9.700  49.020  1.00  0.00     0.121 C 
HETATM   26  C1  UNL     1      26.148  10.019  47.811  1.00  0.00     0.025 C 
ENDBRANCH  22  25
ENDBRANCH  20  22
ENDBRANCH   1  20
TORSDOF 5
ENDMDL
MODEL 9
REMARK VINA RESULT:      -6.7      1.928      2.496
REMARK  5 active torsions:
REMARK  status: ('A' for Active; 'I' for Inactive)
REMARK    1  A    between atoms: C2_2  and  S1_3 
REMARK    2  A    between atoms: S1_3  and  N1_6 
REMARK    3  A    between atoms: N1_6  and  C3_7 
REMARK    4  A    between atoms: C6_10  and  N2_11 
REMARK    5  A    between atoms: N2_11  and  C7_12 
ROOT
HETATM    1  C3  UNL     1      24.740   2.376  51.796  1.00  0.00     0.136 C 
HETATM    2  C4  UNL     1      23.564   1.951  51.227  1.00  0.00     0.055 C 
HETATM    3  C5  UNL     1      22.283   2.131  50.796  1.00  0.00     0.054 C 
HETATM    4  C6  UNL     1      21.351   2.296  51.801  1.00  0.00     0.129 C 
HETATM    5  N3  UNL     1      20.995   3.464  52.361  1.00  0.00    -0.225 NA
HETATM    6  C13 UNL     1      21.699   4.535  51.891  1.00  0.00     0.234 C 
HETATM    7  N4  UNL     1      22.999   4.947  52.008  1.00  0.00    -0.253 NA
HETATM    8  C14 UNL     1      23.847   4.875  50.995  1.00  0.00     0.137 C 
HETATM    9  C15 UNL     1      25.043   4.288  50.590  1.00  0.00     0.138 C 
HETATM   10  N5  UNL     1      25.410   3.000  50.845  1.00  0.00    -0.241 NA
ENDROOT
BRANCH   4  11
HETATM   11  N2  UNL     1      21.018   0.928  51.941  1.00  0.00    -0.341 N 
HETATM   12  H7  UNL     1      21.910   0.350  51.994  1.00  0.00     0.167 HD
BRANCH  11  13
HETATM   13  C7  UNL     1      19.773   0.277  52.017  1.00  0.00     0.034 A 
HETATM   14  C8  UNL     1      19.452  -0.468  53.125  1.00  0.00     0.029 A 
HETATM   15  C9  UNL     1      18.247  -1.129  53.235  1.00  0.00     0.004 A 
HETATM   16  C10 UNL     1      17.326  -1.063  52.231  1.00  0.00     0.019 A 
HETATM   17  C11 UNL     1      17.657  -0.318  51.131  1.00  0.00     0.013 A 
HETATM   18 BR1  UNL     1      16.378  -0.223  49.734  1.00  0.00    -0.051 Br
HETATM   19  C12 UNL     1      18.861   0.367  50.976  1.00  0.00     0.048 A 
ENDBRANCH  11  13
ENDBRANCH   4  11
BRANCH   1  20
HETATM   20  N1  UNL     1      25.036   2.119  53.162  1.00  0.00    -0.265 N 
HETATM   21  H4  UNL     1      24.537   2.689  53.876  1.00  0.00     0.180 HD
BRANCH  20  22
HETATM   22  S1  UNL     1      26.199   0.876  53.435  1.00  0.00     0.253 S 
HETATM   23  O1  UNL     1      27.084   1.141  54.616  1.00  0.00    -0.201 OA
HETATM   24  O2  UNL     1      27.074   0.690  52.218  1.00  0.00    -0.201 OA
BRANCH  22  25
HETATM   25  C2  UNL     1      25.312  -0.629  53.697  1.00  0.00     0.121 C 
HETATM   26  C1  UNL     1      24.038  -0.318  53.929  1.00  0.00     0.025 C 
ENDBRANCH  22  25
ENDBRANCH  20  22
ENDBRANCH   1  20
TORSDOF 5
ENDMDL
