MODEL 1
REMARK VINA RESULT:      -7.7      0.000      0.000
REMARK  3 active torsions:
REMARK  status: ('A' for Active; 'I' for Inactive)
REMARK    1  A    between atoms: O1_2  and  C2_3 
REMARK    2  A    between atoms: N3_9  and  C6_10 
REMARK    3  A    between atoms: C6_10  and  C7_11 
ROOT
HETATM    1  C2  UNL     1      27.519   0.766  53.700  1.00  0.00     0.075 C 
HETATM    2  C3  UNL     1      26.582  -0.063  54.144  1.00  0.00     0.064 C 
HETATM    3  C4  UNL     1      25.200  -0.419  54.415  1.00  0.00     0.067 A 
HETATM    4  N1  UNL     1      25.049  -1.206  55.380  1.00  0.00    -0.242 NA
HETATM    5  C5  UNL     1      23.871  -1.740  55.917  1.00  0.00     0.255 A 
HETATM    6  N2  UNL     1      22.735  -1.444  55.432  1.00  0.00    -0.169 NA
HETATM    7  N3  UNL     1      22.854  -0.545  54.332  1.00  0.00    -0.286 N 
HETATM    8  C9  UNL     1      23.964   0.065  53.692  1.00  0.00     0.098 A 
HETATM    9  C10 UNL     1      23.508   0.813  52.632  1.00  0.00     0.084 C 
HETATM   10  C11 UNL     1      22.964   1.535  51.606  1.00  0.00    -0.005 C 
HETATM   11  C12 UNL     1      23.799   2.117  50.777  1.00  0.00    -0.025 C 
HETATM   12  C13 UNL     1      25.173   1.894  51.081  1.00  0.00     0.057 C 
HETATM   13  C14 UNL     1      26.080   3.090  51.387  1.00  0.00     0.273 C 
HETATM   14  N4  UNL     1      27.377   2.500  51.883  1.00  0.00     0.089 NA
HETATM   15  C15 UNL     1      27.052   2.037  53.171  1.00  0.00     0.333 C 
HETATM   16  H17 UNL     1      28.025   3.341  51.846  1.00  0.00     0.316 HD
ENDROOT
BRANCH   7  17
HETATM   17  C6  UNL     1      21.617  -0.168  53.623  1.00  0.00     0.174 C 
BRANCH  17  18
HETATM   18  C7  UNL     1      20.527  -1.056  53.982  1.00  0.00     0.006 C 
HETATM   19  C8  UNL     1      19.395  -0.797  53.365  1.00  0.00     0.082 C 
HETATM   20 CL1  UNL     1      17.741  -1.307  53.208  1.00  0.00    -0.097 Cl
ENDBRANCH  17  18
ENDBRANCH   7  17
BRANCH   1  21
HETATM   21  O1  UNL     1      28.869   0.713  53.614  1.00  0.00    -0.358 OA
HETATM   22  C1  UNL     1      29.631  -0.460  53.690  1.00  0.00     0.209 C 
ENDBRANCH   1  21
TORSDOF 3
ENDMDL
MODEL 2
REMARK VINA RESULT:      -7.4      3.763      6.053
REMARK  3 active torsions:
REMARK  status: ('A' for Active; 'I' for Inactive)
REMARK    1  A    between atoms: O1_2  and  C2_3 
REMARK    2  A    between atoms: N3_9  and  C6_10 
REMARK    3  A    between atoms: C6_10  and  C7_11 
ROOT
HETATM    1  C2  UNL     1      20.397  -0.035  52.743  1.00  0.00     0.075 C 
HETATM    2  C3  UNL     1      21.338  -0.239  53.656  1.00  0.00     0.064 C 
HETATM    3  C4  UNL     1      22.724  -0.387  54.066  1.00  0.00     0.067 A 
HETATM    4  N1  UNL     1      22.888  -1.119  55.072  1.00  0.00    -0.242 NA
HETATM    5  C5  UNL     1      24.073  -1.483  55.723  1.00  0.00     0.255 A 
HETATM    6  N2  UNL     1      25.202  -1.070  55.311  1.00  0.00    -0.169 NA
HETATM    7  N3  UNL     1      25.067  -0.237  54.164  1.00  0.00    -0.286 N 
HETATM    8  C9  UNL     1      23.948   0.209  53.412  1.00  0.00     0.098 A 
HETATM    9  C10 UNL     1      24.390   1.052  52.419  1.00  0.00     0.084 C 
HETATM   10  C11 UNL     1      24.918   1.870  51.459  1.00  0.00    -0.005 C 
HETATM   11  C12 UNL     1      24.071   2.510  50.688  1.00  0.00    -0.025 C 
HETATM   12  C13 UNL     1      22.702   2.250  50.983  1.00  0.00     0.057 C 
HETATM   13  C14 UNL     1      21.802   1.636  49.906  1.00  0.00     0.273 C 
HETATM   14  N4  UNL     1      20.513   1.285  50.605  1.00  0.00     0.089 NA
HETATM   15  C15 UNL     1      20.857   0.161  51.378  1.00  0.00     0.333 C 
HETATM   16  H17 UNL     1      19.867   1.097  49.783  1.00  0.00     0.316 HD
ENDROOT
BRANCH   7  17
HETATM   17  C6  UNL     1      26.294   0.373  53.617  1.00  0.00     0.174 C 
BRANCH  17  18
HETATM   18  C7  UNL     1      27.459  -0.049  54.371  1.00  0.00     0.006 C 
HETATM   19  C8  UNL     1      28.487  -0.395  53.627  1.00  0.00     0.082 C 
HETATM   20 CL1  UNL     1      30.126  -0.969  53.689  1.00  0.00    -0.097 Cl
ENDBRANCH  17  18
ENDBRANCH   7  17
BRANCH   1  21
HETATM   21  O1  UNL     1      19.044   0.039  52.775  1.00  0.00    -0.358 OA
HETATM   22  C1  UNL     1      18.186  -1.058  52.920  1.00  0.00     0.209 C 
ENDBRANCH   1  21
TORSDOF 3
ENDMDL
MODEL 3
REMARK VINA RESULT:      -7.2      3.957      6.829
REMARK  3 active torsions:
REMARK  status: ('A' for Active; 'I' for Inactive)
REMARK    1  A    between atoms: O1_2  and  C2_3 
REMARK    2  A    between atoms: N3_9  and  C6_10 
REMARK    3  A    between atoms: C6_10  and  C7_11 
ROOT
HETATM    1  C2  UNL     1      21.472   2.679  50.810  1.00  0.00     0.075 C 
HETATM    2  C3  UNL     1      22.784   2.567  50.636  1.00  0.00     0.064 C 
HETATM    3  C4  UNL     1      24.123   2.257  51.105  1.00  0.00     0.067 A 
HETATM    4  N1  UNL     1      25.033   2.898  50.526  1.00  0.00    -0.242 NA
HETATM    5  C5  UNL     1      26.418   2.858  50.730  1.00  0.00     0.255 A 
HETATM    6  N2  UNL     1      26.929   2.098  51.611  1.00  0.00    -0.169 NA
HETATM    7  N3  UNL     1      25.932   1.351  52.301  1.00  0.00    -0.286 N 
HETATM    8  C9  UNL     1      24.517   1.292  52.198  1.00  0.00     0.098 A 
HETATM    9  C10 UNL     1      24.048   0.348  53.083  1.00  0.00     0.084 C 
HETATM   10  C11 UNL     1      23.672  -0.600  53.993  1.00  0.00    -0.005 C 
HETATM   11  C12 UNL     1      22.403  -0.931  54.020  1.00  0.00    -0.025 C 
HETATM   12  C13 UNL     1      21.599  -0.238  53.070  1.00  0.00     0.057 C 
HETATM   13  C14 UNL     1      20.437   0.633  53.560  1.00  0.00     0.273 C 
HETATM   14  N4  UNL     1      19.955   1.387  52.346  1.00  0.00     0.089 NA
HETATM   15  C15 UNL     1      20.968   2.339  52.131  1.00  0.00     0.333 C 
HETATM   16  H17 UNL     1      19.026   1.773  52.686  1.00  0.00     0.316 HD
ENDROOT
BRANCH   7  17
HETATM   17  C6  UNL     1      26.387   0.373  53.307  1.00  0.00     0.174 C 
BRANCH  17  18
HETATM   18  C7  UNL     1      27.523  -0.383  52.812  1.00  0.00     0.006 C 
HETATM   19  C8  UNL     1      28.549  -0.414  53.635  1.00  0.00     0.082 C 
HETATM   20 CL1  UNL     1      30.163  -1.027  53.832  1.00  0.00    -0.097 Cl
ENDBRANCH  17  18
ENDBRANCH   7  17
BRANCH   1  21
HETATM   21  O1  UNL     1      20.438   3.050  50.018  1.00  0.00    -0.358 OA
HETATM   22  C1  UNL     1      20.122   2.461  48.786  1.00  0.00     0.209 C 
ENDBRANCH   1  21
TORSDOF 3
ENDMDL
MODEL 4
REMARK VINA RESULT:      -7.1      4.342      7.490
REMARK  3 active torsions:
REMARK  status: ('A' for Active; 'I' for Inactive)
REMARK    1  A    between atoms: O1_2  and  C2_3 
REMARK    2  A    between atoms: N3_9  and  C6_10 
REMARK    3  A    between atoms: C6_10  and  C7_11 
ROOT
HETATM    1  C2  UNL     1      19.425  -0.198  52.341  1.00  0.00     0.075 C 
HETATM    2  C3  UNL     1      19.977   0.476  51.339  1.00  0.00     0.064 C 
HETATM    3  C4  UNL     1      20.998   1.344  50.779  1.00  0.00     0.067 A 
HETATM    4  N1  UNL     1      20.607   2.044  49.814  1.00  0.00    -0.242 NA
HETATM    5  C5  UNL     1      21.313   2.985  49.054  1.00  0.00     0.255 A 
HETATM    6  N2  UNL     1      22.532   3.246  49.301  1.00  0.00    -0.169 NA
HETATM    7  N3  UNL     1      23.021   2.478  50.396  1.00  0.00    -0.286 N 
HETATM    8  C9  UNL     1      22.428   1.504  51.241  1.00  0.00     0.098 A 
HETATM    9  C10 UNL     1      23.382   1.036  52.115  1.00  0.00     0.084 C 
HETATM   10  C11 UNL     1      24.390   0.636  52.947  1.00  0.00    -0.005 C 
HETATM   11  C12 UNL     1      24.131  -0.355  53.767  1.00  0.00    -0.025 C 
HETATM   12  C13 UNL     1      22.809  -0.874  53.654  1.00  0.00     0.057 C 
HETATM   13  C14 UNL     1      21.877  -0.834  54.870  1.00  0.00     0.273 C 
HETATM   14  N4  UNL     1      20.519  -1.236  54.354  1.00  0.00     0.089 NA
HETATM   15  C15 UNL     1      20.100  -0.108  53.624  1.00  0.00     0.333 C 
HETATM   16  H17 UNL     1      19.991  -1.421  55.257  1.00  0.00     0.316 HD
ENDROOT
BRANCH   7  17
HETATM   17  C6  UNL     1      24.445   2.626  50.751  1.00  0.00     0.174 C 
BRANCH  17  18
HETATM   18  C7  UNL     1      24.998   3.833  50.164  1.00  0.00     0.006 C 
HETATM   19  C8  UNL     1      26.186   3.673  49.621  1.00  0.00     0.082 C 
HETATM   20 CL1  UNL     1      27.459   4.501  48.778  1.00  0.00    -0.097 Cl
ENDBRANCH  17  18
ENDBRANCH   7  17
BRANCH   1  21
HETATM   21  O1  UNL     1      18.332  -0.988  52.463  1.00  0.00    -0.358 OA
HETATM   22  C1  UNL     1      17.007  -0.533  52.432  1.00  0.00     0.209 C 
ENDBRANCH   1  21
TORSDOF 3
ENDMDL
MODEL 5
REMARK VINA RESULT:      -7.0      3.108      4.959
REMARK  3 active torsions:
REMARK  status: ('A' for Active; 'I' for Inactive)
REMARK    1  A    between atoms: O1_2  and  C2_3 
REMARK    2  A    between atoms: N3_9  and  C6_10 
REMARK    3  A    between atoms: C6_10  and  C7_11 
ROOT
HETATM    1  C2  UNL     1      25.785   3.943  49.656  1.00  0.00     0.075 C 
HETATM    2  C3  UNL     1      24.498   3.757  49.388  1.00  0.00     0.064 C 
HETATM    3  C4  UNL     1      23.281   2.963  49.402  1.00  0.00     0.067 A 
HETATM    4  N1  UNL     1      22.491   3.214  48.459  1.00  0.00    -0.242 NA
HETATM    5  C5  UNL     1      21.250   2.639  48.163  1.00  0.00     0.255 A 
HETATM    6  N2  UNL     1      20.763   1.717  48.888  1.00  0.00    -0.169 NA
HETATM    7  N3  UNL     1      21.629   1.392  49.972  1.00  0.00    -0.286 N 
HETATM    8  C9  UNL     1      22.894   1.886  50.388  1.00  0.00     0.098 A 
HETATM    9  C10 UNL     1      23.259   1.246  51.549  1.00  0.00     0.084 C 
HETATM   10  C11 UNL     1      23.544   0.555  52.694  1.00  0.00    -0.005 C 
HETATM   11  C12 UNL     1      24.625   0.907  53.350  1.00  0.00    -0.025 C 
HETATM   12  C13 UNL     1      25.345   1.982  52.754  1.00  0.00     0.057 C 
HETATM   13  C14 UNL     1      26.795   1.763  52.311  1.00  0.00     0.273 C 
HETATM   14  N4  UNL     1      27.172   2.997  51.530  1.00  0.00     0.089 NA
HETATM   15  C15 UNL     1      26.467   2.845  50.321  1.00  0.00     0.333 C 
HETATM   16  H17 UNL     1      28.227   2.896  51.462  1.00  0.00     0.316 HD
ENDROOT
BRANCH   7  17
HETATM   17  C6  UNL     1      21.160   0.383  50.941  1.00  0.00     0.174 C 
BRANCH  17  18
HETATM   18  C7  UNL     1      19.723   0.470  51.119  1.00  0.00     0.006 C 
HETATM   19  C8  UNL     1      19.253  -0.285  52.088  1.00  0.00     0.082 C 
HETATM   20 CL1  UNL     1      17.797  -0.752  52.915  1.00  0.00    -0.097 Cl
ENDBRANCH  17  18
ENDBRANCH   7  17
BRANCH   1  21
HETATM   21  O1  UNL     1      26.659   4.957  49.453  1.00  0.00    -0.358 OA
HETATM   22  C1  UNL     1      27.724   4.926  48.543  1.00  0.00     0.209 C 
ENDBRANCH   1  21
TORSDOF 3
ENDMDL
MODEL 6
REMARK VINA RESULT:      -7.0      2.775      5.295
REMARK  3 active torsions:
REMARK  status: ('A' for Active; 'I' for Inactive)
REMARK    1  A    between atoms: O1_2  and  C2_3 
REMARK    2  A    between atoms: N3_9  and  C6_10 
REMARK    3  A    between atoms: C6_10  and  C7_11 
ROOT
HETATM    1  C2  UNL     1      26.392   0.322  53.662  1.00  0.00     0.075 C 
HETATM    2  C3  UNL     1      26.452   1.344  52.816  1.00  0.00     0.064 C 
HETATM    3  C4  UNL     1      25.954   2.115  51.690  1.00  0.00     0.067 A 
HETATM    4  N1  UNL     1      26.842   2.735  51.057  1.00  0.00    -0.242 NA
HETATM    5  C5  UNL     1      26.722   3.555  49.929  1.00  0.00     0.255 A 
HETATM    6  N2  UNL     1      25.592   3.761  49.385  1.00  0.00    -0.169 NA
HETATM    7  N3  UNL     1      24.549   3.071  50.067  1.00  0.00    -0.286 N 
HETATM    8  C9  UNL     1      24.528   2.222  51.204  1.00  0.00     0.098 A 
HETATM    9  C10 UNL     1      23.225   1.866  51.467  1.00  0.00     0.084 C 
HETATM   10  C11 UNL     1      21.905   1.559  51.648  1.00  0.00    -0.005 C 
HETATM   11  C12 UNL     1      21.594   0.864  52.717  1.00  0.00    -0.025 C 
HETATM   12  C13 UNL     1      22.708   0.537  53.543  1.00  0.00     0.057 C 
HETATM   13  C14 UNL     1      23.043  -0.936  53.805  1.00  0.00     0.273 C 
HETATM   14  N4  UNL     1      24.379  -0.929  54.505  1.00  0.00     0.089 NA
HETATM   15  C15 UNL     1      25.282  -0.599  53.478  1.00  0.00     0.333 C 
HETATM   16  H17 UNL     1      24.438  -1.926  54.866  1.00  0.00     0.316 HD
ENDROOT
BRANCH   7  17
HETATM   17  C6  UNL     1      23.169   3.275  49.587  1.00  0.00     0.174 C 
BRANCH  17  18
HETATM   18  C7  UNL     1      22.922   4.678  49.312  1.00  0.00     0.006 C 
HETATM   19  C8  UNL     1      22.448   5.353  50.336  1.00  0.00     0.082 C 
HETATM   20 CL1  UNL     1      21.919   6.928  50.848  1.00  0.00    -0.097 Cl
ENDBRANCH  17  18
ENDBRANCH   7  17
BRANCH   1  21
HETATM   21  O1  UNL     1      27.150  -0.091  54.706  1.00  0.00    -0.358 OA
HETATM   22  C1  UNL     1      28.534   0.093  54.812  1.00  0.00     0.209 C 
ENDBRANCH   1  21
TORSDOF 3
ENDMDL
MODEL 7
REMARK VINA RESULT:      -7.0      4.276      7.249
REMARK  3 active torsions:
REMARK  status: ('A' for Active; 'I' for Inactive)
REMARK    1  A    between atoms: O1_2  and  C2_3 
REMARK    2  A    between atoms: N3_9  and  C6_10 
REMARK    3  A    between atoms: C6_10  and  C7_11 
ROOT
HETATM    1  C2  UNL     1      21.981   0.341  52.375  1.00  0.00     0.075 C 
HETATM    2  C3  UNL     1      22.196   1.137  51.334  1.00  0.00     0.064 C 
HETATM    3  C4  UNL     1      22.969   2.133  50.613  1.00  0.00     0.067 A 
HETATM    4  N1  UNL     1      22.287   2.869  49.860  1.00  0.00    -0.242 NA
HETATM    5  C5  UNL     1      22.698   3.925  49.037  1.00  0.00     0.255 A 
HETATM    6  N2  UNL     1      23.918   4.273  48.977  1.00  0.00    -0.169 NA
HETATM    7  N3  UNL     1      24.734   3.468  49.822  1.00  0.00    -0.286 N 
HETATM    8  C9  UNL     1      24.457   2.382  50.694  1.00  0.00     0.098 A 
HETATM    9  C10 UNL     1      25.641   1.934  51.233  1.00  0.00     0.084 C 
HETATM   10  C11 UNL     1      26.861   1.561  51.725  1.00  0.00    -0.005 C 
HETATM   11  C12 UNL     1      26.898   0.490  52.482  1.00  0.00    -0.025 C 
HETATM   12  C13 UNL     1      25.631  -0.134  52.671  1.00  0.00     0.057 C 
HETATM   13  C14 UNL     1      25.064  -0.271  54.089  1.00  0.00     0.273 C 
HETATM   14  N4  UNL     1      23.645  -0.750  53.914  1.00  0.00     0.089 NA
HETATM   15  C15 UNL     1      22.973   0.390  53.436  1.00  0.00     0.333 C 
HETATM   16  H17 UNL     1      23.396  -1.051  54.901  1.00  0.00     0.316 HD
ENDROOT
BRANCH   7  17
HETATM   17  C6  UNL     1      26.189   3.714  49.800  1.00  0.00     0.174 C 
BRANCH  17  18
HETATM   18  C7  UNL     1      26.491   4.950  49.103  1.00  0.00     0.006 C 
HETATM   19  C8  UNL     1      27.733   5.040  48.679  1.00  0.00     0.082 C 
HETATM   20 CL1  UNL     1      28.850   6.069  47.833  1.00  0.00    -0.097 Cl
ENDBRANCH  17  18
ENDBRANCH   7  17
BRANCH   1  21
HETATM   21  O1  UNL     1      21.016  -0.550  52.704  1.00  0.00    -0.358 OA
HETATM   22  C1  UNL     1      19.868  -0.248  53.448  1.00  0.00     0.209 C 
ENDBRANCH   1  21
TORSDOF 3
ENDMDL
MODEL 8
REMARK VINA RESULT:      -6.9      2.336      4.387
REMARK  3 active torsions:
REMARK  status: ('A' for Active; 'I' for Inactive)
REMARK    1  A    between atoms: O1_2  and  C2_3 
REMARK    2  A    between atoms: N3_9  and  C6_10 
REMARK    3  A    between atoms: C6_10  and  C7_11 
ROOT
HETATM    1  C2  UNL     1      25.969   0.476  54.294  1.00  0.00     0.075 C 
HETATM    2  C3  UNL     1      25.425   1.239  53.352  1.00  0.00     0.064 C 
HETATM    3  C4  UNL     1      24.438   1.502  52.320  1.00  0.00     0.067 A 
HETATM    4  N1  UNL     1      24.837   2.264  51.406  1.00  0.00    -0.242 NA
HETATM    5  C5  UNL     1      24.163   2.715  50.266  1.00  0.00     0.255 A 
HETATM    6  N2  UNL     1      22.969   2.354  50.023  1.00  0.00    -0.169 NA
HETATM    7  N3  UNL     1      22.471   1.480  51.033  1.00  0.00    -0.286 N 
HETATM    8  C9  UNL     1      23.034   0.950  52.224  1.00  0.00     0.098 A 
HETATM    9  C10 UNL     1      22.083   0.190  52.863  1.00  0.00     0.084 C 
HETATM   10  C11 UNL     1      21.080  -0.551  53.424  1.00  0.00    -0.005 C 
HETATM   11  C12 UNL     1      21.308  -1.066  54.609  1.00  0.00    -0.025 C 
HETATM   12  C13 UNL     1      22.594  -0.760  55.139  1.00  0.00     0.057 C 
HETATM   13  C14 UNL     1      23.564  -1.901  55.468  1.00  0.00     0.273 C 
HETATM   14  N4  UNL     1      24.881  -1.236  55.780  1.00  0.00     0.089 NA
HETATM   15  C15 UNL     1      25.339  -0.814  54.519  1.00  0.00     0.333 C 
HETATM   16  H17 UNL     1      25.425  -2.034  56.223  1.00  0.00     0.316 HD
ENDROOT
BRANCH   7  17
HETATM   17  C6  UNL     1      21.069   1.035  50.919  1.00  0.00     0.174 C 
BRANCH  17  18
HETATM   18  C7  UNL     1      20.199   2.153  50.604  1.00  0.00     0.006 C 
HETATM   19  C8  UNL     1      19.116   2.219  51.348  1.00  0.00     0.082 C 
HETATM   20 CL1  UNL     1      17.668   3.138  51.630  1.00  0.00    -0.097 Cl
ENDBRANCH  17  18
ENDBRANCH   7  17
BRANCH   1  21
HETATM   21  O1  UNL     1      27.019   0.617  55.137  1.00  0.00    -0.358 OA
HETATM   22  C1  UNL     1      28.331   0.214  54.856  1.00  0.00     0.209 C 
ENDBRANCH   1  21
TORSDOF 3
ENDMDL
MODEL 9
REMARK VINA RESULT:      -6.9      4.063      6.104
REMARK  3 active torsions:
REMARK  status: ('A' for Active; 'I' for Inactive)
REMARK    1  A    between atoms: O1_2  and  C2_3 
REMARK    2  A    between atoms: N3_9  and  C6_10 
REMARK    3  A    between atoms: C6_10  and  C7_11 
ROOT
HETATM    1  C2  UNL     1      21.484   3.291  51.183  1.00  0.00     0.075 C 
HETATM    2  C3  UNL     1      22.025   2.435  52.042  1.00  0.00     0.064 C 
HETATM    3  C4  UNL     1      23.054   1.492  52.445  1.00  0.00     0.067 A 
HETATM    4  N1  UNL     1      22.654   0.596  53.228  1.00  0.00    -0.242 NA
HETATM    5  C5  UNL     1      23.364  -0.467  53.799  1.00  0.00     0.255 A 
HETATM    6  N2  UNL     1      24.597  -0.643  53.549  1.00  0.00    -0.169 NA
HETATM    7  N3  UNL     1      25.097   0.350  52.658  1.00  0.00    -0.286 N 
HETATM    8  C9  UNL     1      24.502   1.466  52.013  1.00  0.00     0.098 A 
HETATM    9  C10 UNL     1      25.468   2.129  51.293  1.00  0.00     0.084 C 
HETATM   10  C11 UNL     1      26.490   2.717  50.601  1.00  0.00    -0.005 C 
HETATM   11  C12 UNL     1      26.226   3.852  49.997  1.00  0.00    -0.025 C 
HETATM   12  C13 UNL     1      24.887   4.306  50.167  1.00  0.00     0.057 C 
HETATM   13  C14 UNL     1      23.995   4.501  48.936  1.00  0.00     0.273 C 
HETATM   14  N4  UNL     1      22.609   4.754  49.474  1.00  0.00     0.089 NA
HETATM   15  C15 UNL     1      22.203   3.489  49.935  1.00  0.00     0.333 C 
HETATM   16  H17 UNL     1      22.105   5.112  48.610  1.00  0.00     0.316 HD
ENDROOT
BRANCH   7  17
HETATM   17  C6  UNL     1      26.535   0.312  52.333  1.00  0.00     0.174 C 
BRANCH  17  18
HETATM   18  C7  UNL     1      27.226  -0.653  53.168  1.00  0.00     0.006 C 
HETATM   19  C8  UNL     1      28.535  -0.522  53.174  1.00  0.00     0.082 C 
HETATM   20 CL1  UNL     1      30.002  -1.182  53.830  1.00  0.00    -0.097 Cl
ENDBRANCH  17  18
ENDBRANCH   7  17
BRANCH   1  21
HETATM   21  O1  UNL     1      20.372   4.065  51.188  1.00  0.00    -0.358 OA
HETATM   22  C1  UNL     1      19.087   3.616  51.519  1.00  0.00     0.209 C 
ENDBRANCH   1  21
TORSDOF 3
ENDMDL
