MODEL 1
REMARK VINA RESULT:      -7.0      0.000      0.000
REMARK  7 active torsions:
REMARK  status: ('A' for Active; 'I' for Inactive)
REMARK    1  A    between atoms: C2_2  and  C4_4 
REMARK    2  A    between atoms: N1_9  and  C8_10 
REMARK    3  A    between atoms: C8_10  and  C9_11 
REMARK    4  A    between atoms: C9_11  and  C10_12 
REMARK    5  A    between atoms: C10_12  and  C11_13 
REMARK    6  A    between atoms: C11_13  and  C12_14 
REMARK    7  A    between atoms: C12_14  and  S1_15 
ROOT
HETATM    1  C4  UNL     1      25.697   4.944  49.698  1.00  0.00     0.135 C 
HETATM    2  C5  UNL     1      24.368   5.161  49.731  1.00  0.00     0.094 C 
HETATM    3  O1  UNL     1      24.235   4.176  50.756  1.00  0.00    -0.373 OA
HETATM    4  C6  UNL     1      23.373   4.328  51.847  1.00  0.00     0.189 C 
HETATM    5  C7  UNL     1      23.020   3.098  52.539  1.00  0.00     0.145 C 
HETATM    6  N1  UNL     1      22.355   2.023  51.918  1.00  0.00    -0.393 N 
HETATM    7  C15 UNL     1      22.593   1.580  50.639  1.00  0.00     0.271 C 
HETATM    8  N2  UNL     1      22.425   2.558  49.564  1.00  0.00    -0.243 N 
HETATM    9  C16 UNL     1      22.305   2.064  48.332  1.00  0.00     0.252 A 
HETATM   10  N3  UNL     1      22.238   3.445  48.322  1.00  0.00    -0.167 N 
HETATM   11  N4  UNL     1      22.334   4.294  47.380  1.00  0.00    -0.178 NA
HETATM   12  C17 UNL     1      22.209   5.735  47.779  1.00  0.00     0.190 C 
HETATM   13  C18 UNL     1      23.128   6.605  46.984  1.00  0.00     0.048 C 
HETATM   14  S2  UNL     1      22.637   5.664  49.550  1.00  0.00    -0.108 SA
ENDROOT
BRANCH   6  15
HETATM   15  C8  UNL     1      22.020   1.016  52.906  1.00  0.00     0.122 C 
BRANCH  15  16
HETATM   16  C9  UNL     1      22.738  -0.251  52.881  1.00  0.00     0.046 C 
BRANCH  16  17
HETATM   17  C10 UNL     1      23.915  -0.424  53.739  1.00  0.00    -0.025 C 
BRANCH  17  18
HETATM   18  C11 UNL     1      25.137  -0.560  53.250  1.00  0.00     0.003 C 
BRANCH  18  19
HETATM   19  C12 UNL     1      26.452  -0.448  53.819  1.00  0.00     0.042 C 
BRANCH  19  20
HETATM   20  S1  UNL     1      28.102  -0.223  53.662  1.00  0.00    -0.148 SA
HETATM   21  C13 UNL     1      29.833  -0.026  53.595  1.00  0.00     0.049 A 
HETATM   22  C14 UNL     1      29.525  -1.311  53.366  1.00  0.00     0.049 A 
ENDBRANCH  19  20
ENDBRANCH  18  19
ENDBRANCH  17  18
ENDBRANCH  16  17
ENDBRANCH  15  16
ENDBRANCH   6  15
BRANCH   1  23
HETATM   23  C2  UNL     1      26.784   5.492  48.938  1.00  0.00    -0.028 C 
HETATM   24  C1  UNL     1      27.191   4.202  49.007  1.00  0.00     0.011 C 
HETATM   25  C3  UNL     1      27.723   6.402  48.179  1.00  0.00     0.016 C 
ENDBRANCH   1  23
TORSDOF 7
ENDMDL
MODEL 2
REMARK VINA RESULT:      -6.7      1.823      2.142
REMARK  7 active torsions:
REMARK  status: ('A' for Active; 'I' for Inactive)
REMARK    1  A    between atoms: C2_2  and  C4_4 
REMARK    2  A    between atoms: N1_9  and  C8_10 
REMARK    3  A    between atoms: C8_10  and  C9_11 
REMARK    4  A    between atoms: C9_11  and  C10_12 
REMARK    5  A    between atoms: C10_12  and  C11_13 
REMARK    6  A    between atoms: C11_13  and  C12_14 
REMARK    7  A    between atoms: C12_14  and  S1_15 
ROOT
HETATM    1  C4  UNL     1      25.196   4.427  50.156  1.00  0.00     0.135 C 
HETATM    2  C5  UNL     1      24.184   4.784  50.971  1.00  0.00     0.094 C 
HETATM    3  O1  UNL     1      24.027   3.421  51.368  1.00  0.00    -0.373 OA
HETATM    4  C6  UNL     1      23.755   3.042  52.686  1.00  0.00     0.189 C 
HETATM    5  C7  UNL     1      23.193   1.709  52.848  1.00  0.00     0.145 C 
HETATM    6  N1  UNL     1      21.969   1.309  52.277  1.00  0.00    -0.393 N 
HETATM    7  C15 UNL     1      21.532   1.659  51.022  1.00  0.00     0.271 C 
HETATM    8  N2  UNL     1      21.417   3.091  50.743  1.00  0.00    -0.243 N 
HETATM    9  C16 UNL     1      20.674   3.428  49.689  1.00  0.00     0.252 A 
HETATM   10  N3  UNL     1      21.188   4.549  50.312  1.00  0.00    -0.167 N 
HETATM   11  N4  UNL     1      21.287   5.761  49.938  1.00  0.00    -0.178 NA
HETATM   12  C17 UNL     1      21.922   6.702  50.918  1.00  0.00     0.190 C 
HETATM   13  C18 UNL     1      22.772   7.720  50.228  1.00  0.00     0.048 C 
HETATM   14  S2  UNL     1      22.879   5.554  51.963  1.00  0.00    -0.108 SA
ENDROOT
BRANCH   6  15
HETATM   15  C8  UNL     1      21.621  -0.019  52.743  1.00  0.00     0.122 C 
BRANCH  15  16
HETATM   16  C9  UNL     1      21.498  -0.245  54.176  1.00  0.00     0.046 C 
BRANCH  16  17
HETATM   17  C10 UNL     1      22.224  -1.362  54.790  1.00  0.00    -0.025 C 
BRANCH  17  18
HETATM   18  C11 UNL     1      23.429  -1.220  55.319  1.00  0.00     0.003 C 
BRANCH  18  19
HETATM   19  C12 UNL     1      24.732  -0.972  54.767  1.00  0.00     0.042 C 
BRANCH  19  20
HETATM   20  S1  UNL     1      25.742  -0.683  53.465  1.00  0.00    -0.148 SA
HETATM   21  C13 UNL     1      26.830  -0.297  52.159  1.00  0.00     0.049 A 
HETATM   22  C14 UNL     1      27.510  -0.925  53.130  1.00  0.00     0.049 A 
ENDBRANCH  19  20
ENDBRANCH  18  19
ENDBRANCH  17  18
ENDBRANCH  16  17
ENDBRANCH  15  16
ENDBRANCH   6  15
BRANCH   1  23
HETATM   23  C2  UNL     1      26.065   5.141  49.265  1.00  0.00    -0.028 C 
HETATM   24  C1  UNL     1      24.873   5.436  48.694  1.00  0.00     0.011 C 
HETATM   25  C3  UNL     1      27.259   5.748  48.564  1.00  0.00     0.016 C 
ENDBRANCH   1  23
TORSDOF 7
ENDMDL
MODEL 3
REMARK VINA RESULT:      -6.6      2.172      3.562
REMARK  7 active torsions:
REMARK  status: ('A' for Active; 'I' for Inactive)
REMARK    1  A    between atoms: C2_2  and  C4_4 
REMARK    2  A    between atoms: N1_9  and  C8_10 
REMARK    3  A    between atoms: C8_10  and  C9_11 
REMARK    4  A    between atoms: C9_11  and  C10_12 
REMARK    5  A    between atoms: C10_12  and  C11_13 
REMARK    6  A    between atoms: C11_13  and  C12_14 
REMARK    7  A    between atoms: C12_14  and  S1_15 
ROOT
HETATM    1  C4  UNL     1      22.133   3.950  47.844  1.00  0.00     0.135 C 
HETATM    2  C5  UNL     1      23.051   3.567  48.753  1.00  0.00     0.094 C 
HETATM    3  O1  UNL     1      22.060   2.783  49.419  1.00  0.00    -0.373 OA
HETATM    4  C6  UNL     1      22.327   1.518  49.952  1.00  0.00     0.189 C 
HETATM    5  C7  UNL     1      21.384   1.054  50.958  1.00  0.00     0.145 C 
HETATM    6  N1  UNL     1      21.151   1.729  52.173  1.00  0.00    -0.393 N 
HETATM    7  C15 UNL     1      21.083   3.094  52.316  1.00  0.00     0.271 C 
HETATM    8  N2  UNL     1      22.257   3.858  51.893  1.00  0.00    -0.243 N 
HETATM    9  C16 UNL     1      22.341   5.108  52.348  1.00  0.00     0.252 A 
HETATM   10  N3  UNL     1      23.425   4.796  51.548  1.00  0.00    -0.167 N 
HETATM   11  N4  UNL     1      24.308   5.522  50.991  1.00  0.00    -0.178 NA
HETATM   12  C17 UNL     1      25.342   4.796  50.182  1.00  0.00     0.190 C 
HETATM   13  C18 UNL     1      25.720   5.567  48.959  1.00  0.00     0.048 C 
HETATM   14  S2  UNL     1      24.483   3.231  49.810  1.00  0.00    -0.108 SA
ENDROOT
BRANCH   6  15
HETATM   15  C8  UNL     1      20.271   0.939  53.013  1.00  0.00     0.122 C 
BRANCH  15  16
HETATM   16  C9  UNL     1      20.659  -0.426  53.338  1.00  0.00     0.046 C 
BRANCH  16  17
HETATM   17  C10 UNL     1      21.492  -0.674  54.518  1.00  0.00    -0.025 C 
BRANCH  17  18
HETATM   18  C11 UNL     1      22.796  -0.881  54.436  1.00  0.00     0.003 C 
BRANCH  18  19
HETATM   19  C12 UNL     1      23.800  -0.524  53.472  1.00  0.00     0.042 C 
BRANCH  19  20
HETATM   20  S1  UNL     1      25.364  -0.077  53.081  1.00  0.00    -0.148 SA
HETATM   21  C13 UNL     1      27.026   0.337  52.759  1.00  0.00     0.049 A 
HETATM   22  C14 UNL     1      26.792  -0.913  52.334  1.00  0.00     0.049 A 
ENDBRANCH  19  20
ENDBRANCH  18  19
ENDBRANCH  17  18
ENDBRANCH  16  17
ENDBRANCH  15  16
ENDBRANCH   6  15
BRANCH   1  23
HETATM   23  C2  UNL     1      22.161   4.798  46.687  1.00  0.00    -0.028 C 
HETATM   24  C1  UNL     1      21.919   3.609  46.084  1.00  0.00     0.011 C 
HETATM   25  C3  UNL     1      22.260   5.970  45.737  1.00  0.00     0.016 C 
ENDBRANCH   1  23
TORSDOF 7
ENDMDL
MODEL 4
REMARK VINA RESULT:      -6.6      1.625      2.089
REMARK  7 active torsions:
REMARK  status: ('A' for Active; 'I' for Inactive)
REMARK    1  A    between atoms: C2_2  and  C4_4 
REMARK    2  A    between atoms: N1_9  and  C8_10 
REMARK    3  A    between atoms: C8_10  and  C9_11 
REMARK    4  A    between atoms: C9_11  and  C10_12 
REMARK    5  A    between atoms: C10_12  and  C11_13 
REMARK    6  A    between atoms: C11_13  and  C12_14 
REMARK    7  A    between atoms: C12_14  and  S1_15 
ROOT
HETATM    1  C4  UNL     1      26.142   5.313  49.275  1.00  0.00     0.135 C 
HETATM    2  C5  UNL     1      25.069   5.730  49.976  1.00  0.00     0.094 C 
HETATM    3  O1  UNL     1      24.746   4.373  50.282  1.00  0.00    -0.373 OA
HETATM    4  C6  UNL     1      24.277   3.970  51.536  1.00  0.00     0.189 C 
HETATM    5  C7  UNL     1      23.586   2.689  51.561  1.00  0.00     0.145 C 
HETATM    6  N1  UNL     1      22.415   2.426  50.825  1.00  0.00    -0.393 N 
HETATM    7  C15 UNL     1      22.172   2.863  49.545  1.00  0.00     0.271 C 
HETATM    8  N2  UNL     1      22.217   4.309  49.325  1.00  0.00    -0.243 N 
HETATM    9  C16 UNL     1      21.647   4.753  48.206  1.00  0.00     0.252 A 
HETATM   10  N3  UNL     1      22.172   5.798  48.943  1.00  0.00    -0.167 N 
HETATM   11  N4  UNL     1      22.422   7.009  48.645  1.00  0.00    -0.178 NA
HETATM   12  C17 UNL     1      23.006   7.849  49.741  1.00  0.00     0.190 C 
HETATM   13  C18 UNL     1      24.021   8.810  49.213  1.00  0.00     0.048 C 
HETATM   14  S2  UNL     1      23.720   6.578  50.837  1.00  0.00    -0.108 SA
ENDROOT
BRANCH   6  15
HETATM   15  C8  UNL     1      21.896   1.118  51.177  1.00  0.00     0.122 C 
BRANCH  15  16
HETATM   16  C9  UNL     1      21.440   0.894  52.542  1.00  0.00     0.046 C 
BRANCH  16  17
HETATM   17  C10 UNL     1      21.466  -0.466  53.091  1.00  0.00    -0.025 C 
BRANCH  17  18
HETATM   18  C11 UNL     1      22.563  -1.009  53.591  1.00  0.00     0.003 C 
BRANCH  18  19
HETATM   19  C12 UNL     1      23.919  -0.554  53.739  1.00  0.00     0.042 C 
BRANCH  19  20
HETATM   20  S1  UNL     1      25.451  -0.292  53.123  1.00  0.00    -0.148 SA
HETATM   21  C13 UNL     1      27.087  -0.036  52.577  1.00  0.00     0.049 A 
HETATM   22  C14 UNL     1      26.849  -1.353  52.658  1.00  0.00     0.049 A 
ENDBRANCH  19  20
ENDBRANCH  18  19
ENDBRANCH  17  18
ENDBRANCH  16  17
ENDBRANCH  15  16
ENDBRANCH   6  15
BRANCH   1  23
HETATM   23  C2  UNL     1      27.175   5.979  48.534  1.00  0.00    -0.028 C 
HETATM   24  C1  UNL     1      27.734   4.749  48.638  1.00  0.00     0.011 C 
HETATM   25  C3  UNL     1      28.017   6.985  47.785  1.00  0.00     0.016 C 
ENDBRANCH   1  23
TORSDOF 7
ENDMDL
MODEL 5
REMARK VINA RESULT:      -6.5      3.083      6.542
REMARK  7 active torsions:
REMARK  status: ('A' for Active; 'I' for Inactive)
REMARK    1  A    between atoms: C2_2  and  C4_4 
REMARK    2  A    between atoms: N1_9  and  C8_10 
REMARK    3  A    between atoms: C8_10  and  C9_11 
REMARK    4  A    between atoms: C9_11  and  C10_12 
REMARK    5  A    between atoms: C10_12  and  C11_13 
REMARK    6  A    between atoms: C11_13  and  C12_14 
REMARK    7  A    between atoms: C12_14  and  S1_15 
ROOT
HETATM    1  C4  UNL     1      23.962   1.398  52.153  1.00  0.00     0.135 C 
HETATM    2  C5  UNL     1      23.375   1.865  51.034  1.00  0.00     0.094 C 
HETATM    3  O1  UNL     1      24.443   2.799  50.867  1.00  0.00    -0.373 OA
HETATM    4  C6  UNL     1      24.995   3.103  49.619  1.00  0.00     0.189 C 
HETATM    5  C7  UNL     1      25.735   4.354  49.552  1.00  0.00     0.145 C 
HETATM    6  N1  UNL     1      25.157   5.611  49.818  1.00  0.00    -0.393 N 
HETATM    7  C15 UNL     1      24.242   5.865  50.811  1.00  0.00     0.271 C 
HETATM    8  N2  UNL     1      23.004   5.086  50.778  1.00  0.00    -0.243 N 
HETATM    9  C16 UNL     1      21.989   5.563  51.499  1.00  0.00     0.252 A 
HETATM   10  N3  UNL     1      21.632   4.395  50.851  1.00  0.00    -0.167 N 
HETATM   11  N4  UNL     1      20.653   3.599  51.008  1.00  0.00    -0.178 NA
HETATM   12  C17 UNL     1      20.615   2.412  50.092  1.00  0.00     0.190 C 
HETATM   13  C18 UNL     1      20.110   1.194  50.794  1.00  0.00     0.048 C 
HETATM   14  S2  UNL     1      22.364   2.281  49.590  1.00  0.00    -0.108 SA
ENDROOT
BRANCH   6  15
HETATM   15  C8  UNL     1      26.112   6.663  49.525  1.00  0.00     0.122 C 
BRANCH  15  16
HETATM   16  C9  UNL     1      26.860   6.597  48.277  1.00  0.00     0.046 C 
BRANCH  16  17
HETATM   17  C10 UNL     1      28.322   6.707  48.311  1.00  0.00    -0.025 C 
BRANCH  17  18
HETATM   18  C11 UNL     1      29.116   5.654  48.207  1.00  0.00     0.003 C 
BRANCH  18  19
HETATM   19  C12 UNL     1      30.512   5.488  47.906  1.00  0.00     0.042 C 
BRANCH  19  20
HETATM   20  S1  UNL     1      31.806   4.542  47.429  1.00  0.00    -0.148 SA
HETATM   21  C13 UNL     1      33.132   3.490  47.012  1.00  0.00     0.049 A 
HETATM   22  C14 UNL     1      31.990   2.970  46.539  1.00  0.00     0.049 A 
ENDBRANCH  19  20
ENDBRANCH  18  19
ENDBRANCH  17  18
ENDBRANCH  16  17
ENDBRANCH  15  16
ENDBRANCH   6  15
BRANCH   1  23
HETATM   23  C2  UNL     1      23.633   0.377  53.106  1.00  0.00    -0.028 C 
HETATM   24  C1  UNL     1      24.947   0.533  53.395  1.00  0.00     0.011 C 
HETATM   25  C3  UNL     1      22.929  -0.663  53.948  1.00  0.00     0.016 C 
ENDBRANCH   1  23
TORSDOF 7
ENDMDL
MODEL 6
REMARK VINA RESULT:      -6.4      3.249      5.381
REMARK  7 active torsions:
REMARK  status: ('A' for Active; 'I' for Inactive)
REMARK    1  A    between atoms: C2_2  and  C4_4 
REMARK    2  A    between atoms: N1_9  and  C8_10 
REMARK    3  A    between atoms: C8_10  and  C9_11 
REMARK    4  A    between atoms: C9_11  and  C10_12 
REMARK    5  A    between atoms: C10_12  and  C11_13 
REMARK    6  A    between atoms: C11_13  and  C12_14 
REMARK    7  A    between atoms: C12_14  and  S1_15 
ROOT
HETATM    1  C4  UNL     1      23.622   1.184  52.320  1.00  0.00     0.135 C 
HETATM    2  C5  UNL     1      23.310   2.378  51.780  1.00  0.00     0.094 C 
HETATM    3  O1  UNL     1      21.922   2.053  51.870  1.00  0.00    -0.373 OA
HETATM    4  C6  UNL     1      20.948   2.984  52.243  1.00  0.00     0.189 C 
HETATM    5  C7  UNL     1      19.584   2.645  51.865  1.00  0.00     0.145 C 
HETATM    6  N1  UNL     1      19.172   2.462  50.531  1.00  0.00    -0.393 N 
HETATM    7  C15 UNL     1      19.910   1.833  49.557  1.00  0.00     0.271 C 
HETATM    8  N2  UNL     1      21.235   2.387  49.276  1.00  0.00    -0.243 N 
HETATM    9  C16 UNL     1      21.793   2.021  48.122  1.00  0.00     0.252 A 
HETATM   10  N3  UNL     1      22.619   2.880  48.824  1.00  0.00    -0.167 N 
HETATM   11  N4  UNL     1      23.852   3.167  48.698  1.00  0.00    -0.178 NA
HETATM   12  C17 UNL     1      24.398   4.164  49.676  1.00  0.00     0.190 C 
HETATM   13  C18 UNL     1      25.796   3.826  50.080  1.00  0.00     0.048 C 
HETATM   14  S2  UNL     1      23.200   4.030  51.045  1.00  0.00    -0.108 SA
ENDROOT
BRANCH   6  15
HETATM   15  C8  UNL     1      17.735   2.280  50.481  1.00  0.00     0.122 C 
BRANCH  15  16
HETATM   16  C9  UNL     1      17.110   1.396  51.454  1.00  0.00     0.046 C 
BRANCH  16  17
HETATM   17  C10 UNL     1      17.186  -0.055  51.257  1.00  0.00    -0.025 C 
BRANCH  17  18
HETATM   18  C11 UNL     1      17.421  -0.896  52.251  1.00  0.00     0.003 C 
BRANCH  18  19
HETATM   19  C12 UNL     1      18.561  -1.149  53.089  1.00  0.00     0.042 C 
BRANCH  19  20
HETATM   20  S1  UNL     1      19.968  -0.645  53.841  1.00  0.00    -0.148 SA
HETATM   21  C13 UNL     1      21.398  -0.163  54.713  1.00  0.00     0.049 A 
HETATM   22  C14 UNL     1      21.499  -1.458  54.380  1.00  0.00     0.049 A 
ENDBRANCH  19  20
ENDBRANCH  18  19
ENDBRANCH  17  18
ENDBRANCH  16  17
ENDBRANCH  15  16
ENDBRANCH   6  15
BRANCH   1  23
HETATM   23  C2  UNL     1      24.852   0.528  52.660  1.00  0.00    -0.028 C 
HETATM   24  C1  UNL     1      25.032   1.693  53.327  1.00  0.00     0.011 C 
HETATM   25  C3  UNL     1      25.997  -0.450  52.794  1.00  0.00     0.016 C 
ENDBRANCH   1  23
TORSDOF 7
ENDMDL
MODEL 7
REMARK VINA RESULT:      -6.1      2.300      3.570
REMARK  7 active torsions:
REMARK  status: ('A' for Active; 'I' for Inactive)
REMARK    1  A    between atoms: C2_2  and  C4_4 
REMARK    2  A    between atoms: N1_9  and  C8_10 
REMARK    3  A    between atoms: C8_10  and  C9_11 
REMARK    4  A    between atoms: C9_11  and  C10_12 
REMARK    5  A    between atoms: C10_12  and  C11_13 
REMARK    6  A    between atoms: C11_13  and  C12_14 
REMARK    7  A    between atoms: C12_14  and  S1_15 
ROOT
HETATM    1  C4  UNL     1      27.450   5.939  48.317  1.00  0.00     0.135 C 
HETATM    2  C5  UNL     1      26.484   6.337  49.168  1.00  0.00     0.094 C 
HETATM    3  O1  UNL     1      25.894   5.038  49.101  1.00  0.00    -0.373 OA
HETATM    4  C6  UNL     1      25.355   4.392  50.217  1.00  0.00     0.189 C 
HETATM    5  C7  UNL     1      24.420   3.315  49.924  1.00  0.00     0.145 C 
HETATM    6  N1  UNL     1      23.219   3.504  49.213  1.00  0.00    -0.393 N 
HETATM    7  C15 UNL     1      23.069   4.327  48.122  1.00  0.00     0.271 C 
HETATM    8  N2  UNL     1      23.404   5.739  48.314  1.00  0.00    -0.243 N 
HETATM    9  C16 UNL     1      22.933   6.585  47.398  1.00  0.00     0.252 A 
HETATM   10  N3  UNL     1      23.659   7.254  48.366  1.00  0.00    -0.167 N 
HETATM   11  N4  UNL     1      24.148   8.428  48.404  1.00  0.00    -0.178 NA
HETATM   12  C17 UNL     1      24.890   8.791  49.656  1.00  0.00     0.190 C 
HETATM   13  C18 UNL     1      26.078   9.648  49.359  1.00  0.00     0.048 C 
HETATM   14  S2  UNL     1      25.334   7.147  50.309  1.00  0.00    -0.108 SA
ENDROOT
BRANCH   6  15
HETATM   15  C8  UNL     1      22.448   2.276  49.215  1.00  0.00     0.122 C 
BRANCH  15  16
HETATM   16  C9  UNL     1      21.614   1.979  50.371  1.00  0.00     0.046 C 
BRANCH  16  17
HETATM   17  C10 UNL     1      21.622   0.624  50.932  1.00  0.00    -0.025 C 
BRANCH  17  18
HETATM   18  C11 UNL     1      22.083   0.360  52.144  1.00  0.00     0.003 C 
BRANCH  18  19
HETATM   19  C12 UNL     1      23.334   0.607  52.806  1.00  0.00     0.042 C 
BRANCH  19  20
HETATM   20  S1  UNL     1      24.942   1.068  52.777  1.00  0.00    -0.148 SA
HETATM   21  C13 UNL     1      26.586   1.643  52.709  1.00  0.00     0.049 A 
HETATM   22  C14 UNL     1      25.997   2.118  53.817  1.00  0.00     0.049 A 
ENDBRANCH  19  20
ENDBRANCH  18  19
ENDBRANCH  17  18
ENDBRANCH  16  17
ENDBRANCH  15  16
ENDBRANCH   6  15
BRANCH   1  23
HETATM   23  C2  UNL     1      28.596   6.576  47.733  1.00  0.00    -0.028 C 
HETATM   24  C1  UNL     1      29.196   5.481  48.258  1.00  0.00     0.011 C 
HETATM   25  C3  UNL     1      29.534   7.516  47.012  1.00  0.00     0.016 C 
ENDBRANCH   1  23
TORSDOF 7
ENDMDL
MODEL 8
REMARK VINA RESULT:      -6.1      6.389      9.836
REMARK  7 active torsions:
REMARK  status: ('A' for Active; 'I' for Inactive)
REMARK    1  A    between atoms: C2_2  and  C4_4 
REMARK    2  A    between atoms: N1_9  and  C8_10 
REMARK    3  A    between atoms: C8_10  and  C9_11 
REMARK    4  A    between atoms: C9_11  and  C10_12 
REMARK    5  A    between atoms: C10_12  and  C11_13 
REMARK    6  A    between atoms: C11_13  and  C12_14 
REMARK    7  A    between atoms: C12_14  and  S1_15 
ROOT
HETATM    1  C4  UNL     1      31.921   3.946  47.246  1.00  0.00     0.135 C 
HETATM    2  C5  UNL     1      32.688   5.017  46.962  1.00  0.00     0.094 C 
HETATM    3  O1  UNL     1      31.946   5.795  47.903  1.00  0.00    -0.373 OA
HETATM    4  C6  UNL     1      32.546   6.726  48.756  1.00  0.00     0.189 C 
HETATM    5  C7  UNL     1      31.649   7.726  49.316  1.00  0.00     0.145 C 
HETATM    6  N1  UNL     1      30.912   8.633  48.529  1.00  0.00    -0.393 N 
HETATM    7  C15 UNL     1      30.302   8.329  47.337  1.00  0.00     0.271 C 
HETATM    8  N2  UNL     1      31.161   7.805  46.274  1.00  0.00    -0.243 N 
HETATM    9  C16 UNL     1      30.661   7.846  45.039  1.00  0.00     0.252 A 
HETATM   10  N3  UNL     1      31.932   7.300  45.043  1.00  0.00    -0.167 N 
HETATM   11  N4  UNL     1      32.574   6.634  44.171  1.00  0.00    -0.178 NA
HETATM   12  C17 UNL     1      33.959   6.206  44.559  1.00  0.00     0.190 C 
HETATM   13  C18 UNL     1      34.280   4.846  44.029  1.00  0.00     0.048 C 
HETATM   14  S2  UNL     1      33.864   6.265  46.380  1.00  0.00    -0.108 SA
ENDROOT
BRANCH   6  15
HETATM   15  C8  UNL     1      30.234   9.588  49.385  1.00  0.00     0.122 C 
BRANCH  15  16
HETATM   16  C9  UNL     1      28.828   9.873  49.133  1.00  0.00     0.046 C 
BRANCH  16  17
HETATM   17  C10 UNL     1      27.802   9.075  49.812  1.00  0.00    -0.025 C 
BRANCH  17  18
HETATM   18  C11 UNL     1      26.999   8.250  49.161  1.00  0.00     0.003 C 
BRANCH  18  19
HETATM   19  C12 UNL     1      26.139   7.173  49.570  1.00  0.00     0.042 C 
BRANCH  19  20
HETATM   20  S1  UNL     1      25.762   5.544  49.638  1.00  0.00    -0.148 SA
HETATM   21  C13 UNL     1      25.366   3.847  49.604  1.00  0.00     0.049 A 
HETATM   22  C14 UNL     1      26.676   4.000  49.362  1.00  0.00     0.049 A 
ENDBRANCH  19  20
ENDBRANCH  18  19
ENDBRANCH  17  18
ENDBRANCH  16  17
ENDBRANCH  15  16
ENDBRANCH   6  15
BRANCH   1  23
HETATM   23  C2  UNL     1      31.884   2.589  46.783  1.00  0.00    -0.028 C 
HETATM   24  C1  UNL     1      33.207   2.693  47.054  1.00  0.00     0.011 C 
HETATM   25  C3  UNL     1      31.462   1.238  46.252  1.00  0.00     0.016 C 
ENDBRANCH   1  23
TORSDOF 7
ENDMDL
MODEL 9
REMARK VINA RESULT:      -5.9      3.016      4.161
REMARK  7 active torsions:
REMARK  status: ('A' for Active; 'I' for Inactive)
REMARK    1  A    between atoms: C2_2  and  C4_4 
REMARK    2  A    between atoms: N1_9  and  C8_10 
REMARK    3  A    between atoms: C8_10  and  C9_11 
REMARK    4  A    between atoms: C9_11  and  C10_12 
REMARK    5  A    between atoms: C10_12  and  C11_13 
REMARK    6  A    between atoms: C11_13  and  C12_14 
REMARK    7  A    between atoms: C12_14  and  S1_15 
ROOT
HETATM    1  C4  UNL     1      25.510   5.086  49.551  1.00  0.00     0.135 C 
HETATM    2  C5  UNL     1      24.647   6.017  50.005  1.00  0.00     0.094 C 
HETATM    3  O1  UNL     1      23.695   4.991  50.288  1.00  0.00    -0.373 OA
HETATM    4  C6  UNL     1      22.895   4.995  51.435  1.00  0.00     0.189 C 
HETATM    5  C7  UNL     1      21.702   4.164  51.367  1.00  0.00     0.145 C 
HETATM    6  N1  UNL     1      20.678   4.354  50.418  1.00  0.00    -0.393 N 
HETATM    7  C15 UNL     1      20.876   4.690  49.101  1.00  0.00     0.271 C 
HETATM    8  N2  UNL     1      21.611   5.929  48.842  1.00  0.00    -0.243 N 
HETATM    9  C16 UNL     1      21.498   6.436  47.615  1.00  0.00     0.252 A 
HETATM   10  N3  UNL     1      22.314   7.225  48.404  1.00  0.00    -0.167 N 
HETATM   11  N4  UNL     1      23.134   8.154  48.118  1.00  0.00    -0.178 NA
HETATM   12  C17 UNL     1      23.849   8.780  49.279  1.00  0.00     0.190 C 
HETATM   13  C18 UNL     1      25.262   9.121  48.932  1.00  0.00     0.048 C 
HETATM   14  S2  UNL     1      23.713   7.472  50.543  1.00  0.00    -0.108 SA
ENDROOT
BRANCH   6  15
HETATM   15  C8  UNL     1      19.570   3.464  50.706  1.00  0.00     0.122 C 
BRANCH  15  16
HETATM   16  C9  UNL     1      19.287   2.381  49.776  1.00  0.00     0.046 C 
BRANCH  16  17
HETATM   17  C10 UNL     1      19.824   1.044  50.047  1.00  0.00    -0.025 C 
BRANCH  17  18
HETATM   18  C11 UNL     1      19.940   0.561  51.274  1.00  0.00     0.003 C 
BRANCH  18  19
HETATM   19  C12 UNL     1      21.024   0.491  52.215  1.00  0.00     0.042 C 
BRANCH  19  20
HETATM   20  S1  UNL     1      21.849  -0.288  53.444  1.00  0.00    -0.148 SA
HETATM   21  C13 UNL     1      22.639  -1.059  54.793  1.00  0.00     0.049 A 
HETATM   22  C14 UNL     1      21.565  -1.780  54.440  1.00  0.00     0.049 A 
ENDBRANCH  19  20
ENDBRANCH  18  19
ENDBRANCH  17  18
ENDBRANCH  16  17
ENDBRANCH  15  16
ENDBRANCH   6  15
BRANCH   1  23
HETATM   23  C2  UNL     1      26.839   5.130  49.011  1.00  0.00    -0.028 C 
HETATM   24  C1  UNL     1      26.805   3.836  49.409  1.00  0.00     0.011 C 
HETATM   25  C3  UNL     1      28.142   5.552  48.371  1.00  0.00     0.016 C 
ENDBRANCH   1  23
TORSDOF 7
ENDMDL
