MODEL 1
REMARK VINA RESULT:      -7.9      0.000      0.000
REMARK  4 active torsions:
REMARK  status: ('A' for Active; 'I' for Inactive)
REMARK    1  A    between atoms: C2_2  and  C3_3 
REMARK    2  A    between atoms: C3_3  and  N1_5 
REMARK    3  A    between atoms: C5_6  and  O1_7 
REMARK    4  A    between atoms: N5_18  and  C13_19 
ROOT
HETATM    1  N1  UNL     1      22.864   1.673  52.614  1.00  0.00    -0.332 N 
HETATM    2  C5  UNL     1      23.060   0.333  53.168  1.00  0.00     0.166 C 
HETATM    3  C7  UNL     1      24.373   0.034  53.225  1.00  0.00     0.079 C 
HETATM    4  C8  UNL     1      25.265   0.673  52.153  1.00  0.00     0.100 C 
HETATM    5  C9  UNL     1      25.319   2.070  52.773  1.00  0.00     0.096 A 
HETATM    6  C10 UNL     1      26.379   2.307  53.741  1.00  0.00     0.185 C 
HETATM    7  N2  UNL     1      27.121   1.209  54.284  1.00  0.00    -0.281 NA
HETATM    8  C11 UNL     1      26.986   0.210  55.138  1.00  0.00     0.217 C 
HETATM    9  N3  UNL     1      25.881  -0.742  55.158  1.00  0.00    -0.294 N 
HETATM   10  N4  UNL     1      24.675  -0.803  54.373  1.00  0.00    -0.300 N 
HETATM   11  C12 UNL     1      23.937   2.643  52.899  1.00  0.00     0.220 A 
HETATM   12  N5  UNL     1      24.852   3.097  51.915  1.00  0.00    -0.341 N 
HETATM   13  H18 UNL     1      25.773  -1.567  55.775  1.00  0.00     0.187 HD
HETATM   14  H19 UNL     1      23.846  -1.405  54.488  1.00  0.00     0.186 HD
ENDROOT
BRANCH  12  15
HETATM   15  C13 UNL     1      25.497   3.788  50.821  1.00  0.00     0.032 A 
HETATM   16  C14 UNL     1      26.584   3.395  50.072  1.00  0.00     0.029 A 
HETATM   17  C15 UNL     1      27.025   4.232  49.069  1.00  0.00     0.002 A 
HETATM   18  C16 UNL     1      26.464   5.434  48.754  1.00  0.00     0.000 A 
HETATM   19  C17 UNL     1      25.383   5.832  49.494  1.00  0.00     0.002 A 
HETATM   20  C18 UNL     1      24.913   5.021  50.506  1.00  0.00     0.029 A 
ENDBRANCH  12  15
BRANCH   1  21
HETATM   21  C3  UNL     1      21.594   1.695  51.918  1.00  0.00     0.084 C 
HETATM   22  C4  UNL     1      21.594   0.916  50.624  1.00  0.00     0.032 C 
BRANCH  21  23
HETATM   23  C2  UNL     1      21.117   3.097  51.636  1.00  0.00     0.020 C 
HETATM   24  C1  UNL     1      21.435   3.581  50.268  1.00  0.00     0.007 C 
ENDBRANCH  21  23
ENDBRANCH   1  21
BRANCH   2  25
HETATM   25  O1  UNL     1      22.306  -0.702  53.648  1.00  0.00    -0.339 OA
HETATM   26  C6  UNL     1      21.349  -0.487  54.656  1.00  0.00     0.211 C 
ENDBRANCH   2  25
TORSDOF 4
ENDMDL
MODEL 2
REMARK VINA RESULT:      -7.6      2.205      6.071
REMARK  4 active torsions:
REMARK  status: ('A' for Active; 'I' for Inactive)
REMARK    1  A    between atoms: C2_2  and  C3_3 
REMARK    2  A    between atoms: C3_3  and  N1_5 
REMARK    3  A    between atoms: C5_6  and  O1_7 
REMARK    4  A    between atoms: N5_18  and  C13_19 
ROOT
HETATM    1  N1  UNL     1      25.512   1.504  53.198  1.00  0.00    -0.332 N 
HETATM    2  C5  UNL     1      26.457   2.092  52.249  1.00  0.00     0.166 C 
HETATM    3  C7  UNL     1      25.798   2.720  51.255  1.00  0.00     0.079 C 
HETATM    4  C8  UNL     1      24.426   2.145  50.878  1.00  0.00     0.100 C 
HETATM    5  C9  UNL     1      23.656   2.721  52.067  1.00  0.00     0.096 A 
HETATM    6  C10 UNL     1      23.102   4.056  51.893  1.00  0.00     0.185 C 
HETATM    7  N2  UNL     1      23.516   4.873  50.793  1.00  0.00    -0.281 NA
HETATM    8  C11 UNL     1      24.551   5.585  50.384  1.00  0.00     0.217 C 
HETATM    9  N3  UNL     1      25.934   5.121  50.346  1.00  0.00    -0.294 N 
HETATM   10  N4  UNL     1      26.527   3.888  50.792  1.00  0.00    -0.300 N 
HETATM   11  C12 UNL     1      24.238   2.227  53.359  1.00  0.00     0.220 A 
HETATM   12  N5  UNL     1      23.004   1.742  52.857  1.00  0.00    -0.341 N 
HETATM   13  H18 UNL     1      26.758   5.631  49.980  1.00  0.00     0.187 HD
HETATM   14  H19 UNL     1      27.521   3.630  50.876  1.00  0.00     0.186 HD
ENDROOT
BRANCH  12  15
HETATM   15  C13 UNL     1      21.756   1.040  52.659  1.00  0.00     0.032 A 
HETATM   16  C14 UNL     1      20.979   0.960  51.524  1.00  0.00     0.029 A 
HETATM   17  C15 UNL     1      19.815   0.221  51.578  1.00  0.00     0.002 A 
HETATM   18  C16 UNL     1      19.366  -0.446  52.678  1.00  0.00     0.000 A 
HETATM   19  C17 UNL     1      20.132  -0.372  53.810  1.00  0.00     0.002 A 
HETATM   20  C18 UNL     1      21.303   0.357  53.795  1.00  0.00     0.029 A 
ENDBRANCH  12  15
BRANCH   1  21
HETATM   21  C3  UNL     1      26.122   0.321  53.771  1.00  0.00     0.084 C 
HETATM   22  C4  UNL     1      26.052  -0.895  52.878  1.00  0.00     0.032 C 
BRANCH  21  23
HETATM   23  C2  UNL     1      25.537  -0.034  55.115  1.00  0.00     0.020 C 
HETATM   24  C1  UNL     1      24.518  -1.113  55.064  1.00  0.00     0.007 C 
ENDBRANCH  21  23
ENDBRANCH   1  21
BRANCH   2  25
HETATM   25  O1  UNL     1      27.810   2.196  52.074  1.00  0.00    -0.339 OA
HETATM   26  C6  UNL     1      28.661   2.411  53.173  1.00  0.00     0.211 C 
ENDBRANCH   2  25
TORSDOF 4
ENDMDL
MODEL 3
REMARK VINA RESULT:      -7.5      2.264      4.977
REMARK  4 active torsions:
REMARK  status: ('A' for Active; 'I' for Inactive)
REMARK    1  A    between atoms: C2_2  and  C3_3 
REMARK    2  A    between atoms: C3_3  and  N1_5 
REMARK    3  A    between atoms: C5_6  and  O1_7 
REMARK    4  A    between atoms: N5_18  and  C13_19 
ROOT
HETATM    1  N1  UNL     1      22.238   2.030  52.017  1.00  0.00    -0.332 N 
HETATM    2  C5  UNL     1      21.561   3.300  52.283  1.00  0.00     0.166 C 
HETATM    3  C7  UNL     1      22.455   4.306  52.353  1.00  0.00     0.079 C 
HETATM    4  C8  UNL     1      23.854   3.939  52.867  1.00  0.00     0.100 C 
HETATM    5  C9  UNL     1      24.351   3.278  51.580  1.00  0.00     0.096 A 
HETATM    6  C10 UNL     1      24.980   4.155  50.604  1.00  0.00     0.185 C 
HETATM    7  N2  UNL     1      24.862   5.576  50.727  1.00  0.00    -0.281 NA
HETATM    8  C11 UNL     1      23.977   6.544  50.567  1.00  0.00     0.217 C 
HETATM    9  N3  UNL     1      22.624   6.551  51.112  1.00  0.00    -0.294 N 
HETATM   10  N4  UNL     1      21.897   5.546  51.843  1.00  0.00    -0.300 N 
HETATM   11  C12 UNL     1      23.467   2.122  51.209  1.00  0.00     0.220 A 
HETATM   12  N5  UNL     1      24.765   1.934  51.750  1.00  0.00    -0.341 N 
HETATM   13  H18 UNL     1      21.926   7.314  51.053  1.00  0.00     0.187 HD
HETATM   14  H19 UNL     1      20.901   5.517  52.107  1.00  0.00     0.186 HD
ENDROOT
BRANCH  12  15
HETATM   15  C13 UNL     1      25.997   1.377  52.261  1.00  0.00     0.032 A 
HETATM   16  C14 UNL     1      27.143   2.032  52.658  1.00  0.00     0.029 A 
HETATM   17  C15 UNL     1      28.203   1.278  53.116  1.00  0.00     0.002 A 
HETATM   18  C16 UNL     1      28.208  -0.082  53.210  1.00  0.00     0.000 A 
HETATM   19  C17 UNL     1      27.074  -0.740  52.818  1.00  0.00     0.002 A 
HETATM   20  C18 UNL     1      25.993  -0.021  52.354  1.00  0.00     0.029 A 
ENDBRANCH  12  15
BRANCH   1  21
HETATM   21  C3  UNL     1      21.468   0.968  52.631  1.00  0.00     0.084 C 
HETATM   22  C4  UNL     1      22.309  -0.047  53.370  1.00  0.00     0.032 C 
BRANCH  21  23
HETATM   23  C2  UNL     1      20.598   0.241  51.637  1.00  0.00     0.020 C 
HETATM   24  C1  UNL     1      19.233  -0.063  52.137  1.00  0.00     0.007 C 
ENDBRANCH  21  23
ENDBRANCH   1  21
BRANCH   2  25
HETATM   25  O1  UNL     1      20.289   3.767  52.477  1.00  0.00    -0.339 OA
HETATM   26  C6  UNL     1      19.312   3.624  51.477  1.00  0.00     0.211 C 
ENDBRANCH   2  25
TORSDOF 4
ENDMDL
MODEL 4
REMARK VINA RESULT:      -7.5      2.178      3.458
REMARK  4 active torsions:
REMARK  status: ('A' for Active; 'I' for Inactive)
REMARK    1  A    between atoms: C2_2  and  C3_3 
REMARK    2  A    between atoms: C3_3  and  N1_5 
REMARK    3  A    between atoms: C5_6  and  O1_7 
REMARK    4  A    between atoms: N5_18  and  C13_19 
ROOT
HETATM    1  N1  UNL     1      23.622   0.136  53.945  1.00  0.00    -0.332 N 
HETATM    2  C5  UNL     1      24.837  -0.541  54.400  1.00  0.00     0.166 C 
HETATM    3  C7  UNL     1      25.873  -0.245  53.590  1.00  0.00     0.079 C 
HETATM    4  C8  UNL     1      25.530   0.039  52.122  1.00  0.00     0.100 C 
HETATM    5  C9  UNL     1      24.990   1.454  52.333  1.00  0.00     0.096 A 
HETATM    6  C10 UNL     1      25.964   2.534  52.274  1.00  0.00     0.185 C 
HETATM    7  N2  UNL     1      27.365   2.245  52.315  1.00  0.00    -0.281 NA
HETATM    8  C11 UNL     1      28.304   1.859  53.162  1.00  0.00     0.217 C 
HETATM    9  N3  UNL     1      28.210   0.716  54.063  1.00  0.00    -0.294 N 
HETATM   10  N4  UNL     1      27.123  -0.189  54.328  1.00  0.00    -0.300 N 
HETATM   11  C12 UNL     1      23.828   1.436  53.283  1.00  0.00     0.220 A 
HETATM   12  N5  UNL     1      23.656   1.631  51.889  1.00  0.00    -0.341 N 
HETATM   13  H18 UNL     1      28.945   0.354  54.697  1.00  0.00     0.187 HD
HETATM   14  H19 UNL     1      27.030  -0.909  55.060  1.00  0.00     0.186 HD
ENDROOT
BRANCH  12  15
HETATM   15  C13 UNL     1      23.116   1.850  50.565  1.00  0.00     0.032 A 
HETATM   16  C14 UNL     1      23.534   2.737  49.598  1.00  0.00     0.029 A 
HETATM   17  C15 UNL     1      22.854   2.765  48.398  1.00  0.00     0.002 A 
HETATM   18  C16 UNL     1      21.788   1.974  48.088  1.00  0.00     0.000 A 
HETATM   19  C17 UNL     1      21.366   1.090  49.044  1.00  0.00     0.002 A 
HETATM   20  C18 UNL     1      22.021   1.033  50.257  1.00  0.00     0.029 A 
ENDBRANCH  12  15
BRANCH   1  21
HETATM   21  C3  UNL     1      22.484  -0.685  54.306  1.00  0.00     0.084 C 
HETATM   22  C4  UNL     1      22.149  -1.747  53.285  1.00  0.00     0.032 C 
BRANCH  21  23
HETATM   23  C2  UNL     1      21.246   0.134  54.573  1.00  0.00     0.020 C 
HETATM   24  C1  UNL     1      20.156  -0.080  53.588  1.00  0.00     0.007 C 
ENDBRANCH  21  23
ENDBRANCH   1  21
BRANCH   2  25
HETATM   25  O1  UNL     1      25.233  -1.381  55.405  1.00  0.00    -0.339 OA
HETATM   26  C6  UNL     1      24.997  -1.050  56.751  1.00  0.00     0.211 C 
ENDBRANCH   2  25
TORSDOF 4
ENDMDL
MODEL 5
REMARK VINA RESULT:      -7.5      7.311     10.617
REMARK  4 active torsions:
REMARK  status: ('A' for Active; 'I' for Inactive)
REMARK    1  A    between atoms: C2_2  and  C3_3 
REMARK    2  A    between atoms: C3_3  and  N1_5 
REMARK    3  A    between atoms: C5_6  and  O1_7 
REMARK    4  A    between atoms: N5_18  and  C13_19 
ROOT
HETATM    1  N1  UNL     1      32.182   7.824  47.912  1.00  0.00    -0.332 N 
HETATM    2  C5  UNL     1      33.422   7.331  48.513  1.00  0.00     0.166 C 
HETATM    3  C7  UNL     1      33.286   6.041  48.882  1.00  0.00     0.079 C 
HETATM    4  C8  UNL     1      31.877   5.596  49.297  1.00  0.00     0.100 C 
HETATM    5  C9  UNL     1      31.297   5.495  47.886  1.00  0.00     0.096 A 
HETATM    6  C10 UNL     1      31.460   4.216  47.210  1.00  0.00     0.185 C 
HETATM    7  N2  UNL     1      32.365   3.235  47.728  1.00  0.00    -0.281 NA
HETATM    8  C11 UNL     1      33.660   2.996  47.831  1.00  0.00     0.217 C 
HETATM    9  N3  UNL     1      34.657   3.937  48.330  1.00  0.00    -0.294 N 
HETATM   10  N4  UNL     1      34.534   5.314  48.732  1.00  0.00    -0.300 N 
HETATM   11  C12 UNL     1      31.383   6.820  47.186  1.00  0.00     0.220 A 
HETATM   12  N5  UNL     1      30.155   6.307  47.676  1.00  0.00    -0.341 N 
HETATM   13  H18 UNL     1      35.667   3.764  48.476  1.00  0.00     0.187 HD
HETATM   14  H19 UNL     1      35.269   6.000  48.958  1.00  0.00     0.186 HD
ENDROOT
BRANCH  12  15
HETATM   15  C13 UNL     1      28.768   6.107  48.034  1.00  0.00     0.032 A 
HETATM   16  C14 UNL     1      28.169   4.995  48.583  1.00  0.00     0.029 A 
HETATM   17  C15 UNL     1      26.814   5.040  48.839  1.00  0.00     0.002 A 
HETATM   18  C16 UNL     1      26.010   6.112  48.588  1.00  0.00     0.000 A 
HETATM   19  C17 UNL     1      26.597   7.221  48.042  1.00  0.00     0.002 A 
HETATM   20  C18 UNL     1      27.950   7.213  47.772  1.00  0.00     0.029 A 
ENDBRANCH  12  15
BRANCH   1  21
HETATM   21  C3  UNL     1      32.079   9.243  48.185  1.00  0.00     0.084 C 
HETATM   22  C4  UNL     1      30.861   9.622  48.994  1.00  0.00     0.032 C 
BRANCH  21  23
HETATM   23  C2  UNL     1      32.099  10.073  46.927  1.00  0.00     0.020 C 
HETATM   24  C1  UNL     1      32.933  11.298  47.023  1.00  0.00     0.007 C 
ENDBRANCH  21  23
ENDBRANCH   1  21
BRANCH   2  25
HETATM   25  O1  UNL     1      34.677   7.789  48.806  1.00  0.00    -0.339 OA
HETATM   26  C6  UNL     1      35.429   8.487  47.845  1.00  0.00     0.211 C 
ENDBRANCH   2  25
TORSDOF 4
ENDMDL
MODEL 6
REMARK VINA RESULT:      -7.3      2.233      5.041
REMARK  4 active torsions:
REMARK  status: ('A' for Active; 'I' for Inactive)
REMARK    1  A    between atoms: C2_2  and  C3_3 
REMARK    2  A    between atoms: C3_3  and  N1_5 
REMARK    3  A    between atoms: C5_6  and  O1_7 
REMARK    4  A    between atoms: N5_18  and  C13_19 
ROOT
HETATM    1  N1  UNL     1      22.150   1.409  52.170  1.00  0.00    -0.332 N 
HETATM    2  C5  UNL     1      21.356   2.628  52.329  1.00  0.00     0.166 C 
HETATM    3  C7  UNL     1      22.152   3.716  52.300  1.00  0.00     0.079 C 
HETATM    4  C8  UNL     1      23.580   3.529  52.828  1.00  0.00     0.100 C 
HETATM    5  C9  UNL     1      24.133   2.805  51.600  1.00  0.00     0.096 A 
HETATM    6  C10 UNL     1      24.675   3.646  50.543  1.00  0.00     0.185 C 
HETATM    7  N2  UNL     1      24.423   5.056  50.541  1.00  0.00    -0.281 NA
HETATM    8  C11 UNL     1      23.450   5.918  50.305  1.00  0.00     0.217 C 
HETATM    9  N3  UNL     1      22.104   5.847  50.862  1.00  0.00    -0.294 N 
HETATM   10  N4  UNL     1      21.478   4.848  51.687  1.00  0.00    -0.300 N 
HETATM   11  C12 UNL     1      23.362   1.543  51.343  1.00  0.00     0.220 A 
HETATM   12  N5  UNL     1      24.673   1.526  51.883  1.00  0.00    -0.341 N 
HETATM   13  H18 UNL     1      21.337   6.533  50.743  1.00  0.00     0.187 HD
HETATM   14  H19 UNL     1      20.490   4.748  51.964  1.00  0.00     0.186 HD
ENDROOT
BRANCH  12  15
HETATM   15  C13 UNL     1      25.954   1.136  52.429  1.00  0.00     0.032 A 
HETATM   16  C14 UNL     1      26.933   1.927  52.989  1.00  0.00     0.029 A 
HETATM   17  C15 UNL     1      28.084   1.320  53.445  1.00  0.00     0.002 A 
HETATM   18  C16 UNL     1      28.335  -0.019  53.386  1.00  0.00     0.000 A 
HETATM   19  C17 UNL     1      27.368  -0.812  52.831  1.00  0.00     0.002 A 
HETATM   20  C18 UNL     1      26.202  -0.241  52.363  1.00  0.00     0.029 A 
ENDBRANCH  12  15
BRANCH   1  21
HETATM   21  C3  UNL     1      21.485   0.339  52.884  1.00  0.00     0.084 C 
HETATM   22  C4  UNL     1      20.983   0.737  54.252  1.00  0.00     0.032 C 
BRANCH  21  23
HETATM   23  C2  UNL     1      22.355  -0.884  53.028  1.00  0.00     0.020 C 
HETATM   24  C1  UNL     1      23.163  -0.909  54.274  1.00  0.00     0.007 C 
ENDBRANCH  21  23
ENDBRANCH   1  21
BRANCH   2  25
HETATM   25  O1  UNL     1      20.047   2.989  52.495  1.00  0.00    -0.339 OA
HETATM   26  C6  UNL     1      19.059   2.536  51.603  1.00  0.00     0.211 C 
ENDBRANCH   2  25
TORSDOF 4
ENDMDL
MODEL 7
REMARK VINA RESULT:      -7.1      1.837      4.526
REMARK  4 active torsions:
REMARK  status: ('A' for Active; 'I' for Inactive)
REMARK    1  A    between atoms: C2_2  and  C3_3 
REMARK    2  A    between atoms: C3_3  and  N1_5 
REMARK    3  A    between atoms: C5_6  and  O1_7 
REMARK    4  A    between atoms: N5_18  and  C13_19 
ROOT
HETATM    1  N1  UNL     1      24.050   1.360  52.024  1.00  0.00    -0.332 N 
HETATM    2  C5  UNL     1      22.849   1.368  52.860  1.00  0.00     0.166 C 
HETATM    3  C7  UNL     1      22.006   2.342  52.463  1.00  0.00     0.079 C 
HETATM    4  C8  UNL     1      22.650   3.592  51.848  1.00  0.00     0.100 C 
HETATM    5  C9  UNL     1      22.957   2.981  50.480  1.00  0.00     0.096 A 
HETATM    6  C10 UNL     1      21.906   3.076  49.478  1.00  0.00     0.185 C 
HETATM    7  N2  UNL     1      20.577   3.449  49.858  1.00  0.00    -0.281 NA
HETATM    8  C11 UNL     1      19.517   2.959  50.477  1.00  0.00     0.217 C 
HETATM    9  N3  UNL     1      19.528   2.302  51.779  1.00  0.00    -0.294 N 
HETATM   10  N4  UNL     1      20.619   1.949  52.648  1.00  0.00    -0.300 N 
HETATM   11  C12 UNL     1      23.857   1.789  50.628  1.00  0.00     0.220 A 
HETATM   12  N5  UNL     1      24.329   3.028  50.126  1.00  0.00    -0.341 N 
HETATM   13  H18 UNL     1      18.712   1.958  52.316  1.00  0.00     0.187 HD
HETATM   14  H19 UNL     1      20.620   1.372  53.502  1.00  0.00     0.186 HD
ENDROOT
BRANCH  12  15
HETATM   15  C13 UNL     1      25.135   4.103  49.593  1.00  0.00     0.032 A 
HETATM   16  C14 UNL     1      24.759   5.388  49.268  1.00  0.00     0.029 A 
HETATM   17  C15 UNL     1      25.717   6.245  48.769  1.00  0.00     0.002 A 
HETATM   18  C16 UNL     1      27.025   5.919  48.569  1.00  0.00     0.000 A 
HETATM   19  C17 UNL     1      27.408   4.644  48.888  1.00  0.00     0.002 A 
HETATM   20  C18 UNL     1      26.478   3.758  49.390  1.00  0.00     0.029 A 
ENDBRANCH  12  15
BRANCH   1  21
HETATM   21  C3  UNL     1      25.158   0.887  52.829  1.00  0.00     0.084 C 
HETATM   22  C4  UNL     1      25.745   1.940  53.739  1.00  0.00     0.032 C 
BRANCH  21  23
HETATM   23  C2  UNL     1      26.268   0.302  51.992  1.00  0.00     0.020 C 
HETATM   24  C1  UNL     1      26.684  -1.062  52.406  1.00  0.00     0.007 C 
ENDBRANCH  21  23
ENDBRANCH   1  21
BRANCH   2  25
HETATM   25  O1  UNL     1      22.328   0.678  53.920  1.00  0.00    -0.339 OA
HETATM   26  C6  UNL     1      22.344  -0.727  53.940  1.00  0.00     0.211 C 
ENDBRANCH   2  25
TORSDOF 4
ENDMDL
MODEL 8
REMARK VINA RESULT:      -7.1      2.351      6.693
REMARK  4 active torsions:
REMARK  status: ('A' for Active; 'I' for Inactive)
REMARK    1  A    between atoms: C2_2  and  C3_3 
REMARK    2  A    between atoms: C3_3  and  N1_5 
REMARK    3  A    between atoms: C5_6  and  O1_7 
REMARK    4  A    between atoms: N5_18  and  C13_19 
ROOT
HETATM    1  N1  UNL     1      24.944   2.848  52.195  1.00  0.00    -0.332 N 
HETATM    2  C5  UNL     1      25.037   3.594  50.939  1.00  0.00     0.166 C 
HETATM    3  C7  UNL     1      23.825   3.689  50.357  1.00  0.00     0.079 C 
HETATM    4  C8  UNL     1      22.854   2.529  50.613  1.00  0.00     0.100 C 
HETATM    5  C9  UNL     1      22.459   2.935  52.034  1.00  0.00     0.096 A 
HETATM    6  C10 UNL     1      21.337   3.853  52.156  1.00  0.00     0.185 C 
HETATM    7  N2  UNL     1      20.844   4.549  51.007  1.00  0.00    -0.281 NA
HETATM    8  C11 UNL     1      21.169   5.543  50.198  1.00  0.00     0.217 C 
HETATM    9  N3  UNL     1      22.460   5.708  49.539  1.00  0.00    -0.294 N 
HETATM   10  N4  UNL     1      23.677   4.947  49.646  1.00  0.00    -0.300 N 
HETATM   11  C12 UNL     1      23.669   2.982  52.921  1.00  0.00     0.220 A 
HETATM   12  N5  UNL     1      22.714   1.937  53.007  1.00  0.00    -0.341 N 
HETATM   13  H18 UNL     1      22.729   6.441  48.859  1.00  0.00     0.187 HD
HETATM   14  H19 UNL     1      24.616   5.153  49.274  1.00  0.00     0.186 HD
ENDROOT
BRANCH  12  15
HETATM   15  C13 UNL     1      21.971   0.750  53.366  1.00  0.00     0.032 A 
HETATM   16  C14 UNL     1      20.635   0.475  53.174  1.00  0.00     0.029 A 
HETATM   17  C15 UNL     1      20.148  -0.741  53.607  1.00  0.00     0.002 A 
HETATM   18  C16 UNL     1      20.892  -1.705  54.219  1.00  0.00     0.000 A 
HETATM   19  C17 UNL     1      22.220  -1.439  54.414  1.00  0.00     0.002 A 
HETATM   20  C18 UNL     1      22.744  -0.235  53.994  1.00  0.00     0.029 A 
ENDBRANCH  12  15
BRANCH   1  21
HETATM   21  C3  UNL     1      26.202   2.163  52.408  1.00  0.00     0.084 C 
HETATM   22  C4  UNL     1      26.274   0.801  51.758  1.00  0.00     0.032 C 
BRANCH  21  23
HETATM   23  C2  UNL     1      26.535   2.015  53.872  1.00  0.00     0.020 C 
HETATM   24  C1  UNL     1      27.266   0.766  54.203  1.00  0.00     0.007 C 
ENDBRANCH  21  23
ENDBRANCH   1  21
BRANCH   2  25
HETATM   25  O1  UNL     1      25.988   4.225  50.185  1.00  0.00    -0.339 OA
HETATM   26  C6  UNL     1      26.775   3.503  49.271  1.00  0.00     0.211 C 
ENDBRANCH   2  25
TORSDOF 4
ENDMDL
MODEL 9
REMARK VINA RESULT:      -6.8      2.450      5.340
REMARK  4 active torsions:
REMARK  status: ('A' for Active; 'I' for Inactive)
REMARK    1  A    between atoms: C2_2  and  C3_3 
REMARK    2  A    between atoms: C3_3  and  N1_5 
REMARK    3  A    between atoms: C5_6  and  O1_7 
REMARK    4  A    between atoms: N5_18  and  C13_19 
ROOT
HETATM    1  N1  UNL     1      21.901   2.913  51.018  1.00  0.00    -0.332 N 
HETATM    2  C5  UNL     1      20.633   2.482  50.429  1.00  0.00     0.166 C 
HETATM    3  C7  UNL     1      20.344   1.220  50.804  1.00  0.00     0.079 C 
HETATM    4  C8  UNL     1      21.541   0.298  51.070  1.00  0.00     0.100 C 
HETATM    5  C9  UNL     1      21.908   0.868  52.440  1.00  0.00     0.096 A 
HETATM    6  C10 UNL     1      21.242   0.271  53.588  1.00  0.00     0.185 C 
HETATM    7  N2  UNL     1      20.106  -0.581  53.402  1.00  0.00    -0.281 NA
HETATM    8  C11 UNL     1      18.826  -0.519  53.082  1.00  0.00     0.217 C 
HETATM    9  N3  UNL     1      18.276   0.187  51.930  1.00  0.00    -0.294 N 
HETATM   10  N4  UNL     1      18.912   1.025  50.947  1.00  0.00    -0.300 N 
HETATM   11  C12 UNL     1      22.223   2.332  52.333  1.00  0.00     0.220 A 
HETATM   12  N5  UNL     1      23.235   1.357  52.522  1.00  0.00    -0.341 N 
HETATM   13  H18 UNL     1      17.289   0.210  51.619  1.00  0.00     0.187 HD
HETATM   14  H19 UNL     1      18.490   1.619  50.218  1.00  0.00     0.186 HD
ENDROOT
BRANCH  12  15
HETATM   15  C13 UNL     1      24.492   0.667  52.708  1.00  0.00     0.032 A 
HETATM   16  C14 UNL     1      24.779  -0.399  53.532  1.00  0.00     0.029 A 
HETATM   17  C15 UNL     1      26.067  -0.893  53.539  1.00  0.00     0.002 A 
HETATM   18  C16 UNL     1      27.093  -0.405  52.785  1.00  0.00     0.000 A 
HETATM   19  C17 UNL     1      26.816   0.654  51.963  1.00  0.00     0.002 A 
HETATM   20  C18 UNL     1      25.539   1.176  51.929  1.00  0.00     0.029 A 
ENDBRANCH  12  15
BRANCH   1  21
HETATM   21  C3  UNL     1      22.521   3.862  50.115  1.00  0.00     0.084 C 
HETATM   22  C4  UNL     1      23.299   3.216  48.992  1.00  0.00     0.032 C 
BRANCH  21  23
HETATM   23  C2  UNL     1      23.426   4.832  50.832  1.00  0.00     0.020 C 
HETATM   24  C1  UNL     1      24.858   4.712  50.458  1.00  0.00     0.007 C 
ENDBRANCH  21  23
ENDBRANCH   1  21
BRANCH   2  25
HETATM   25  O1  UNL     1      19.653   2.982  49.615  1.00  0.00    -0.339 OA
HETATM   26  C6  UNL     1      19.740   2.842  48.218  1.00  0.00     0.211 C 
ENDBRANCH   2  25
TORSDOF 4
ENDMDL
