MODEL 1
REMARK VINA RESULT:     -10.0      0.000      0.000
REMARK  2 active torsions:
REMARK  status: ('A' for Active; 'I' for Inactive)
REMARK    1  A    between atoms: O1_1  and  C1_2 
REMARK    2  A    between atoms: C3_5  and  N1_6 
ROOT
HETATM    1  N1  UNL     1      26.127   0.400  52.663  1.00  0.00    -0.236 N 
HETATM    2  N2  UNL     1      26.388   1.592  51.908  1.00  0.00    -0.174 NA
HETATM    3  C4  UNL     1      25.493   2.494  51.911  1.00  0.00     0.057 C 
HETATM    4  C5  UNL     1      24.543   3.626  51.713  1.00  0.00     0.030 C 
HETATM    5  C6  UNL     1      23.270   3.707  51.520  1.00  0.00     0.025 C 
HETATM    6  C7  UNL     1      21.895   3.314  51.329  1.00  0.00     0.030 C 
HETATM    7 CL1  UNL     1      20.613   4.521  51.163  1.00  0.00    -0.085 Cl
HETATM    8  C8  UNL     1      21.352   2.079  51.245  1.00  0.00     0.002 C 
HETATM    9  C9  UNL     1      22.292   0.982  51.339  1.00  0.00     0.068 C 
HETATM   10  C10 UNL     1      22.438   0.172  52.544  1.00  0.00    -0.043 A 
HETATM   11  C11 UNL     1      21.273  -0.392  53.013  1.00  0.00     0.050 A 
HETATM   12  C12 UNL     1      21.282  -1.195  54.135  1.00  0.00     0.117 A 
HETATM   13  F1  UNL     1      20.123  -1.746  54.583  1.00  0.00    -0.206 F 
HETATM   14  C13 UNL     1      22.423  -1.485  54.851  1.00  0.00     0.043 A 
HETATM   15  C14 UNL     1      23.555  -0.893  54.335  1.00  0.00     0.013 A 
HETATM   16  C15 UNL     1      23.676  -0.078  53.232  1.00  0.00    -0.026 A 
HETATM   17  C16 UNL     1      24.757   0.592  52.640  1.00  0.00     0.152 C 
HETATM   18  C17 UNL     1      24.881   2.051  53.177  1.00  0.00     0.093 C 
ENDROOT
BRANCH   1  19
HETATM   19  C3  UNL     1      27.305  -0.332  53.024  1.00  0.00     0.192 A 
HETATM   20  S1  UNL     1      28.733   0.617  53.551  1.00  0.00    -0.058 SA
HETATM   21  C2  UNL     1      29.793  -0.925  53.832  1.00  0.00     0.111 A 
HETATM   22  C1  UNL     1      28.813  -1.906  53.455  1.00  0.00     0.171 A 
HETATM   23  N3  UNL     1      27.625  -1.513  53.074  1.00  0.00    -0.198 NA
BRANCH  22  24
HETATM   24  O1  UNL     1      29.025  -3.300  53.458  1.00  0.00    -0.344 OA
HETATM   25  H1  UNL     1      29.783  -3.716  52.940  1.00  0.00     0.219 HD
ENDBRANCH  22  24
ENDBRANCH   1  19
TORSDOF 2
ENDMDL
MODEL 2
REMARK VINA RESULT:      -9.6      2.559      4.315
REMARK  2 active torsions:
REMARK  status: ('A' for Active; 'I' for Inactive)
REMARK    1  A    between atoms: O1_1  and  C1_2 
REMARK    2  A    between atoms: C3_5  and  N1_6 
ROOT
HETATM    1  N1  UNL     1      25.937   0.480  52.974  1.00  0.00    -0.236 N 
HETATM    2  N2  UNL     1      24.809   0.017  53.732  1.00  0.00    -0.174 NA
HETATM    3  C4  UNL     1      23.652   0.341  53.318  1.00  0.00     0.057 C 
HETATM    4  C5  UNL     1      22.225   0.683  53.054  1.00  0.00     0.030 C 
HETATM    5  C6  UNL     1      21.612   1.754  52.679  1.00  0.00     0.025 C 
HETATM    6  C7  UNL     1      21.384   3.119  52.271  1.00  0.00     0.030 C 
HETATM    7 CL1  UNL     1      19.767   3.685  51.834  1.00  0.00    -0.085 Cl
HETATM    8  C8  UNL     1      22.257   4.143  52.149  1.00  0.00     0.002 C 
HETATM    9  C9  UNL     1      23.628   3.833  52.501  1.00  0.00     0.068 C 
HETATM   10  C10 UNL     1      24.669   3.627  51.500  1.00  0.00    -0.043 A 
HETATM   11  C11 UNL     1      24.818   4.651  50.593  1.00  0.00     0.050 A 
HETATM   12  C12 UNL     1      25.783   4.583  49.608  1.00  0.00     0.117 A 
HETATM   13  F1  UNL     1      25.918   5.604  48.722  1.00  0.00    -0.206 F 
HETATM   14  C13 UNL     1      26.644   3.517  49.462  1.00  0.00     0.043 A 
HETATM   15  C14 UNL     1      26.446   2.524  50.397  1.00  0.00     0.013 A 
HETATM   16  C15 UNL     1      25.527   2.475  51.420  1.00  0.00    -0.026 A 
HETATM   17  C16 UNL     1      25.223   1.517  52.400  1.00  0.00     0.152 C 
HETATM   18  C17 UNL     1      24.083   0.564  51.925  1.00  0.00     0.093 C 
ENDROOT
BRANCH   1  19
HETATM   19  C3  UNL     1      27.130  -0.286  53.176  1.00  0.00     0.192 A 
HETATM   20  S1  UNL     1      28.641   0.618  53.514  1.00  0.00    -0.058 SA
HETATM   21  C2  UNL     1      29.684  -0.955  53.650  1.00  0.00     0.111 A 
HETATM   22  C1  UNL     1      28.635  -1.905  53.402  1.00  0.00     0.171 A 
HETATM   23  N3  UNL     1      27.420  -1.477  53.181  1.00  0.00    -0.198 NA
BRANCH  22  24
HETATM   24  O1  UNL     1      28.806  -3.305  53.374  1.00  0.00    -0.344 OA
HETATM   25  H1  UNL     1      29.544  -3.753  53.892  1.00  0.00     0.219 HD
ENDBRANCH  22  24
ENDBRANCH   1  19
TORSDOF 2
ENDMDL
MODEL 3
REMARK VINA RESULT:      -9.2      1.752      1.914
REMARK  2 active torsions:
REMARK  status: ('A' for Active; 'I' for Inactive)
REMARK    1  A    between atoms: O1_1  and  C1_2 
REMARK    2  A    between atoms: C3_5  and  N1_6 
ROOT
HETATM    1  N1  UNL     1      25.659   1.677  52.659  1.00  0.00    -0.236 N 
HETATM    2  N2  UNL     1      25.608   2.801  51.768  1.00  0.00    -0.174 NA
HETATM    3  C4  UNL     1      24.479   3.359  51.593  1.00  0.00     0.057 C 
HETATM    4  C5  UNL     1      23.246   4.092  51.186  1.00  0.00     0.030 C 
HETATM    5  C6  UNL     1      22.040   3.735  50.905  1.00  0.00     0.025 C 
HETATM    6  C7  UNL     1      20.885   2.898  50.685  1.00  0.00     0.030 C 
HETATM    7 CL1  UNL     1      19.313   3.597  50.278  1.00  0.00    -0.085 Cl
HETATM    8  C8  UNL     1      20.769   1.552  50.735  1.00  0.00     0.002 C 
HETATM    9  C9  UNL     1      21.992   0.837  51.034  1.00  0.00     0.068 C 
HETATM   10  C10 UNL     1      22.261   0.253  52.344  1.00  0.00    -0.043 A 
HETATM   11  C11 UNL     1      21.291  -0.605  52.811  1.00  0.00     0.050 A 
HETATM   12  C12 UNL     1      21.438  -1.236  54.030  1.00  0.00     0.117 A 
HETATM   13  F1  UNL     1      20.472  -2.081  54.475  1.00  0.00    -0.206 F 
HETATM   14  C13 UNL     1      22.533  -1.060  54.848  1.00  0.00     0.043 A 
HETATM   15  C14 UNL     1      23.468  -0.192  54.328  1.00  0.00     0.013 A 
HETATM   16  C15 UNL     1      23.438   0.494  53.135  1.00  0.00    -0.026 A 
HETATM   17  C16 UNL     1      24.309   1.410  52.526  1.00  0.00     0.152 C 
HETATM   18  C17 UNL     1      23.912   2.880  52.868  1.00  0.00     0.093 C 
ENDROOT
BRANCH   1  19
HETATM   19  C3  UNL     1      26.964   1.411  53.188  1.00  0.00     0.192 A 
HETATM   20  S1  UNL     1      27.595  -0.259  53.020  1.00  0.00    -0.058 SA
HETATM   21  C2  UNL     1      29.227   0.152  53.887  1.00  0.00     0.111 A 
HETATM   22  C1  UNL     1      28.964   1.540  54.148  1.00  0.00     0.171 A 
HETATM   23  N3  UNL     1      27.827   2.062  53.766  1.00  0.00    -0.198 NA
BRANCH  22  24
HETATM   24  O1  UNL     1      29.852   2.420  54.801  1.00  0.00    -0.344 OA
HETATM   25  H1  UNL     1      29.514   3.170  55.381  1.00  0.00     0.219 HD
ENDBRANCH  22  24
ENDBRANCH   1  19
TORSDOF 2
ENDMDL
MODEL 4
REMARK VINA RESULT:      -8.9      2.801      4.276
REMARK  2 active torsions:
REMARK  status: ('A' for Active; 'I' for Inactive)
REMARK    1  A    between atoms: O1_1  and  C1_2 
REMARK    2  A    between atoms: C3_5  and  N1_6 
ROOT
HETATM    1  N1  UNL     1      25.546   0.629  53.643  1.00  0.00    -0.236 N 
HETATM    2  N2  UNL     1      24.918  -0.319  54.519  1.00  0.00    -0.174 NA
HETATM    3  C4  UNL     1      23.786  -0.778  54.169  1.00  0.00     0.057 C 
HETATM    4  C5  UNL     1      22.427  -1.365  53.988  1.00  0.00     0.030 C 
HETATM    5  C6  UNL     1      21.296  -0.902  53.576  1.00  0.00     0.025 C 
HETATM    6  C7  UNL     1      20.303   0.019  53.080  1.00  0.00     0.030 C 
HETATM    7 CL1  UNL     1      18.656  -0.517  52.723  1.00  0.00    -0.085 Cl
HETATM    8  C8  UNL     1      20.404   1.340  52.812  1.00  0.00     0.002 C 
HETATM    9  C9  UNL     1      21.699   1.928  53.083  1.00  0.00     0.068 C 
HETATM   10  C10 UNL     1      22.648   2.261  52.026  1.00  0.00    -0.043 A 
HETATM   11  C11 UNL     1      22.153   3.074  51.031  1.00  0.00     0.050 A 
HETATM   12  C12 UNL     1      22.958   3.476  49.985  1.00  0.00     0.117 A 
HETATM   13  F1  UNL     1      22.453   4.281  49.013  1.00  0.00    -0.206 F 
HETATM   14  C13 UNL     1      24.279   3.105  49.858  1.00  0.00     0.043 A 
HETATM   15  C14 UNL     1      24.717   2.292  50.882  1.00  0.00     0.013 A 
HETATM   16  C15 UNL     1      24.018   1.826  51.972  1.00  0.00    -0.026 A 
HETATM   17  C16 UNL     1      24.351   0.985  53.045  1.00  0.00     0.152 C 
HETATM   18  C17 UNL     1      23.982  -0.499  52.734  1.00  0.00     0.093 C 
ENDROOT
BRANCH   1  19
HETATM   19  C3  UNL     1      26.965   0.731  53.815  1.00  0.00     0.192 A 
HETATM   20  S1  UNL     1      27.953  -0.693  53.355  1.00  0.00    -0.058 SA
HETATM   21  C2  UNL     1      29.582   0.145  53.832  1.00  0.00     0.111 A 
HETATM   22  C1  UNL     1      29.034   1.400  54.268  1.00  0.00     0.171 A 
HETATM   23  N3  UNL     1      27.742   1.588  54.220  1.00  0.00    -0.198 NA
BRANCH  22  24
HETATM   24  O1  UNL     1      29.793   2.482  54.759  1.00  0.00    -0.344 OA
HETATM   25  H1  UNL     1      29.861   3.349  54.250  1.00  0.00     0.219 HD
ENDBRANCH  22  24
ENDBRANCH   1  19
TORSDOF 2
ENDMDL
MODEL 5
REMARK VINA RESULT:      -8.4      4.384      6.313
REMARK  2 active torsions:
REMARK  status: ('A' for Active; 'I' for Inactive)
REMARK    1  A    between atoms: O1_1  and  C1_2 
REMARK    2  A    between atoms: C3_5  and  N1_6 
ROOT
HETATM    1  N1  UNL     1      23.316   3.453  51.638  1.00  0.00    -0.236 N 
HETATM    2  N2  UNL     1      24.705   3.690  51.363  1.00  0.00    -0.174 NA
HETATM    3  C4  UNL     1      25.469   2.676  51.293  1.00  0.00     0.057 C 
HETATM    4  C5  UNL     1      26.539   1.639  51.258  1.00  0.00     0.030 C 
HETATM    5  C6  UNL     1      26.792   0.585  51.957  1.00  0.00     0.025 C 
HETATM    6  C7  UNL     1      26.673  -0.438  52.967  1.00  0.00     0.030 C 
HETATM    7 CL1  UNL     1      27.802  -1.798  53.029  1.00  0.00    -0.085 Cl
HETATM    8  C8  UNL     1      25.775  -0.565  53.970  1.00  0.00     0.002 C 
HETATM    9  C9  UNL     1      24.796   0.498  54.061  1.00  0.00     0.068 C 
HETATM   10  C10 UNL     1      23.415   0.334  53.622  1.00  0.00    -0.043 A 
HETATM   11  C11 UNL     1      22.748  -0.735  54.177  1.00  0.00     0.050 A 
HETATM   12  C12 UNL     1      21.429  -0.985  53.856  1.00  0.00     0.117 A 
HETATM   13  F1  UNL     1      20.786  -2.043  54.416  1.00  0.00    -0.206 F 
HETATM   14  C13 UNL     1      20.701  -0.209  52.981  1.00  0.00     0.043 A 
HETATM   15  C14 UNL     1      21.420   0.843  52.458  1.00  0.00     0.013 A 
HETATM   16  C15 UNL     1      22.729   1.196  52.697  1.00  0.00    -0.026 A 
HETATM   17  C16 UNL     1      23.559   2.216  52.207  1.00  0.00     0.152 C 
HETATM   18  C17 UNL     1      24.382   1.731  50.974  1.00  0.00     0.093 C 
ENDROOT
BRANCH   1  19
HETATM   19  C3  UNL     1      22.451   4.521  51.230  1.00  0.00     0.192 A 
HETATM   20  S1  UNL     1      21.058   4.096  50.185  1.00  0.00    -0.058 SA
HETATM   21  C2  UNL     1      20.447   5.884  50.083  1.00  0.00     0.111 A 
HETATM   22  C1  UNL     1      21.466   6.484  50.900  1.00  0.00     0.171 A 
HETATM   23  N3  UNL     1      22.402   5.731  51.415  1.00  0.00    -0.198 NA
BRANCH  22  24
HETATM   24  O1  UNL     1      21.548   7.858  51.205  1.00  0.00    -0.344 OA
HETATM   25  H1  UNL     1      21.072   8.248  52.003  1.00  0.00     0.219 HD
ENDBRANCH  22  24
ENDBRANCH   1  19
TORSDOF 2
ENDMDL
MODEL 6
REMARK VINA RESULT:      -8.3      4.676      6.377
REMARK  2 active torsions:
REMARK  status: ('A' for Active; 'I' for Inactive)
REMARK    1  A    between atoms: O1_1  and  C1_2 
REMARK    2  A    between atoms: C3_5  and  N1_6 
ROOT
HETATM    1  N1  UNL     1      20.475   0.889  51.757  1.00  0.00    -0.236 N 
HETATM    2  N2  UNL     1      20.216   1.804  50.682  1.00  0.00    -0.174 NA
HETATM    3  C4  UNL     1      21.207   2.181  49.982  1.00  0.00     0.057 C 
HETATM    4  C5  UNL     1      22.236   2.810  49.106  1.00  0.00     0.030 C 
HETATM    5  C6  UNL     1      23.419   3.283  49.305  1.00  0.00     0.025 C 
HETATM    6  C7  UNL     1      24.630   3.676  49.983  1.00  0.00     0.030 C 
HETATM    7 CL1  UNL     1      25.996   4.361  49.093  1.00  0.00    -0.085 Cl
HETATM    8  C8  UNL     1      24.947   3.613  51.296  1.00  0.00     0.002 C 
HETATM    9  C9  UNL     1      23.907   3.093  52.159  1.00  0.00     0.068 C 
HETATM   10  C10 UNL     1      23.945   1.743  52.710  1.00  0.00    -0.043 A 
HETATM   11  C11 UNL     1      25.093   1.426  53.400  1.00  0.00     0.050 A 
HETATM   12  C12 UNL     1      25.242   0.184  53.986  1.00  0.00     0.117 A 
HETATM   13  F1  UNL     1      26.381  -0.110  54.666  1.00  0.00    -0.206 F 
HETATM   14  C13 UNL     1      24.283  -0.803  53.924  1.00  0.00     0.043 A 
HETATM   15  C14 UNL     1      23.159  -0.428  53.220  1.00  0.00     0.013 A 
HETATM   16  C15 UNL     1      22.892   0.769  52.596  1.00  0.00    -0.026 A 
HETATM   17  C16 UNL     1      21.809   1.244  51.840  1.00  0.00     0.152 C 
HETATM   18  C17 UNL     1      22.040   1.010  50.315  1.00  0.00     0.093 C 
ENDROOT
BRANCH   1  19
HETATM   19  C3  UNL     1      19.327   0.140  52.176  1.00  0.00     0.192 A 
HETATM   20  S1  UNL     1      17.786   0.447  51.313  1.00  0.00    -0.058 SA
HETATM   21  C2  UNL     1      16.826  -0.812  52.350  1.00  0.00     0.111 A 
HETATM   22  C1  UNL     1      17.912  -1.241  53.188  1.00  0.00     0.171 A 
HETATM   23  N3  UNL     1      19.097  -0.714  53.023  1.00  0.00    -0.198 NA
BRANCH  22  24
HETATM   24  O1  UNL     1      17.809  -2.211  54.206  1.00  0.00    -0.344 OA
HETATM   25  H1  UNL     1      18.587  -2.420  54.811  1.00  0.00     0.219 HD
ENDBRANCH  22  24
ENDBRANCH   1  19
TORSDOF 2
ENDMDL
MODEL 7
REMARK VINA RESULT:      -8.2      2.444      3.074
REMARK  2 active torsions:
REMARK  status: ('A' for Active; 'I' for Inactive)
REMARK    1  A    between atoms: O1_1  and  C1_2 
REMARK    2  A    between atoms: C3_5  and  N1_6 
ROOT
HETATM    1  N1  UNL     1      24.640   1.443  51.883  1.00  0.00    -0.236 N 
HETATM    2  N2  UNL     1      25.375   2.327  51.024  1.00  0.00    -0.174 NA
HETATM    3  C4  UNL     1      24.710   3.162  50.335  1.00  0.00     0.057 C 
HETATM    4  C5  UNL     1      24.117   4.147  49.385  1.00  0.00     0.030 C 
HETATM    5  C6  UNL     1      23.094   4.135  48.600  1.00  0.00     0.025 C 
HETATM    6  C7  UNL     1      21.914   3.673  47.911  1.00  0.00     0.030 C 
HETATM    7 CL1  UNL     1      21.025   4.733  46.808  1.00  0.00    -0.085 Cl
HETATM    8  C8  UNL     1      21.302   2.469  47.953  1.00  0.00     0.002 C 
HETATM    9  C9  UNL     1      21.937   1.482  48.802  1.00  0.00     0.068 C 
HETATM   10  C10 UNL     1      21.410   1.115  50.111  1.00  0.00    -0.043 A 
HETATM   11  C11 UNL     1      20.093   0.713  50.119  1.00  0.00     0.050 A 
HETATM   12  C12 UNL     1      19.484   0.322  51.294  1.00  0.00     0.117 A 
HETATM   13  F1  UNL     1      18.184  -0.075  51.283  1.00  0.00    -0.206 F 
HETATM   14  C13 UNL     1      20.127   0.306  52.513  1.00  0.00     0.043 A 
HETATM   15  C14 UNL     1      21.439   0.719  52.442  1.00  0.00     0.013 A 
HETATM   16  C15 UNL     1      22.156   1.129  51.341  1.00  0.00    -0.026 A 
HETATM   17  C16 UNL     1      23.469   1.589  51.160  1.00  0.00     0.152 C 
HETATM   18  C17 UNL     1      23.537   3.146  51.230  1.00  0.00     0.093 C 
ENDROOT
BRANCH   1  19
HETATM   19  C3  UNL     1      25.414   0.894  52.956  1.00  0.00     0.192 A 
HETATM   20  S1  UNL     1      27.182   1.195  52.932  1.00  0.00    -0.058 SA
HETATM   21  C2  UNL     1      27.479   0.235  54.536  1.00  0.00     0.111 A 
HETATM   22  C1  UNL     1      26.117  -0.145  54.790  1.00  0.00     0.171 A 
HETATM   23  N3  UNL     1      25.180   0.228  53.957  1.00  0.00    -0.198 NA
BRANCH  22  24
HETATM   24  O1  UNL     1      25.686  -0.908  55.894  1.00  0.00    -0.344 OA
HETATM   25  H1  UNL     1      26.157  -1.758  56.160  1.00  0.00     0.219 HD
ENDBRANCH  22  24
ENDBRANCH   1  19
TORSDOF 2
ENDMDL
MODEL 8
REMARK VINA RESULT:      -8.2      3.692      5.329
REMARK  2 active torsions:
REMARK  status: ('A' for Active; 'I' for Inactive)
REMARK    1  A    between atoms: O1_1  and  C1_2 
REMARK    2  A    between atoms: C3_5  and  N1_6 
ROOT
HETATM    1  N1  UNL     1      25.256   2.918  51.050  1.00  0.00    -0.236 N 
HETATM    2  N2  UNL     1      26.012   2.502  52.197  1.00  0.00    -0.174 NA
HETATM    3  C4  UNL     1      25.682   1.407  52.750  1.00  0.00     0.057 C 
HETATM    4  C5  UNL     1      25.401   0.208  53.591  1.00  0.00     0.030 C 
HETATM    5  C6  UNL     1      24.324  -0.357  54.018  1.00  0.00     0.025 C 
HETATM    6  C7  UNL     1      22.923  -0.617  54.250  1.00  0.00     0.030 C 
HETATM    7 CL1  UNL     1      22.395  -2.042  55.154  1.00  0.00    -0.085 Cl
HETATM    8  C8  UNL     1      21.837   0.091  53.870  1.00  0.00     0.002 C 
HETATM    9  C9  UNL     1      22.118   1.309  53.137  1.00  0.00     0.068 C 
HETATM   10  C10 UNL     1      21.938   1.417  51.694  1.00  0.00    -0.043 A 
HETATM   11  C11 UNL     1      20.687   1.073  51.234  1.00  0.00     0.050 A 
HETATM   12  C12 UNL     1      20.386   1.152  49.888  1.00  0.00     0.117 A 
HETATM   13  F1  UNL     1      19.145   0.811  49.452  1.00  0.00    -0.206 F 
HETATM   14  C13 UNL     1      21.288   1.566  48.933  1.00  0.00     0.043 A 
HETATM   15  C14 UNL     1      22.521   1.895  49.453  1.00  0.00     0.013 A 
HETATM   16  C15 UNL     1      22.941   1.860  50.763  1.00  0.00    -0.026 A 
HETATM   17  C16 UNL     1      24.163   2.144  51.393  1.00  0.00     0.152 C 
HETATM   18  C17 UNL     1      25.031   0.857  51.546  1.00  0.00     0.093 C 
ENDROOT
BRANCH   1  19
HETATM   19  C3  UNL     1      25.945   3.847  50.203  1.00  0.00     0.192 A 
HETATM   20  S1  UNL     1      25.106   5.384  49.816  1.00  0.00    -0.058 SA
HETATM   21  C2  UNL     1      26.531   6.021  48.746  1.00  0.00     0.111 A 
HETATM   22  C1  UNL     1      27.407   4.892  48.897  1.00  0.00     0.171 A 
HETATM   23  N3  UNL     1      27.028   3.879  49.631  1.00  0.00    -0.198 NA
BRANCH  22  24
HETATM   24  O1  UNL     1      28.681   4.776  48.305  1.00  0.00    -0.344 OA
HETATM   25  H1  UNL     1      28.805   4.324  47.413  1.00  0.00     0.219 HD
ENDBRANCH  22  24
ENDBRANCH   1  19
TORSDOF 2
ENDMDL
MODEL 9
REMARK VINA RESULT:      -8.1      8.246      9.901
REMARK  2 active torsions:
REMARK  status: ('A' for Active; 'I' for Inactive)
REMARK    1  A    between atoms: O1_1  and  C1_2 
REMARK    2  A    between atoms: C3_5  and  N1_6 
ROOT
HETATM    1  N1  UNL     1      31.468   6.175  47.573  1.00  0.00    -0.236 N 
HETATM    2  N2  UNL     1      32.259   7.371  47.505  1.00  0.00    -0.174 NA
HETATM    3  C4  UNL     1      31.775   8.424  48.024  1.00  0.00     0.057 C 
HETATM    4  C5  UNL     1      31.353   9.776  48.492  1.00  0.00     0.030 C 
HETATM    5  C6  UNL     1      30.245  10.433  48.457  1.00  0.00     0.025 C 
HETATM    6  C7  UNL     1      28.864  10.759  48.193  1.00  0.00     0.030 C 
HETATM    7 CL1  UNL     1      28.162  12.284  48.749  1.00  0.00    -0.085 Cl
HETATM    8  C8  UNL     1      27.917  10.051  47.539  1.00  0.00     0.002 C 
HETATM    9  C9  UNL     1      28.356   8.781  47.000  1.00  0.00     0.068 C 
HETATM   10  C10 UNL     1      28.017   7.504  47.620  1.00  0.00    -0.043 A 
HETATM   11  C11 UNL     1      26.672   7.293  47.823  1.00  0.00     0.050 A 
HETATM   12  C12 UNL     1      26.222   6.115  48.385  1.00  0.00     0.117 A 
HETATM   13  F1  UNL     1      24.890   5.923  48.576  1.00  0.00    -0.206 F 
HETATM   14  C13 UNL     1      27.058   5.092  48.774  1.00  0.00     0.043 A 
HETATM   15  C14 UNL     1      28.390   5.361  48.547  1.00  0.00     0.013 A 
HETATM   16  C15 UNL     1      28.961   6.487  47.998  1.00  0.00    -0.026 A 
HETATM   17  C16 UNL     1      30.287   6.874  47.748  1.00  0.00     0.152 C 
HETATM   18  C17 UNL     1      30.869   7.700  48.936  1.00  0.00     0.093 C 
ENDROOT
BRANCH   1  19
HETATM   19  C3  UNL     1      32.224   4.966  47.432  1.00  0.00     0.192 A 
HETATM   20  S1  UNL     1      33.140   4.743  45.907  1.00  0.00    -0.058 SA
HETATM   21  C2  UNL     1      33.820   3.056  46.432  1.00  0.00     0.111 A 
HETATM   22  C1  UNL     1      33.190   2.987  47.722  1.00  0.00     0.171 A 
HETATM   23  N3  UNL     1      32.429   3.973  48.119  1.00  0.00    -0.198 NA
BRANCH  22  24
HETATM   24  O1  UNL     1      33.326   1.915  48.628  1.00  0.00    -0.344 OA
HETATM   25  H1  UNL     1      34.181   1.387  48.691  1.00  0.00     0.219 HD
ENDBRANCH  22  24
ENDBRANCH   1  19
TORSDOF 2
ENDMDL
