MODEL 1
REMARK VINA RESULT:      -9.6      0.000      0.000
REMARK  5 active torsions:
REMARK  status: ('A' for Active; 'I' for Inactive)
REMARK    1  A    between atoms: N1_2  and  C2_3 
REMARK    2  A    between atoms: C5_6  and  C6_7 
REMARK    3  A    between atoms: C6_7  and  C7_8 
REMARK    4  A    between atoms: C11_14  and  C12_15 
REMARK    5  A    between atoms: C14_17  and  O2_18 
ROOT
HETATM    1  C7  UNL     1      23.723   1.050  51.970  1.00  0.00     0.031 A 
HETATM    2  C8  UNL     1      24.792   0.442  52.766  1.00  0.00     0.253 A 
HETATM    3  O1  UNL     1      25.155  -0.429  53.631  1.00  0.00    -0.268 OA
HETATM    4  N2  UNL     1      25.967   1.150  52.409  1.00  0.00    -0.322 N 
HETATM    5  C9  UNL     1      25.670   2.145  51.448  1.00  0.00     0.046 A 
HETATM    6  C10 UNL     1      26.329   3.132  50.720  1.00  0.00     0.042 A 
HETATM    7  C11 UNL     1      25.768   3.995  49.815  1.00  0.00    -0.027 A 
HETATM    8  C18 UNL     1      24.416   3.907  49.572  1.00  0.00     0.013 A 
HETATM    9  C19 UNL     1      23.713   2.952  50.262  1.00  0.00     0.015 A 
HETATM   10  C20 UNL     1      24.332   2.109  51.163  1.00  0.00     0.003 A 
HETATM   11  H8  UNL     1      26.997   1.137  52.665  1.00  0.00     0.169 HD
ENDROOT
BRANCH   1  12
HETATM   12  C6  UNL     1      22.561   0.537  52.150  1.00  0.00     0.060 C 
BRANCH  12  13
HETATM   13  C5  UNL     1      21.384  -0.117  52.534  1.00  0.00    -0.009 C 
HETATM   14  C4  UNL     1      20.268   0.402  52.012  1.00  0.00    -0.059 C 
HETATM   15  C3  UNL     1      18.976  -0.110  52.275  1.00  0.00     0.034 C 
HETATM   16  C21 UNL     1      20.429   1.572  51.139  1.00  0.00     0.048 C 
HETATM   17  C2  UNL     1      17.727  -0.466  52.398  1.00  0.00     0.034 C 
HETATM   18  C24 UNL     1      16.703   0.239  51.540  1.00  0.00     0.177 C 
HETATM   19  O4  UNL     1      16.949   1.619  51.578  1.00  0.00    -0.310 OA
HETATM   20  C25 UNL     1      16.735  -0.350  50.146  1.00  0.00     0.046 C 
HETATM   21  C23 UNL     1      18.100   2.436  51.404  1.00  0.00     0.259 C 
HETATM   22  C22 UNL     1      19.232   2.166  50.510  1.00  0.00     0.116 C 
HETATM   23  O3  UNL     1      18.272   3.521  52.027  1.00  0.00    -0.265 OA
BRANCH  17  24
HETATM   24  N1  UNL     1      17.220  -1.463  53.258  1.00  0.00    -0.395 N 
HETATM   25  C1  UNL     1      17.798  -2.685  53.717  1.00  0.00     0.146 C 
HETATM   26  H4  UNL     1      16.251  -1.354  53.673  1.00  0.00     0.159 HD
ENDBRANCH  17  24
ENDBRANCH  12  13
ENDBRANCH   1  12
BRANCH   7  27
HETATM   27  C12 UNL     1      26.579   4.981  49.116  1.00  0.00    -0.042 A 
HETATM   28  C13 UNL     1      27.843   4.766  48.761  1.00  0.00     0.044 A 
HETATM   29  C14 UNL     1      28.355   5.931  48.093  1.00  0.00     0.065 A 
HETATM   30  C16 UNL     1      27.418   6.859  48.034  1.00  0.00     0.014 A 
HETATM   31  C17 UNL     1      26.174   6.339  48.693  1.00  0.00     0.069 A 
BRANCH  29  32
HETATM   32  O2  UNL     1      29.622   6.177  47.541  1.00  0.00    -0.356 OA
HETATM   33  C15 UNL     1      30.728   6.179  48.415  1.00  0.00     0.210 C 
ENDBRANCH  29  32
ENDBRANCH   7  27
TORSDOF 5
ENDMDL
MODEL 2
REMARK VINA RESULT:      -9.4      3.677     10.869
REMARK  5 active torsions:
REMARK  status: ('A' for Active; 'I' for Inactive)
REMARK    1  A    between atoms: N1_2  and  C2_3 
REMARK    2  A    between atoms: C5_6  and  C6_7 
REMARK    3  A    between atoms: C6_7  and  C7_8 
REMARK    4  A    between atoms: C11_14  and  C12_15 
REMARK    5  A    between atoms: C14_17  and  O2_18 
ROOT
HETATM    1  C7  UNL     1      26.025   4.076  49.603  1.00  0.00     0.031 A 
HETATM    2  C8  UNL     1      24.728   4.631  49.209  1.00  0.00     0.253 A 
HETATM    3  O1  UNL     1      24.060   5.451  48.489  1.00  0.00    -0.268 OA
HETATM    4  N2  UNL     1      23.774   3.930  49.989  1.00  0.00    -0.322 N 
HETATM    5  C9  UNL     1      24.418   2.989  50.826  1.00  0.00     0.046 A 
HETATM    6  C10 UNL     1      24.085   2.034  51.784  1.00  0.00     0.042 A 
HETATM    7  C11 UNL     1      24.953   1.224  52.469  1.00  0.00    -0.027 A 
HETATM    8  C18 UNL     1      26.301   1.336  52.213  1.00  0.00     0.013 A 
HETATM    9  C19 UNL     1      26.689   2.262  51.278  1.00  0.00     0.015 A 
HETATM   10  C20 UNL     1      25.769   3.051  50.617  1.00  0.00     0.003 A 
HETATM   11  H8  UNL     1      22.720   3.921  50.114  1.00  0.00     0.169 HD
ENDROOT
BRANCH   1  12
HETATM   12  C6  UNL     1      27.034   4.586  48.996  1.00  0.00     0.060 C 
BRANCH  12  13
HETATM   13  C5  UNL     1      28.240   4.945  48.382  1.00  0.00    -0.009 C 
HETATM   14  C4  UNL     1      28.399   6.260  48.204  1.00  0.00    -0.059 C 
HETATM   15  C3  UNL     1      29.545   6.829  47.601  1.00  0.00     0.034 C 
HETATM   16  C21 UNL     1      27.302   7.126  48.656  1.00  0.00     0.048 C 
HETATM   17  C2  UNL     1      30.532   7.511  47.087  1.00  0.00     0.034 C 
HETATM   18  C24 UNL     1      30.473   9.018  47.178  1.00  0.00     0.177 C 
HETATM   19  O4  UNL     1      29.186   9.447  46.820  1.00  0.00    -0.310 OA
HETATM   20  C25 UNL     1      30.897   9.448  48.566  1.00  0.00     0.046 C 
HETATM   21  C23 UNL     1      27.867   9.072  47.195  1.00  0.00     0.259 C 
HETATM   22  C22 UNL     1      27.440   8.589  48.513  1.00  0.00     0.116 C 
HETATM   23  O3  UNL     1      26.888   9.117  46.397  1.00  0.00    -0.265 OA
BRANCH  17  24
HETATM   24  N1  UNL     1      31.674   6.983  46.450  1.00  0.00    -0.395 N 
HETATM   25  C1  UNL     1      32.406   5.780  46.687  1.00  0.00     0.146 C 
HETATM   26  H4  UNL     1      32.119   7.513  45.647  1.00  0.00     0.159 HD
ENDBRANCH  17  24
ENDBRANCH  12  13
ENDBRANCH   1  12
BRANCH   7  27
HETATM   27  C12 UNL     1      24.467   0.260  53.446  1.00  0.00    -0.042 A 
HETATM   28  C13 UNL     1      23.185  -0.077  53.561  1.00  0.00     0.044 A 
HETATM   29  C14 UNL     1      23.041  -1.047  54.612  1.00  0.00     0.065 A 
HETATM   30  C16 UNL     1      24.221  -1.307  55.144  1.00  0.00     0.014 A 
HETATM   31  C17 UNL     1      25.263  -0.486  54.444  1.00  0.00     0.069 A 
BRANCH  29  32
HETATM   32  O2  UNL     1      21.894  -1.695  55.098  1.00  0.00    -0.356 OA
HETATM   33  C15 UNL     1      20.726  -1.636  54.311  1.00  0.00     0.210 C 
ENDBRANCH  29  32
ENDBRANCH   7  27
TORSDOF 5
ENDMDL
MODEL 3
REMARK VINA RESULT:      -9.0      2.186      9.347
REMARK  5 active torsions:
REMARK  status: ('A' for Active; 'I' for Inactive)
REMARK    1  A    between atoms: N1_2  and  C2_3 
REMARK    2  A    between atoms: C5_6  and  C6_7 
REMARK    3  A    between atoms: C6_7  and  C7_8 
REMARK    4  A    between atoms: C11_14  and  C12_15 
REMARK    5  A    between atoms: C14_17  and  O2_18 
ROOT
HETATM    1  C7  UNL     1      24.600   0.643  52.643  1.00  0.00     0.031 A 
HETATM    2  C8  UNL     1      25.055  -0.140  53.794  1.00  0.00     0.253 A 
HETATM    3  O1  UNL     1      26.013  -0.514  54.556  1.00  0.00    -0.268 OA
HETATM    4  N2  UNL     1      23.890  -0.774  54.293  1.00  0.00    -0.322 N 
HETATM    5  C9  UNL     1      22.764  -0.421  53.513  1.00  0.00     0.046 A 
HETATM    6  C10 UNL     1      21.397  -0.681  53.464  1.00  0.00     0.042 A 
HETATM    7  C11 UNL     1      20.500  -0.180  52.556  1.00  0.00    -0.027 A 
HETATM    8  C18 UNL     1      20.959   0.671  51.577  1.00  0.00     0.013 A 
HETATM    9  C19 UNL     1      22.300   0.963  51.574  1.00  0.00     0.015 A 
HETATM   10  C20 UNL     1      23.158   0.429  52.515  1.00  0.00     0.003 A 
HETATM   11  H8  UNL     1      23.637  -1.436  55.084  1.00  0.00     0.169 HD
ENDROOT
BRANCH   1  12
HETATM   12  C6  UNL     1      25.523   1.305  52.045  1.00  0.00     0.060 C 
BRANCH  12  13
HETATM   13  C5  UNL     1      26.364   2.093  51.249  1.00  0.00    -0.009 C 
HETATM   14  C4  UNL     1      25.770   3.159  50.706  1.00  0.00    -0.059 C 
HETATM   15  C3  UNL     1      26.443   4.081  49.869  1.00  0.00     0.034 C 
HETATM   16  C21 UNL     1      24.343   3.344  51.000  1.00  0.00     0.048 C 
HETATM   17  C2  UNL     1      26.914   5.026  49.103  1.00  0.00     0.034 C 
HETATM   18  C24 UNL     1      26.011   6.193  48.783  1.00  0.00     0.177 C 
HETATM   19  O4  UNL     1      24.741   5.707  48.439  1.00  0.00    -0.310 OA
HETATM   20  C25 UNL     1      26.002   7.149  49.957  1.00  0.00     0.046 C 
HETATM   21  C23 UNL     1      23.835   4.777  49.019  1.00  0.00     0.259 C 
HETATM   22  C22 UNL     1      23.645   4.524  50.451  1.00  0.00     0.116 C 
HETATM   23  O3  UNL     1      23.070   4.043  48.330  1.00  0.00    -0.265 OA
BRANCH  17  24
HETATM   24  N1  UNL     1      28.204   5.078  48.534  1.00  0.00    -0.395 N 
HETATM   25  C1  UNL     1      28.935   6.168  47.971  1.00  0.00     0.146 C 
HETATM   26  H4  UNL     1      28.790   4.197  48.482  1.00  0.00     0.159 HD
ENDBRANCH  17  24
ENDBRANCH  12  13
ENDBRANCH   1  12
BRANCH   7  27
HETATM   27  C12 UNL     1      19.089  -0.532  52.623  1.00  0.00    -0.042 A 
HETATM   28  C13 UNL     1      18.152   0.074  51.899  1.00  0.00     0.044 A 
HETATM   29  C14 UNL     1      16.871  -0.506  52.197  1.00  0.00     0.065 A 
HETATM   30  C16 UNL     1      17.012  -1.461  53.098  1.00  0.00     0.014 A 
HETATM   31  C17 UNL     1      18.462  -1.573  53.467  1.00  0.00     0.069 A 
BRANCH  29  32
HETATM   32  O2  UNL     1      15.598  -0.204  51.688  1.00  0.00    -0.356 OA
HETATM   33  C15 UNL     1      14.478  -0.638  52.425  1.00  0.00     0.210 C 
ENDBRANCH  29  32
ENDBRANCH   7  27
TORSDOF 5
ENDMDL
MODEL 4
REMARK VINA RESULT:      -8.9      3.922     10.475
REMARK  5 active torsions:
REMARK  status: ('A' for Active; 'I' for Inactive)
REMARK    1  A    between atoms: N1_2  and  C2_3 
REMARK    2  A    between atoms: C5_6  and  C6_7 
REMARK    3  A    between atoms: C6_7  and  C7_8 
REMARK    4  A    between atoms: C11_14  and  C12_15 
REMARK    5  A    between atoms: C14_17  and  O2_18 
ROOT
HETATM    1  C7  UNL     1      20.457   1.859  52.063  1.00  0.00     0.031 A 
HETATM    2  C8  UNL     1      19.762   2.728  51.111  1.00  0.00     0.253 A 
HETATM    3  O1  UNL     1      19.755   3.793  50.402  1.00  0.00    -0.268 OA
HETATM    4  N2  UNL     1      18.524   2.085  50.860  1.00  0.00    -0.322 N 
HETATM    5  C9  UNL     1      18.433   0.885  51.603  1.00  0.00     0.046 A 
HETATM    6  C10 UNL     1      17.535  -0.160  51.804  1.00  0.00     0.042 A 
HETATM    7  C11 UNL     1      17.712  -1.248  52.619  1.00  0.00    -0.027 A 
HETATM    8  C18 UNL     1      18.887  -1.355  53.328  1.00  0.00     0.013 A 
HETATM    9  C19 UNL     1      19.811  -0.353  53.171  1.00  0.00     0.015 A 
HETATM   10  C20 UNL     1      19.577   0.721  52.334  1.00  0.00     0.003 A 
HETATM   11  H8  UNL     1      17.656   2.259  50.273  1.00  0.00     0.169 HD
ENDROOT
BRANCH   1  12
HETATM   12  C6  UNL     1      21.618   2.273  52.420  1.00  0.00     0.060 C 
BRANCH  12  13
HETATM   13  C5  UNL     1      22.965   2.552  52.683  1.00  0.00    -0.009 C 
HETATM   14  C4  UNL     1      23.696   1.485  53.016  1.00  0.00    -0.059 C 
HETATM   15  C3  UNL     1      25.075   1.552  53.322  1.00  0.00     0.034 C 
HETATM   16  C21 UNL     1      22.994   0.196  53.074  1.00  0.00     0.048 C 
HETATM   17  C2  UNL     1      26.342   1.437  53.610  1.00  0.00     0.034 C 
HETATM   18  C24 UNL     1      26.904   0.046  53.792  1.00  0.00     0.177 C 
HETATM   19  O4  UNL     1      26.026  -0.698  54.594  1.00  0.00    -0.310 OA
HETATM   20  C25 UNL     1      27.157  -0.567  52.431  1.00  0.00     0.046 C 
HETATM   21  C23 UNL     1      24.625  -0.938  54.589  1.00  0.00     0.259 C 
HETATM   22  C22 UNL     1      23.761  -1.022  53.407  1.00  0.00     0.116 C 
HETATM   23  O3  UNL     1      23.954  -1.110  55.647  1.00  0.00    -0.265 OA
BRANCH  17  24
HETATM   24  N1  UNL     1      27.265   2.492  53.768  1.00  0.00    -0.395 N 
HETATM   25  C1  UNL     1      28.691   2.507  53.697  1.00  0.00     0.146 C 
HETATM   26  H4  UNL     1      26.913   3.470  53.975  1.00  0.00     0.159 HD
ENDBRANCH  17  24
ENDBRANCH  12  13
ENDBRANCH   1  12
BRANCH   7  27
HETATM   27  C12 UNL     1      16.688  -2.276  52.733  1.00  0.00    -0.042 A 
HETATM   28  C13 UNL     1      16.905  -3.462  53.296  1.00  0.00     0.044 A 
HETATM   29  C14 UNL     1      15.697  -4.239  53.250  1.00  0.00     0.065 A 
HETATM   30  C16 UNL     1      14.741  -3.543  52.663  1.00  0.00     0.014 A 
HETATM   31  C17 UNL     1      15.286  -2.202  52.267  1.00  0.00     0.069 A 
BRANCH  29  32
HETATM   32  O2  UNL     1      15.435  -5.537  53.715  1.00  0.00    -0.356 OA
HETATM   33  C15 UNL     1      15.508  -5.763  55.105  1.00  0.00     0.210 C 
ENDBRANCH  29  32
ENDBRANCH   7  27
TORSDOF 5
ENDMDL
MODEL 5
REMARK VINA RESULT:      -8.9      4.122     11.402
REMARK  5 active torsions:
REMARK  status: ('A' for Active; 'I' for Inactive)
REMARK    1  A    between atoms: N1_2  and  C2_3 
REMARK    2  A    between atoms: C5_6  and  C6_7 
REMARK    3  A    between atoms: C6_7  and  C7_8 
REMARK    4  A    between atoms: C11_14  and  C12_15 
REMARK    5  A    between atoms: C14_17  and  O2_18 
ROOT
HETATM    1  C7  UNL     1      25.883   5.971  48.830  1.00  0.00     0.031 A 
HETATM    2  C8  UNL     1      24.563   6.605  48.829  1.00  0.00     0.253 A 
HETATM    3  O1  UNL     1      23.811   7.571  48.454  1.00  0.00    -0.268 OA
HETATM    4  N2  UNL     1      23.740   5.747  49.600  1.00  0.00    -0.322 N 
HETATM    5  C9  UNL     1      24.484   4.637  50.064  1.00  0.00     0.046 A 
HETATM    6  C10 UNL     1      24.291   3.489  50.828  1.00  0.00     0.042 A 
HETATM    7  C11 UNL     1      25.232   2.540  51.134  1.00  0.00    -0.027 A 
HETATM    8  C18 UNL     1      26.512   2.704  50.654  1.00  0.00     0.013 A 
HETATM    9  C19 UNL     1      26.762   3.819  49.895  1.00  0.00     0.015 A 
HETATM   10  C20 UNL     1      25.773   4.742  49.618  1.00  0.00     0.003 A 
HETATM   11  H8  UNL     1      22.728   5.712  49.920  1.00  0.00     0.169 HD
ENDROOT
BRANCH   1  12
HETATM   12  C6  UNL     1      26.784   6.603  48.171  1.00  0.00     0.060 C 
BRANCH  12  13
HETATM   13  C5  UNL     1      27.684   7.481  47.553  1.00  0.00    -0.009 C 
HETATM   14  C4  UNL     1      28.945   7.041  47.511  1.00  0.00    -0.059 C 
HETATM   15  C3  UNL     1      30.006   7.776  46.932  1.00  0.00     0.034 C 
HETATM   16  C21 UNL     1      29.208   5.730  48.120  1.00  0.00     0.048 C 
HETATM   17  C2  UNL     1      31.083   8.310  46.428  1.00  0.00     0.034 C 
HETATM   18  C24 UNL     1      32.342   7.475  46.402  1.00  0.00     0.177 C 
HETATM   19  O4  UNL     1      32.499   6.847  47.646  1.00  0.00    -0.310 OA
HETATM   20  C25 UNL     1      32.273   6.511  45.236  1.00  0.00     0.046 C 
HETATM   21  C23 UNL     1      31.651   6.087  48.498  1.00  0.00     0.259 C 
HETATM   22  C22 UNL     1      30.578   5.181  48.074  1.00  0.00     0.116 C 
HETATM   23  O3  UNL     1      31.740   6.116  49.758  1.00  0.00    -0.265 OA
BRANCH  17  24
HETATM   24  N1  UNL     1      31.201   9.608  45.887  1.00  0.00    -0.395 N 
HETATM   25  C1  UNL     1      30.589  10.840  46.268  1.00  0.00     0.146 C 
HETATM   26  H4  UNL     1      31.837   9.773  45.055  1.00  0.00     0.159 HD
ENDBRANCH  17  24
ENDBRANCH  12  13
ENDBRANCH   1  12
BRANCH   7  27
HETATM   27  C12 UNL     1      24.892   1.379  51.944  1.00  0.00    -0.042 A 
HETATM   28  C13 UNL     1      23.645   1.073  52.291  1.00  0.00     0.044 A 
HETATM   29  C14 UNL     1      23.652  -0.125  53.084  1.00  0.00     0.065 A 
HETATM   30  C16 UNL     1      24.892  -0.558  53.227  1.00  0.00     0.014 A 
HETATM   31  C17 UNL     1      25.820   0.374  52.505  1.00  0.00     0.069 A 
BRANCH  29  32
HETATM   32  O2  UNL     1      22.591  -0.830  53.672  1.00  0.00    -0.356 OA
HETATM   33  C15 UNL     1      22.731  -1.222  55.020  1.00  0.00     0.210 C 
ENDBRANCH  29  32
ENDBRANCH   7  27
TORSDOF 5
ENDMDL
MODEL 6
REMARK VINA RESULT:      -8.7      4.276     11.977
REMARK  5 active torsions:
REMARK  status: ('A' for Active; 'I' for Inactive)
REMARK    1  A    between atoms: N1_2  and  C2_3 
REMARK    2  A    between atoms: C5_6  and  C6_7 
REMARK    3  A    between atoms: C6_7  and  C7_8 
REMARK    4  A    between atoms: C11_14  and  C12_15 
REMARK    5  A    between atoms: C14_17  and  O2_18 
ROOT
HETATM    1  C7  UNL     1      27.341   6.823  48.500  1.00  0.00     0.031 A 
HETATM    2  C8  UNL     1      26.524   7.976  48.884  1.00  0.00     0.253 A 
HETATM    3  O1  UNL     1      26.323   9.239  48.846  1.00  0.00    -0.268 OA
HETATM    4  N2  UNL     1      25.462   7.436  49.653  1.00  0.00    -0.322 N 
HETATM    5  C9  UNL     1      25.592   6.031  49.754  1.00  0.00     0.046 A 
HETATM    6  C10 UNL     1      24.927   4.954  50.335  1.00  0.00     0.042 A 
HETATM    7  C11 UNL     1      25.292   3.634  50.270  1.00  0.00    -0.027 A 
HETATM    8  C18 UNL     1      26.428   3.299  49.567  1.00  0.00     0.013 A 
HETATM    9  C19 UNL     1      27.126   4.320  48.974  1.00  0.00     0.015 A 
HETATM   10  C20 UNL     1      26.709   5.633  49.072  1.00  0.00     0.003 A 
HETATM   11  H8  UNL     1      24.606   7.796  50.168  1.00  0.00     0.169 HD
ENDROOT
BRANCH   1  12
HETATM   12  C6  UNL     1      28.368   7.107  47.785  1.00  0.00     0.060 C 
BRANCH  12  13
HETATM   13  C5  UNL     1      29.347   7.553  46.888  1.00  0.00    -0.009 C 
HETATM   14  C4  UNL     1      30.467   6.826  46.887  1.00  0.00    -0.059 C 
HETATM   15  C3  UNL     1      31.577   7.110  46.057  1.00  0.00     0.034 C 
HETATM   16  C21 UNL     1      30.521   5.692  47.819  1.00  0.00     0.048 C 
HETATM   17  C2  UNL     1      32.670   7.221  45.352  1.00  0.00     0.034 C 
HETATM   18  C24 UNL     1      33.706   6.128  45.476  1.00  0.00     0.177 C 
HETATM   19  O4  UNL     1      33.885   5.822  46.833  1.00  0.00    -0.310 OA
HETATM   20  C25 UNL     1      33.281   4.945  44.633  1.00  0.00     0.046 C 
HETATM   21  C23 UNL     1      33.012   5.532  47.918  1.00  0.00     0.259 C 
HETATM   22  C22 UNL     1      31.724   4.835  47.836  1.00  0.00     0.116 C 
HETATM   23  O3  UNL     1      33.267   5.860  49.111  1.00  0.00    -0.265 OA
BRANCH  17  24
HETATM   24  N1  UNL     1      32.992   8.269  44.464  1.00  0.00    -0.395 N 
HETATM   25  C1  UNL     1      32.210   9.364  43.986  1.00  0.00     0.146 C 
HETATM   26  H4  UNL     1      33.962   8.317  44.041  1.00  0.00     0.159 HD
ENDBRANCH  17  24
ENDBRANCH  12  13
ENDBRANCH   1  12
BRANCH   7  27
HETATM   27  C12 UNL     1      24.499   2.603  50.923  1.00  0.00    -0.042 A 
HETATM   28  C13 UNL     1      24.958   1.854  51.922  1.00  0.00     0.044 A 
HETATM   29  C14 UNL     1      23.933   0.938  52.340  1.00  0.00     0.065 A 
HETATM   30  C16 UNL     1      22.849   1.116  51.607  1.00  0.00     0.014 A 
HETATM   31  C17 UNL     1      23.107   2.211  50.613  1.00  0.00     0.069 A 
BRANCH  29  32
HETATM   32  O2  UNL     1      23.944  -0.038  53.349  1.00  0.00    -0.356 OA
HETATM   33  C15 UNL     1      25.194  -0.415  53.882  1.00  0.00     0.210 C 
ENDBRANCH  29  32
ENDBRANCH   7  27
TORSDOF 5
ENDMDL
MODEL 7
REMARK VINA RESULT:      -8.6      2.143      3.411
REMARK  5 active torsions:
REMARK  status: ('A' for Active; 'I' for Inactive)
REMARK    1  A    between atoms: N1_2  and  C2_3 
REMARK    2  A    between atoms: C5_6  and  C6_7 
REMARK    3  A    between atoms: C6_7  and  C7_8 
REMARK    4  A    between atoms: C11_14  and  C12_15 
REMARK    5  A    between atoms: C14_17  and  O2_18 
ROOT
HETATM    1  C7  UNL     1      20.942  -0.338  53.179  1.00  0.00     0.031 A 
HETATM    2  C8  UNL     1      21.772  -0.972  54.206  1.00  0.00     0.253 A 
HETATM    3  O1  UNL     1      21.872  -1.797  55.180  1.00  0.00    -0.268 OA
HETATM    4  N2  UNL     1      23.062  -0.410  54.038  1.00  0.00    -0.322 N 
HETATM    5  C9  UNL     1      23.058   0.523  52.975  1.00  0.00     0.046 A 
HETATM    6  C10 UNL     1      23.944   1.380  52.326  1.00  0.00     0.042 A 
HETATM    7  C11 UNL     1      23.657   2.211  51.274  1.00  0.00    -0.027 A 
HETATM    8  C18 UNL     1      22.373   2.229  50.780  1.00  0.00     0.013 A 
HETATM    9  C19 UNL     1      21.455   1.406  51.381  1.00  0.00     0.015 A 
HETATM   10  C20 UNL     1      21.801   0.588  52.439  1.00  0.00     0.003 A 
HETATM   11  H8  UNL     1      24.019  -0.497  54.490  1.00  0.00     0.169 HD
ENDROOT
BRANCH   1  12
HETATM   12  C6  UNL     1      19.719  -0.723  53.164  1.00  0.00     0.060 C 
BRANCH  12  13
HETATM   13  C5  UNL     1      18.433  -1.248  53.344  1.00  0.00    -0.009 C 
HETATM   14  C4  UNL     1      17.583  -0.981  52.348  1.00  0.00    -0.059 C 
HETATM   15  C3  UNL     1      16.237  -1.418  52.337  1.00  0.00     0.034 C 
HETATM   16  C21 UNL     1      18.101  -0.177  51.234  1.00  0.00     0.048 C 
HETATM   17  C2  UNL     1      14.989  -1.755  52.162  1.00  0.00     0.034 C 
HETATM   18  C24 UNL     1      14.346  -1.426  50.836  1.00  0.00     0.177 C 
HETATM   19  O4  UNL     1      14.676  -0.108  50.484  1.00  0.00    -0.310 OA
HETATM   20  C25 UNL     1      14.769  -2.456  49.810  1.00  0.00     0.046 C 
HETATM   21  C23 UNL     1      15.883   0.640  50.426  1.00  0.00     0.259 C 
HETATM   22  C22 UNL     1      17.213   0.121  50.092  1.00  0.00     0.116 C 
HETATM   23  O3  UNL     1      15.935   1.879  50.668  1.00  0.00    -0.265 OA
BRANCH  17  24
HETATM   24  N1  UNL     1      14.161  -2.414  53.095  1.00  0.00    -0.395 N 
HETATM   25  C1  UNL     1      12.739  -2.523  53.171  1.00  0.00     0.146 C 
HETATM   26  H4  UNL     1      14.598  -2.940  53.905  1.00  0.00     0.159 HD
ENDBRANCH  17  24
ENDBRANCH  12  13
ENDBRANCH   1  12
BRANCH   7  27
HETATM   27  C12 UNL     1      24.686   3.055  50.683  1.00  0.00    -0.042 A 
HETATM   28  C13 UNL     1      24.584   4.379  50.604  1.00  0.00     0.044 A 
HETATM   29  C14 UNL     1      25.760   4.910  49.971  1.00  0.00     0.065 A 
HETATM   30  C16 UNL     1      26.582   3.924  49.660  1.00  0.00     0.014 A 
HETATM   31  C17 UNL     1      25.969   2.624  50.087  1.00  0.00     0.069 A 
BRANCH  29  32
HETATM   32  O2  UNL     1      26.110   6.236  49.672  1.00  0.00    -0.356 OA
HETATM   33  C15 UNL     1      26.301   6.573  48.316  1.00  0.00     0.210 C 
ENDBRANCH  29  32
ENDBRANCH   7  27
TORSDOF 5
ENDMDL
MODEL 8
REMARK VINA RESULT:      -8.5      4.639     10.648
REMARK  5 active torsions:
REMARK  status: ('A' for Active; 'I' for Inactive)
REMARK    1  A    between atoms: N1_2  and  C2_3 
REMARK    2  A    between atoms: C5_6  and  C6_7 
REMARK    3  A    between atoms: C6_7  and  C7_8 
REMARK    4  A    between atoms: C11_14  and  C12_15 
REMARK    5  A    between atoms: C14_17  and  O2_18 
ROOT
HETATM    1  C7  UNL     1      24.830   5.823  49.274  1.00  0.00     0.031 A 
HETATM    2  C8  UNL     1      23.547   6.236  49.848  1.00  0.00     0.253 A 
HETATM    3  O1  UNL     1      22.581   7.076  49.884  1.00  0.00    -0.268 OA
HETATM    4  N2  UNL     1      23.232   5.240  50.806  1.00  0.00    -0.322 N 
HETATM    5  C9  UNL     1      24.247   4.255  50.842  1.00  0.00     0.046 A 
HETATM    6  C10 UNL     1      24.540   3.074  51.521  1.00  0.00     0.042 A 
HETATM    7  C11 UNL     1      25.647   2.284  51.349  1.00  0.00    -0.027 A 
HETATM    8  C18 UNL     1      26.588   2.662  50.419  1.00  0.00     0.013 A 
HETATM    9  C19 UNL     1      26.353   3.819  49.720  1.00  0.00     0.015 A 
HETATM   10  C20 UNL     1      25.218   4.576  49.935  1.00  0.00     0.003 A 
HETATM   11  H8  UNL     1      22.451   5.035  51.495  1.00  0.00     0.169 HD
ENDROOT
BRANCH   1  12
HETATM   12  C6  UNL     1      25.291   6.608  48.370  1.00  0.00     0.060 C 
BRANCH  12  13
HETATM   13  C5  UNL     1      25.684   7.628  47.495  1.00  0.00    -0.009 C 
HETATM   14  C4  UNL     1      27.006   7.790  47.393  1.00  0.00    -0.059 C 
HETATM   15  C3  UNL     1      27.608   8.766  46.565  1.00  0.00     0.034 C 
HETATM   16  C21 UNL     1      27.846   6.902  48.208  1.00  0.00     0.048 C 
HETATM   17  C2  UNL     1      28.317   9.592  45.846  1.00  0.00     0.034 C 
HETATM   18  C24 UNL     1      29.817   9.413  45.835  1.00  0.00     0.177 C 
HETATM   19  O4  UNL     1      30.262   9.214  47.150  1.00  0.00    -0.310 OA
HETATM   20  C25 UNL     1      30.174   8.283  44.892  1.00  0.00     0.046 C 
HETATM   21  C23 UNL     1      29.867   8.370  48.224  1.00  0.00     0.259 C 
HETATM   22  C22 UNL     1      29.315   7.016  48.109  1.00  0.00     0.116 C 
HETATM   23  O3  UNL     1      29.953   8.716  49.437  1.00  0.00    -0.265 OA
BRANCH  17  24
HETATM   24  N1  UNL     1      27.824  10.652  45.056  1.00  0.00    -0.395 N 
HETATM   25  C1  UNL     1      27.574  12.021  45.377  1.00  0.00     0.146 C 
HETATM   26  H4  UNL     1      27.576  10.478  44.041  1.00  0.00     0.159 HD
ENDBRANCH  17  24
ENDBRANCH  12  13
ENDBRANCH   1  12
BRANCH   7  27
HETATM   27  C12 UNL     1      25.827   1.066  52.125  1.00  0.00    -0.042 A 
HETATM   28  C13 UNL     1      26.984   0.413  52.198  1.00  0.00     0.044 A 
HETATM   29  C14 UNL     1      26.827  -0.741  53.041  1.00  0.00     0.065 A 
HETATM   30  C16 UNL     1      25.586  -0.803  53.485  1.00  0.00     0.014 A 
HETATM   31  C17 UNL     1      24.812   0.359  52.935  1.00  0.00     0.069 A 
BRANCH  29  32
HETATM   32  O2  UNL     1      27.757  -1.723  53.416  1.00  0.00    -0.356 OA
HETATM   33  C15 UNL     1      29.126  -1.391  53.348  1.00  0.00     0.210 C 
ENDBRANCH  29  32
ENDBRANCH   7  27
TORSDOF 5
ENDMDL
MODEL 9
REMARK VINA RESULT:      -8.5      4.310      5.540
REMARK  5 active torsions:
REMARK  status: ('A' for Active; 'I' for Inactive)
REMARK    1  A    between atoms: N1_2  and  C2_3 
REMARK    2  A    between atoms: C5_6  and  C6_7 
REMARK    3  A    between atoms: C6_7  and  C7_8 
REMARK    4  A    between atoms: C11_14  and  C12_15 
REMARK    5  A    between atoms: C14_17  and  O2_18 
ROOT
HETATM    1  C7  UNL     1      20.265   0.403  52.489  1.00  0.00     0.031 A 
HETATM    2  C8  UNL     1      20.243   1.630  51.690  1.00  0.00     0.253 A 
HETATM    3  O1  UNL     1      19.573   2.490  51.019  1.00  0.00    -0.268 OA
HETATM    4  N2  UNL     1      21.592   2.063  51.639  1.00  0.00    -0.322 N 
HETATM    5  C9  UNL     1      22.422   1.172  52.359  1.00  0.00     0.046 A 
HETATM    6  C10 UNL     1      23.767   1.021  52.685  1.00  0.00     0.042 A 
HETATM    7  C11 UNL     1      24.322   0.015  53.433  1.00  0.00    -0.027 A 
HETATM    8  C18 UNL     1      23.496  -0.967  53.931  1.00  0.00     0.013 A 
HETATM    9  C19 UNL     1      22.158  -0.872  53.641  1.00  0.00     0.015 A 
HETATM   10  C20 UNL     1      21.655   0.166  52.882  1.00  0.00     0.003 A 
HETATM   11  H8  UNL     1      22.141   2.864  51.212  1.00  0.00     0.169 HD
ENDROOT
BRANCH   1  12
HETATM   12  C6  UNL     1      19.119  -0.150  52.656  1.00  0.00     0.060 C 
BRANCH  12  13
HETATM   13  C5  UNL     1      17.978  -0.893  52.983  1.00  0.00    -0.009 C 
HETATM   14  C4  UNL     1      17.073  -0.976  52.003  1.00  0.00    -0.059 C 
HETATM   15  C3  UNL     1      15.852  -1.677  52.131  1.00  0.00     0.034 C 
HETATM   16  C21 UNL     1      17.390  -0.277  50.751  1.00  0.00     0.048 C 
HETATM   17  C2  UNL     1      14.701  -2.290  52.077  1.00  0.00     0.034 C 
HETATM   18  C24 UNL     1      13.979  -2.324  50.750  1.00  0.00     0.177 C 
HETATM   19  O4  UNL     1      14.015  -1.044  50.179  1.00  0.00    -0.310 OA
HETATM   20  C25 UNL     1      14.594  -3.399  49.879  1.00  0.00     0.046 C 
HETATM   21  C23 UNL     1      15.034  -0.081  49.941  1.00  0.00     0.259 C 
HETATM   22  C22 UNL     1      16.439  -0.362  49.624  1.00  0.00     0.116 C 
HETATM   23  O3  UNL     1      14.826   1.164  49.982  1.00  0.00    -0.265 OA
BRANCH  17  24
HETATM   24  N1  UNL     1      14.048  -2.943  53.143  1.00  0.00    -0.395 N 
HETATM   25  C1  UNL     1      12.661  -3.057  53.462  1.00  0.00     0.146 C 
HETATM   26  H4  UNL     1      14.620  -3.459  53.871  1.00  0.00     0.159 HD
ENDBRANCH  17  24
ENDBRANCH  12  13
ENDBRANCH   1  12
BRANCH   7  27
HETATM   27  C12 UNL     1      25.752  -0.018  53.704  1.00  0.00    -0.042 A 
HETATM   28  C13 UNL     1      26.633  -0.598  52.894  1.00  0.00     0.044 A 
HETATM   29  C14 UNL     1      27.952  -0.456  53.446  1.00  0.00     0.065 A 
HETATM   30  C16 UNL     1      27.889   0.206  54.587  1.00  0.00     0.014 A 
HETATM   31  C17 UNL     1      26.458   0.554  54.871  1.00  0.00     0.069 A 
BRANCH  29  32
HETATM   32  O2  UNL     1      29.192  -0.896  52.958  1.00  0.00    -0.356 OA
HETATM   33  C15 UNL     1      30.130  -1.380  53.893  1.00  0.00     0.210 C 
ENDBRANCH  29  32
ENDBRANCH   7  27
TORSDOF 5
ENDMDL
