MODEL 1
REMARK VINA RESULT:      -8.5      0.000      0.000
REMARK  7 active torsions:
REMARK  status: ('A' for Active; 'I' for Inactive)
REMARK    1  A    between atoms: C1_2  and  O2_3 
REMARK    2  A    between atoms: O2_3  and  C2_4 
REMARK    3  A    between atoms: C2_4  and  C3_6 
REMARK    4  A    between atoms: C3_6  and  O4_7 
REMARK    5  A    between atoms: O4_7  and  C4_8 
REMARK    6  A    between atoms: C6_10  and  O5_11 
REMARK    7  A    between atoms: C10_16  and  C11_17 
ROOT
HETATM    1  C4  UNL     1      25.898   0.434  53.333  1.00  0.00     0.074 A 
HETATM    2  C5  UNL     1      25.981  -0.282  54.515  1.00  0.00     0.074 A 
HETATM    3  C6  UNL     1      24.832  -0.836  55.029  1.00  0.00     0.077 A 
HETATM    4  C7  UNL     1      23.621  -0.697  54.405  1.00  0.00     0.013 A 
HETATM    5  C8  UNL     1      23.508   0.009  53.231  1.00  0.00     0.088 A 
HETATM    6  C9  UNL     1      24.659   0.570  52.705  1.00  0.00     0.074 A 
HETATM    7  O6  UNL     1      22.270   0.135  52.621  1.00  0.00    -0.310 OA
HETATM    8  C10 UNL     1      21.134  -0.441  53.175  1.00  0.00     0.083 A 
HETATM    9  C17 UNL     1      21.263  -1.115  54.304  1.00  0.00     0.016 A 
HETATM   10  C18 UNL     1      22.493  -1.356  55.098  1.00  0.00     0.074 A 
ENDROOT
BRANCH   1  11
HETATM   11  O4  UNL     1      26.960   1.051  52.688  1.00  0.00    -0.341 OA
BRANCH  11  12
HETATM   12  C3  UNL     1      27.641   2.094  53.366  1.00  0.00     0.287 C 
BRANCH  12  13
HETATM   13  C2  UNL     1      28.946   1.533  53.830  1.00  0.00     0.290 C 
HETATM   14  O3  UNL     1      29.285   2.205  54.834  1.00  0.00    -0.262 OA
BRANCH  13  15
HETATM   15  O2  UNL     1      29.636   0.490  53.269  1.00  0.00    -0.251 OA
BRANCH  15  16
HETATM   16  C1  UNL     1      29.698  -0.711  53.986  1.00  0.00     0.406 C 
HETATM   17  O1  UNL     1      28.966  -1.677  53.586  1.00  0.00    -0.276 OA
ENDBRANCH  15  16
ENDBRANCH  13  15
ENDBRANCH  12  13
ENDBRANCH  11  12
ENDBRANCH   1  11
BRANCH   3  18
HETATM   18  O5  UNL     1      25.002  -1.546  56.230  1.00  0.00    -0.360 OA
HETATM   19  H5  UNL     1      25.130  -2.549  56.258  1.00  0.00     0.217 HD
ENDBRANCH   3  18
BRANCH   8  20
HETATM   20  C11 UNL     1      19.857  -0.289  52.509  1.00  0.00    -0.003 A 
HETATM   21  C12 UNL     1      18.710  -0.839  53.069  1.00  0.00     0.014 A 
HETATM   22  C13 UNL     1      17.450  -0.751  52.519  1.00  0.00     0.001 A 
HETATM   23  C14 UNL     1      17.288  -0.076  51.327  1.00  0.00     0.000 A 
HETATM   24  C15 UNL     1      18.410   0.480  50.750  1.00  0.00     0.001 A 
HETATM   25  C16 UNL     1      19.651   0.368  51.336  1.00  0.00     0.014 A 
ENDBRANCH   8  20
TORSDOF 7
ENDMDL
MODEL 2
REMARK VINA RESULT:      -8.2      4.114      7.266
REMARK  7 active torsions:
REMARK  status: ('A' for Active; 'I' for Inactive)
REMARK    1  A    between atoms: C1_2  and  O2_3 
REMARK    2  A    between atoms: O2_3  and  C2_4 
REMARK    3  A    between atoms: C2_4  and  C3_6 
REMARK    4  A    between atoms: C3_6  and  O4_7 
REMARK    5  A    between atoms: O4_7  and  C4_8 
REMARK    6  A    between atoms: C6_10  and  O5_11 
REMARK    7  A    between atoms: C10_16  and  C11_17 
ROOT
HETATM    1  C4  UNL     1      26.004   0.731  52.462  1.00  0.00     0.074 A 
HETATM    2  C5  UNL     1      24.627   0.761  52.330  1.00  0.00     0.074 A 
HETATM    3  C6  UNL     1      24.066   1.713  51.511  1.00  0.00     0.077 A 
HETATM    4  C7  UNL     1      24.831   2.623  50.832  1.00  0.00     0.013 A 
HETATM    5  C8  UNL     1      26.201   2.618  50.944  1.00  0.00     0.088 A 
HETATM    6  C9  UNL     1      26.775   1.663  51.765  1.00  0.00     0.074 A 
HETATM    7  O6  UNL     1      26.952   3.551  50.245  1.00  0.00    -0.310 OA
HETATM    8  C10 UNL     1      26.344   4.495  49.430  1.00  0.00     0.083 A 
HETATM    9  C17 UNL     1      25.026   4.484  49.335  1.00  0.00     0.016 A 
HETATM   10  C18 UNL     1      24.062   3.573  49.999  1.00  0.00     0.074 A 
ENDROOT
BRANCH   1  11
HETATM   11  O4  UNL     1      26.720  -0.162  53.245  1.00  0.00    -0.341 OA
BRANCH  11  12
HETATM   12  C3  UNL     1      27.211   0.287  54.497  1.00  0.00     0.287 C 
BRANCH  12  13
HETATM   13  C2  UNL     1      28.684   0.493  54.340  1.00  0.00     0.290 C 
HETATM   14  O3  UNL     1      29.004   1.399  55.147  1.00  0.00    -0.262 OA
BRANCH  13  15
HETATM   15  O2  UNL     1      29.517  -0.177  53.484  1.00  0.00    -0.251 OA
BRANCH  15  16
HETATM   16  C1  UNL     1      29.902  -1.478  53.833  1.00  0.00     0.406 C 
HETATM   17  O1  UNL     1      29.176  -2.441  53.417  1.00  0.00    -0.276 OA
ENDBRANCH  15  16
ENDBRANCH  13  15
ENDBRANCH  12  13
ENDBRANCH  11  12
ENDBRANCH   1  11
BRANCH   3  18
HETATM   18  O5  UNL     1      22.663   1.675  51.432  1.00  0.00    -0.360 OA
HETATM   19  H5  UNL     1      22.074   2.395  51.829  1.00  0.00     0.217 HD
ENDBRANCH   3  18
BRANCH   8  20
HETATM   20  C11 UNL     1      27.161   5.455  48.715  1.00  0.00    -0.003 A 
HETATM   21  C12 UNL     1      28.498   5.172  48.455  1.00  0.00     0.014 A 
HETATM   22  C13 UNL     1      29.359   6.013  47.785  1.00  0.00     0.001 A 
HETATM   23  C14 UNL     1      28.888   7.226  47.329  1.00  0.00     0.000 A 
HETATM   24  C15 UNL     1      27.565   7.531  47.573  1.00  0.00     0.001 A 
HETATM   25  C16 UNL     1      26.740   6.659  48.248  1.00  0.00     0.014 A 
ENDBRANCH   8  20
TORSDOF 7
ENDMDL
MODEL 3
REMARK VINA RESULT:      -8.1      2.547      3.590
REMARK  7 active torsions:
REMARK  status: ('A' for Active; 'I' for Inactive)
REMARK    1  A    between atoms: C1_2  and  O2_3 
REMARK    2  A    between atoms: O2_3  and  C2_4 
REMARK    3  A    between atoms: C2_4  and  C3_6 
REMARK    4  A    between atoms: C3_6  and  O4_7 
REMARK    5  A    between atoms: O4_7  and  C4_8 
REMARK    6  A    between atoms: C6_10  and  O5_11 
REMARK    7  A    between atoms: C10_16  and  C11_17 
ROOT
HETATM    1  C4  UNL     1      25.668  -0.441  54.477  1.00  0.00     0.074 A 
HETATM    2  C5  UNL     1      24.625  -1.046  55.157  1.00  0.00     0.074 A 
HETATM    3  C6  UNL     1      23.355  -0.939  54.641  1.00  0.00     0.077 A 
HETATM    4  C7  UNL     1      23.101  -0.255  53.483  1.00  0.00     0.013 A 
HETATM    5  C8  UNL     1      24.117   0.357  52.786  1.00  0.00     0.088 A 
HETATM    6  C9  UNL     1      25.399   0.254  53.298  1.00  0.00     0.074 A 
HETATM    7  O6  UNL     1      23.832   1.043  51.616  1.00  0.00    -0.310 OA
HETATM    8  C10 UNL     1      22.534   1.126  51.131  1.00  0.00     0.083 A 
HETATM    9  C17 UNL     1      21.572   0.533  51.814  1.00  0.00     0.016 A 
HETATM   10  C18 UNL     1      21.680  -0.241  53.075  1.00  0.00     0.074 A 
ENDROOT
BRANCH   1  11
HETATM   11  O4  UNL     1      27.000  -0.457  54.865  1.00  0.00    -0.341 OA
BRANCH  11  12
HETATM   12  C3  UNL     1      27.981  -0.744  53.882  1.00  0.00     0.287 C 
BRANCH  12  13
HETATM   13  C2  UNL     1      29.069   0.269  54.043  1.00  0.00     0.290 C 
HETATM   14  O3  UNL     1      30.119  -0.267  53.612  1.00  0.00    -0.262 OA
BRANCH  13  15
HETATM   15  O2  UNL     1      28.943   1.531  54.559  1.00  0.00    -0.251 OA
BRANCH  15  16
HETATM   16  C1  UNL     1      28.761   2.588  53.659  1.00  0.00     0.406 C 
HETATM   17  O1  UNL     1      28.192   2.327  52.547  1.00  0.00    -0.276 OA
ENDBRANCH  15  16
ENDBRANCH  13  15
ENDBRANCH  12  13
ENDBRANCH  11  12
ENDBRANCH   1  11
BRANCH   3  18
HETATM   18  O5  UNL     1      22.355  -1.581  55.392  1.00  0.00    -0.360 OA
HETATM   19  H5  UNL     1      21.491  -1.911  54.981  1.00  0.00     0.217 HD
ENDBRANCH   3  18
BRANCH   8  20
HETATM   20  C11 UNL     1      22.275   1.852  49.904  1.00  0.00    -0.003 A 
HETATM   21  C12 UNL     1      23.080   2.930  49.550  1.00  0.00     0.014 A 
HETATM   22  C13 UNL     1      22.920   3.684  48.409  1.00  0.00     0.001 A 
HETATM   23  C14 UNL     1      21.896   3.372  47.540  1.00  0.00     0.000 A 
HETATM   24  C15 UNL     1      21.083   2.308  47.867  1.00  0.00     0.001 A 
HETATM   25  C16 UNL     1      21.280   1.580  49.020  1.00  0.00     0.014 A 
ENDBRANCH   8  20
TORSDOF 7
ENDMDL
MODEL 4
REMARK VINA RESULT:      -8.0      2.521      3.422
REMARK  7 active torsions:
REMARK  status: ('A' for Active; 'I' for Inactive)
REMARK    1  A    between atoms: C1_2  and  O2_3 
REMARK    2  A    between atoms: O2_3  and  C2_4 
REMARK    3  A    between atoms: C2_4  and  C3_6 
REMARK    4  A    between atoms: C3_6  and  O4_7 
REMARK    5  A    between atoms: O4_7  and  C4_8 
REMARK    6  A    between atoms: C6_10  and  O5_11 
REMARK    7  A    between atoms: C10_16  and  C11_17 
ROOT
HETATM    1  C4  UNL     1      25.442  -0.552  54.757  1.00  0.00     0.074 A 
HETATM    2  C5  UNL     1      24.374  -1.203  55.349  1.00  0.00     0.074 A 
HETATM    3  C6  UNL     1      23.140  -1.126  54.746  1.00  0.00     0.077 A 
HETATM    4  C7  UNL     1      22.947  -0.426  53.585  1.00  0.00     0.013 A 
HETATM    5  C8  UNL     1      23.989   0.232  52.974  1.00  0.00     0.088 A 
HETATM    6  C9  UNL     1      25.234   0.158  53.574  1.00  0.00     0.074 A 
HETATM    7  O6  UNL     1      23.765   0.933  51.800  1.00  0.00    -0.310 OA
HETATM    8  C10 UNL     1      22.503   0.985  51.225  1.00  0.00     0.083 A 
HETATM    9  C17 UNL     1      21.514   0.348  51.827  1.00  0.00     0.016 A 
HETATM   10  C18 UNL     1      21.558  -0.448  53.078  1.00  0.00     0.074 A 
ENDROOT
BRANCH   1  11
HETATM   11  O4  UNL     1      26.743  -0.534  55.238  1.00  0.00    -0.341 OA
BRANCH  11  12
HETATM   12  C3  UNL     1      27.594   0.525  54.831  1.00  0.00     0.287 C 
BRANCH  12  13
HETATM   13  C2  UNL     1      28.704  -0.087  54.039  1.00  0.00     0.290 C 
HETATM   14  O3  UNL     1      29.026   0.757  53.168  1.00  0.00    -0.262 OA
BRANCH  13  15
HETATM   15  O2  UNL     1      29.258  -1.326  54.227  1.00  0.00    -0.251 OA
BRANCH  15  16
HETATM   16  C1  UNL     1      29.086  -2.278  53.215  1.00  0.00     0.406 C 
HETATM   17  O1  UNL     1      27.897  -2.667  52.965  1.00  0.00    -0.276 OA
ENDBRANCH  15  16
ENDBRANCH  13  15
ENDBRANCH  12  13
ENDBRANCH  11  12
ENDBRANCH   1  11
BRANCH   3  18
HETATM   18  O5  UNL     1      22.111  -1.814  55.411  1.00  0.00    -0.360 OA
HETATM   19  H5  UNL     1      21.133  -1.583  55.290  1.00  0.00     0.217 HD
ENDBRANCH   3  18
BRANCH   8  20
HETATM   20  C11 UNL     1      22.307   1.728  49.996  1.00  0.00    -0.003 A 
HETATM   21  C12 UNL     1      23.090   2.846  49.727  1.00  0.00     0.014 A 
HETATM   22  C13 UNL     1      22.985   3.620  48.592  1.00  0.00     0.001 A 
HETATM   23  C14 UNL     1      22.046   3.285  47.640  1.00  0.00     0.000 A 
HETATM   24  C15 UNL     1      21.257   2.181  47.882  1.00  0.00     0.001 A 
HETATM   25  C16 UNL     1      21.396   1.435  49.032  1.00  0.00     0.014 A 
ENDBRANCH   8  20
TORSDOF 7
ENDMDL
MODEL 5
REMARK VINA RESULT:      -8.0      4.494      7.943
REMARK  7 active torsions:
REMARK  status: ('A' for Active; 'I' for Inactive)
REMARK    1  A    between atoms: C1_2  and  O2_3 
REMARK    2  A    between atoms: O2_3  and  C2_4 
REMARK    3  A    between atoms: C2_4  and  C3_6 
REMARK    4  A    between atoms: C3_6  and  O4_7 
REMARK    5  A    between atoms: O4_7  and  C4_8 
REMARK    6  A    between atoms: C6_10  and  O5_11 
REMARK    7  A    between atoms: C10_16  and  C11_17 
ROOT
HETATM    1  C4  UNL     1      25.654   1.093  51.873  1.00  0.00     0.074 A 
HETATM    2  C5  UNL     1      24.311   1.414  51.778  1.00  0.00     0.074 A 
HETATM    3  C6  UNL     1      23.950   2.516  51.039  1.00  0.00     0.077 A 
HETATM    4  C7  UNL     1      24.878   3.295  50.402  1.00  0.00     0.013 A 
HETATM    5  C8  UNL     1      26.219   3.001  50.479  1.00  0.00     0.088 A 
HETATM    6  C9  UNL     1      26.592   1.893  51.220  1.00  0.00     0.074 A 
HETATM    7  O6  UNL     1      27.139   3.806  49.825  1.00  0.00    -0.310 OA
HETATM    8  C10 UNL     1      26.730   4.910  49.089  1.00  0.00     0.083 A 
HETATM    9  C17 UNL     1      25.437   5.176  49.028  1.00  0.00     0.016 A 
HETATM   10  C18 UNL     1      24.313   4.439  49.655  1.00  0.00     0.074 A 
ENDROOT
BRANCH   1  11
HETATM   11  O4  UNL     1      26.178   0.018  52.577  1.00  0.00    -0.341 OA
BRANCH  11  12
HETATM   12  C3  UNL     1      25.461  -0.460  53.703  1.00  0.00     0.287 C 
BRANCH  12  13
HETATM   13  C2  UNL     1      26.270  -0.120  54.913  1.00  0.00     0.290 C 
HETATM   14  O3  UNL     1      25.781  -0.778  55.863  1.00  0.00    -0.262 OA
BRANCH  13  15
HETATM   15  O2  UNL     1      27.335   0.739  54.971  1.00  0.00    -0.251 OA
BRANCH  15  16
HETATM   16  C1  UNL     1      28.621   0.193  54.867  1.00  0.00     0.406 C 
HETATM   17  O1  UNL     1      29.366   0.612  53.920  1.00  0.00    -0.276 OA
ENDBRANCH  15  16
ENDBRANCH  13  15
ENDBRANCH  12  13
ENDBRANCH  11  12
ENDBRANCH   1  11
BRANCH   3  18
HETATM   18  O5  UNL     1      22.568   2.772  50.994  1.00  0.00    -0.360 OA
HETATM   19  H5  UNL     1      21.874   2.044  51.104  1.00  0.00     0.217 HD
ENDBRANCH   3  18
BRANCH   8  20
HETATM   20  C11 UNL     1      27.720   5.728  48.419  1.00  0.00    -0.003 A 
HETATM   21  C12 UNL     1      29.046   5.311  48.364  1.00  0.00     0.014 A 
HETATM   22  C13 UNL     1      30.061   6.013  47.753  1.00  0.00     0.001 A 
HETATM   23  C14 UNL     1      29.771   7.216  47.145  1.00  0.00     0.000 A 
HETATM   24  C15 UNL     1      28.463   7.652  47.185  1.00  0.00     0.001 A 
HETATM   25  C16 UNL     1      27.479   6.918  47.808  1.00  0.00     0.014 A 
ENDBRANCH   8  20
TORSDOF 7
ENDMDL
MODEL 6
REMARK VINA RESULT:      -7.9      1.531      2.449
REMARK  7 active torsions:
REMARK  status: ('A' for Active; 'I' for Inactive)
REMARK    1  A    between atoms: C1_2  and  O2_3 
REMARK    2  A    between atoms: O2_3  and  C2_4 
REMARK    3  A    between atoms: C2_4  and  C3_6 
REMARK    4  A    between atoms: C3_6  and  O4_7 
REMARK    5  A    between atoms: O4_7  and  C4_8 
REMARK    6  A    between atoms: C6_10  and  O5_11 
REMARK    7  A    between atoms: C10_16  and  C11_17 
ROOT
HETATM    1  C4  UNL     1      25.438   0.550  53.478  1.00  0.00     0.074 A 
HETATM    2  C5  UNL     1      25.531   1.896  53.170  1.00  0.00     0.074 A 
HETATM    3  C6  UNL     1      24.389   2.563  52.791  1.00  0.00     0.077 A 
HETATM    4  C7  UNL     1      23.177   1.932  52.711  1.00  0.00     0.013 A 
HETATM    5  C8  UNL     1      23.055   0.595  53.009  1.00  0.00     0.088 A 
HETATM    6  C9  UNL     1      24.198  -0.084  53.393  1.00  0.00     0.074 A 
HETATM    7  O6  UNL     1      21.815  -0.019  52.920  1.00  0.00    -0.310 OA
HETATM    8  C10 UNL     1      20.688   0.693  52.532  1.00  0.00     0.083 A 
HETATM    9  C17 UNL     1      20.826   1.976  52.248  1.00  0.00     0.016 A 
HETATM   10  C18 UNL     1      22.058   2.801  52.286  1.00  0.00     0.074 A 
ENDROOT
BRANCH   1  11
HETATM   11  O4  UNL     1      26.492  -0.261  53.875  1.00  0.00    -0.341 OA
BRANCH  11  12
HETATM   12  C3  UNL     1      27.337   0.201  54.916  1.00  0.00     0.287 C 
BRANCH  12  13
HETATM   13  C2  UNL     1      28.661   0.514  54.296  1.00  0.00     0.290 C 
HETATM   14  O3  UNL     1      29.051   1.588  54.814  1.00  0.00    -0.262 OA
BRANCH  13  15
HETATM   15  O2  UNL     1      29.318  -0.228  53.349  1.00  0.00    -0.251 OA
BRANCH  15  16
HETATM   16  C1  UNL     1      29.750  -1.510  53.709  1.00  0.00     0.406 C 
HETATM   17  O1  UNL     1      29.027  -2.499  53.352  1.00  0.00    -0.276 OA
ENDBRANCH  15  16
ENDBRANCH  13  15
ENDBRANCH  12  13
ENDBRANCH  11  12
ENDBRANCH   1  11
BRANCH   3  18
HETATM   18  O5  UNL     1      24.570   3.925  52.496  1.00  0.00    -0.360 OA
HETATM   19  H5  UNL     1      24.289   4.335  51.615  1.00  0.00     0.217 HD
ENDBRANCH   3  18
BRANCH   8  20
HETATM   20  C11 UNL     1      19.409   0.017  52.449  1.00  0.00    -0.003 A 
HETATM   21  C12 UNL     1      19.085  -0.974  53.370  1.00  0.00     0.014 A 
HETATM   22  C13 UNL     1      17.900  -1.675  53.380  1.00  0.00     0.001 A 
HETATM   23  C14 UNL     1      16.950  -1.395  52.421  1.00  0.00     0.000 A 
HETATM   24  C15 UNL     1      17.246  -0.417  51.496  1.00  0.00     0.001 A 
HETATM   25  C16 UNL     1      18.445   0.260  51.523  1.00  0.00     0.014 A 
ENDBRANCH   8  20
TORSDOF 7
ENDMDL
MODEL 7
REMARK VINA RESULT:      -7.8      1.154      2.194
REMARK  7 active torsions:
REMARK  status: ('A' for Active; 'I' for Inactive)
REMARK    1  A    between atoms: C1_2  and  O2_3 
REMARK    2  A    between atoms: O2_3  and  C2_4 
REMARK    3  A    between atoms: C2_4  and  C3_6 
REMARK    4  A    between atoms: C3_6  and  O4_7 
REMARK    5  A    between atoms: O4_7  and  C4_8 
REMARK    6  A    between atoms: C6_10  and  O5_11 
REMARK    7  A    between atoms: C10_16  and  C11_17 
ROOT
HETATM    1  C4  UNL     1      24.970  -0.040  53.556  1.00  0.00     0.074 A 
HETATM    2  C5  UNL     1      24.706  -0.785  54.693  1.00  0.00     0.074 A 
HETATM    3  C6  UNL     1      23.407  -1.160  54.945  1.00  0.00     0.077 A 
HETATM    4  C7  UNL     1      22.381  -0.817  54.106  1.00  0.00     0.013 A 
HETATM    5  C8  UNL     1      22.613  -0.077  52.971  1.00  0.00     0.088 A 
HETATM    6  C9  UNL     1      23.917   0.305  52.708  1.00  0.00     0.074 A 
HETATM    7  O6  UNL     1      21.555   0.257  52.139  1.00  0.00    -0.310 OA
HETATM    8  C10 UNL     1      20.258  -0.143  52.432  1.00  0.00     0.083 A 
HETATM    9  C17 UNL     1      20.055  -0.852  53.528  1.00  0.00     0.016 A 
HETATM   10  C18 UNL     1      21.050  -1.303  54.532  1.00  0.00     0.074 A 
ENDROOT
BRANCH   1  11
HETATM   11  O4  UNL     1      26.221   0.414  53.163  1.00  0.00    -0.341 OA
BRANCH  11  12
HETATM   12  C3  UNL     1      27.048  -0.463  52.416  1.00  0.00     0.287 C 
BRANCH  12  13
HETATM   13  C2  UNL     1      27.993  -1.101  53.384  1.00  0.00     0.290 C 
HETATM   14  O3  UNL     1      28.071  -2.311  53.058  1.00  0.00    -0.262 OA
BRANCH  13  15
HETATM   15  O2  UNL     1      28.644  -0.485  54.420  1.00  0.00    -0.251 OA
BRANCH  15  16
HETATM   16  C1  UNL     1      29.386   0.667  54.132  1.00  0.00     0.406 C 
HETATM   17  O1  UNL     1      29.196   1.692  54.868  1.00  0.00    -0.276 OA
ENDBRANCH  15  16
ENDBRANCH  13  15
ENDBRANCH  12  13
ENDBRANCH  11  12
ENDBRANCH   1  11
BRANCH   3  18
HETATM   18  O5  UNL     1      23.225  -1.914  56.117  1.00  0.00    -0.360 OA
HETATM   19  H5  UNL     1      23.007  -2.901  56.103  1.00  0.00     0.217 HD
ENDBRANCH   3  18
BRANCH   8  20
HETATM   20  C11 UNL     1      19.178   0.226  51.540  1.00  0.00    -0.003 A 
HETATM   21  C12 UNL     1      19.371   1.221  50.587  1.00  0.00     0.014 A 
HETATM   22  C13 UNL     1      18.413   1.644  49.693  1.00  0.00     0.001 A 
HETATM   23  C14 UNL     1      17.165   1.058  49.723  1.00  0.00     0.000 A 
HETATM   24  C15 UNL     1      16.948   0.068  50.658  1.00  0.00     0.001 A 
HETATM   25  C16 UNL     1      17.936  -0.325  51.534  1.00  0.00     0.014 A 
ENDBRANCH   8  20
TORSDOF 7
ENDMDL
MODEL 8
REMARK VINA RESULT:      -7.6      2.143      3.554
REMARK  7 active torsions:
REMARK  status: ('A' for Active; 'I' for Inactive)
REMARK    1  A    between atoms: C1_2  and  O2_3 
REMARK    2  A    between atoms: O2_3  and  C2_4 
REMARK    3  A    between atoms: C2_4  and  C3_6 
REMARK    4  A    between atoms: C3_6  and  O4_7 
REMARK    5  A    between atoms: O4_7  and  C4_8 
REMARK    6  A    between atoms: C6_10  and  O5_11 
REMARK    7  A    between atoms: C10_16  and  C11_17 
ROOT
HETATM    1  C4  UNL     1      26.628   1.843  51.795  1.00  0.00     0.074 A 
HETATM    2  C5  UNL     1      26.569   2.837  50.833  1.00  0.00     0.074 A 
HETATM    3  C6  UNL     1      25.347   3.152  50.288  1.00  0.00     0.077 A 
HETATM    4  C7  UNL     1      24.199   2.511  50.671  1.00  0.00     0.013 A 
HETATM    5  C8  UNL     1      24.227   1.519  51.622  1.00  0.00     0.088 A 
HETATM    6  C9  UNL     1      25.453   1.196  52.178  1.00  0.00     0.074 A 
HETATM    7  O6  UNL     1      23.049   0.887  51.991  1.00  0.00    -0.310 OA
HETATM    8  C10 UNL     1      21.836   1.237  51.415  1.00  0.00     0.083 A 
HETATM    9  C17 UNL     1      21.830   2.191  50.501  1.00  0.00     0.016 A 
HETATM   10  C18 UNL     1      22.976   2.976  49.981  1.00  0.00     0.074 A 
ENDROOT
BRANCH   1  11
HETATM   11  O4  UNL     1      27.779   1.410  52.438  1.00  0.00    -0.341 OA
BRANCH  11  12
HETATM   12  C3  UNL     1      27.845   1.532  53.849  1.00  0.00     0.287 C 
BRANCH  12  13
HETATM   13  C2  UNL     1      28.172   0.177  54.389  1.00  0.00     0.290 C 
HETATM   14  O3  UNL     1      27.124  -0.251  54.932  1.00  0.00    -0.262 OA
BRANCH  13  15
HETATM   15  O2  UNL     1      29.377  -0.469  54.306  1.00  0.00    -0.251 OA
BRANCH  15  16
HETATM   16  C1  UNL     1      29.533  -1.433  53.302  1.00  0.00     0.406 C 
HETATM   17  O1  UNL     1      29.014  -2.581  53.499  1.00  0.00    -0.276 OA
ENDBRANCH  15  16
ENDBRANCH  13  15
ENDBRANCH  12  13
ENDBRANCH  11  12
ENDBRANCH   1  11
BRANCH   3  18
HETATM   18  O5  UNL     1      25.374   4.170  49.320  1.00  0.00    -0.360 OA
HETATM   19  H5  UNL     1      24.539   4.645  49.003  1.00  0.00     0.217 HD
ENDBRANCH   3  18
BRANCH   8  20
HETATM   20  C11 UNL     1      20.626   0.553  51.825  1.00  0.00    -0.003 A 
HETATM   21  C12 UNL     1      19.509   0.559  50.997  1.00  0.00     0.014 A 
HETATM   22  C13 UNL     1      18.313  -0.058  51.292  1.00  0.00     0.001 A 
HETATM   23  C14 UNL     1      18.189  -0.736  52.486  1.00  0.00     0.000 A 
HETATM   24  C15 UNL     1      19.282  -0.758  53.326  1.00  0.00     0.001 A 
HETATM   25  C16 UNL     1      20.459  -0.126  52.990  1.00  0.00     0.014 A 
ENDBRANCH   8  20
TORSDOF 7
ENDMDL
MODEL 9
REMARK VINA RESULT:      -7.6      3.098      4.202
REMARK  7 active torsions:
REMARK  status: ('A' for Active; 'I' for Inactive)
REMARK    1  A    between atoms: C1_2  and  O2_3 
REMARK    2  A    between atoms: O2_3  and  C2_4 
REMARK    3  A    between atoms: C2_4  and  C3_6 
REMARK    4  A    between atoms: C3_6  and  O4_7 
REMARK    5  A    between atoms: O4_7  and  C4_8 
REMARK    6  A    between atoms: C6_10  and  O5_11 
REMARK    7  A    between atoms: C10_16  and  C11_17 
ROOT
HETATM    1  C4  UNL     1      26.418   2.288  51.605  1.00  0.00     0.074 A 
HETATM    2  C5  UNL     1      27.049   1.547  52.589  1.00  0.00     0.074 A 
HETATM    3  C6  UNL     1      26.300   0.656  53.322  1.00  0.00     0.077 A 
HETATM    4  C7  UNL     1      24.959   0.488  53.102  1.00  0.00     0.013 A 
HETATM    5  C8  UNL     1      24.306   1.210  52.132  1.00  0.00     0.088 A 
HETATM    6  C9  UNL     1      25.051   2.109  51.389  1.00  0.00     0.074 A 
HETATM    7  O6  UNL     1      22.947   1.020  51.931  1.00  0.00    -0.310 OA
HETATM    8  C10 UNL     1      22.229   0.109  52.694  1.00  0.00     0.083 A 
HETATM    9  C17 UNL     1      22.875  -0.575  53.622  1.00  0.00     0.016 A 
HETATM   10  C18 UNL     1      24.312  -0.510  53.982  1.00  0.00     0.074 A 
ENDROOT
BRANCH   1  11
HETATM   11  O4  UNL     1      27.030   3.224  50.783  1.00  0.00    -0.341 OA
BRANCH  11  12
HETATM   12  C3  UNL     1      26.632   3.284  49.424  1.00  0.00     0.287 C 
BRANCH  12  13
HETATM   13  C2  UNL     1      26.908   4.675  48.950  1.00  0.00     0.290 C 
HETATM   14  O3  UNL     1      28.130   4.718  48.668  1.00  0.00    -0.262 OA
BRANCH  13  15
HETATM   15  O2  UNL     1      26.004   5.699  48.845  1.00  0.00    -0.251 OA
BRANCH  15  16
HETATM   16  C1  UNL     1      26.351   6.935  49.405  1.00  0.00     0.406 C 
HETATM   17  O1  UNL     1      25.781   7.272  50.496  1.00  0.00    -0.276 OA
ENDBRANCH  15  16
ENDBRANCH  13  15
ENDBRANCH  12  13
ENDBRANCH  11  12
ENDBRANCH   1  11
BRANCH   3  18
HETATM   18  O5  UNL     1      27.016  -0.055  54.300  1.00  0.00    -0.360 OA
HETATM   19  H5  UNL     1      27.577   0.402  55.007  1.00  0.00     0.217 HD
ENDBRANCH   3  18
BRANCH   8  20
HETATM   20  C11 UNL     1      20.811  -0.062  52.455  1.00  0.00    -0.003 A 
HETATM   21  C12 UNL     1      20.022  -0.723  53.392  1.00  0.00     0.014 A 
HETATM   22  C13 UNL     1      18.668  -0.938  53.261  1.00  0.00     0.001 A 
HETATM   23  C14 UNL     1      18.024  -0.477  52.133  1.00  0.00     0.000 A 
HETATM   24  C15 UNL     1      18.783   0.183  51.189  1.00  0.00     0.001 A 
HETATM   25  C16 UNL     1      20.135   0.376  51.360  1.00  0.00     0.014 A 
ENDBRANCH   8  20
TORSDOF 7
ENDMDL
