MODEL 1
REMARK VINA RESULT:      -8.2      0.000      0.000
REMARK  8 active torsions:
REMARK  status: ('A' for Active; 'I' for Inactive)
REMARK    1  A    between atoms: C1_2  and  N1_3 
REMARK    2  A    between atoms: N1_3  and  C2_4 
REMARK    3  A    between atoms: C2_4  and  N2_5 
REMARK    4  A    between atoms: C9_15  and  N5_16 
REMARK    5  A    between atoms: N5_16  and  C10_17 
REMARK    6  A    between atoms: C10_17  and  C11_18 
REMARK    7  A    between atoms: C10_17  and  C12_20 
REMARK    8  A    between atoms: C11_18  and  O2_19 
ROOT
HETATM    1  N2  UNL     1      26.844  -0.900  52.948  1.00  0.00     0.110 N 
HETATM    2  C3  UNL     1      26.502  -0.221  51.718  1.00  0.00     0.279 C 
HETATM    3  C4  UNL     1      25.911   1.147  52.133  1.00  0.00     0.071 C 
HETATM    4  C5  UNL     1      24.495   0.871  52.433  1.00  0.00    -0.025 A 
HETATM    5  C6  UNL     1      24.572  -0.161  53.363  1.00  0.00     0.020 A 
HETATM    6  S1  UNL     1      22.813  -0.518  53.745  1.00  0.00    -0.072 SA
HETATM    7  C7  UNL     1      22.163   0.691  52.672  1.00  0.00     0.114 A 
HETATM    8  N3  UNL     1      20.875   0.980  52.456  1.00  0.00    -0.234 NA
HETATM    9  C8  UNL     1      20.550   1.951  51.592  1.00  0.00     0.236 A 
HETATM   10  N4  UNL     1      21.595   2.545  51.019  1.00  0.00    -0.224 NA
HETATM   11  C9  UNL     1      22.889   2.278  51.216  1.00  0.00     0.139 A 
HETATM   12  C18 UNL     1      23.247   1.283  52.101  1.00  0.00     0.053 A 
HETATM   13  C19 UNL     1      25.777  -0.822  53.920  1.00  0.00     0.321 C 
ENDROOT
BRANCH  11  14
HETATM   14  N5  UNL     1      23.786   3.095  50.431  1.00  0.00    -0.363 N 
HETATM   15  H10 UNL     1      24.038   3.122  49.435  1.00  0.00     0.162 HD
BRANCH  14  16
HETATM   16  C10 UNL     1      24.571   4.145  51.046  1.00  0.00     0.140 C 
BRANCH  16  17
HETATM   17  C11 UNL     1      23.729   5.294  51.514  1.00  0.00     0.194 C 
BRANCH  17  18
HETATM   18  O2  UNL     1      23.872   5.548  52.871  1.00  0.00    -0.399 OA
HETATM   19  H14 UNL     1      24.833   5.608  53.060  1.00  0.00     0.209 HD
ENDBRANCH  17  18
ENDBRANCH  16  17
BRANCH  16  20
HETATM   20  C12 UNL     1      25.662   4.589  50.102  1.00  0.00    -0.034 A 
HETATM   21  C13 UNL     1      25.414   5.936  49.803  1.00  0.00     0.009 A 
HETATM   22  C14 UNL     1      26.251   6.658  48.948  1.00  0.00     0.001 A 
HETATM   23  C15 UNL     1      27.348   6.020  48.387  1.00  0.00     0.000 A 
HETATM   24  C16 UNL     1      27.564   4.699  48.699  1.00  0.00     0.001 A 
HETATM   25  C17 UNL     1      26.746   3.981  49.540  1.00  0.00     0.009 A 
ENDBRANCH  16  20
ENDBRANCH  14  16
ENDBRANCH  11  14
BRANCH   1  26
HETATM   26  C2  UNL     1      27.152  -2.269  52.586  1.00  0.00     0.397 C 
BRANCH  26  27
HETATM   27  N1  UNL     1      28.345  -2.762  53.270  1.00  0.00    -0.343 N 
HETATM   28  H2  UNL     1      28.615  -3.616  53.805  1.00  0.00     0.163 HD
BRANCH  27  29
HETATM   29  C1  UNL     1      29.358  -1.777  53.133  1.00  0.00     0.349 C 
HETATM   30  O1  UNL     1      30.100  -1.477  54.125  1.00  0.00    -0.284 OA
ENDBRANCH  27  29
ENDBRANCH  26  27
ENDBRANCH   1  26
TORSDOF 8
ENDMDL
MODEL 2
REMARK VINA RESULT:      -8.0      3.479      7.029
REMARK  8 active torsions:
REMARK  status: ('A' for Active; 'I' for Inactive)
REMARK    1  A    between atoms: C1_2  and  N1_3 
REMARK    2  A    between atoms: N1_3  and  C2_4 
REMARK    3  A    between atoms: C2_4  and  N2_5 
REMARK    4  A    between atoms: C9_15  and  N5_16 
REMARK    5  A    between atoms: N5_16  and  C10_17 
REMARK    6  A    between atoms: C10_17  and  C11_18 
REMARK    7  A    between atoms: C10_17  and  C12_20 
REMARK    8  A    between atoms: C11_18  and  O2_19 
ROOT
HETATM    1  N2  UNL     1      20.372   2.346  50.135  1.00  0.00     0.110 N 
HETATM    2  C3  UNL     1      21.636   2.597  50.790  1.00  0.00     0.279 C 
HETATM    3  C4  UNL     1      22.399   1.251  50.782  1.00  0.00     0.071 C 
HETATM    4  C5  UNL     1      21.882   0.518  51.951  1.00  0.00    -0.025 A 
HETATM    5  C6  UNL     1      20.506   0.534  51.742  1.00  0.00     0.020 A 
HETATM    6  S1  UNL     1      19.847  -0.375  53.193  1.00  0.00    -0.072 SA
HETATM    7  C7  UNL     1      21.403  -0.681  53.916  1.00  0.00     0.114 A 
HETATM    8  N3  UNL     1      21.657  -1.337  55.053  1.00  0.00    -0.234 NA
HETATM    9  C8  UNL     1      22.924  -1.484  55.464  1.00  0.00     0.236 A 
HETATM   10  N4  UNL     1      23.829  -0.935  54.655  1.00  0.00    -0.224 NA
HETATM   11  C9  UNL     1      23.604  -0.276  53.515  1.00  0.00     0.139 A 
HETATM   12  C18 UNL     1      22.307  -0.113  53.073  1.00  0.00     0.053 A 
HETATM   13  C19 UNL     1      19.744   1.138  50.623  1.00  0.00     0.321 C 
ENDROOT
BRANCH  11  14
HETATM   14  N5  UNL     1      24.801   0.212  52.870  1.00  0.00    -0.363 N 
HETATM   15  H10 UNL     1      25.106   0.281  51.891  1.00  0.00     0.162 HD
BRANCH  14  16
HETATM   16  C10 UNL     1      25.901   0.749  53.644  1.00  0.00     0.140 C 
BRANCH  16  17
HETATM   17  C11 UNL     1      26.175   2.189  53.331  1.00  0.00     0.194 C 
BRANCH  17  18
HETATM   18  O2  UNL     1      25.041   2.985  53.421  1.00  0.00    -0.399 OA
HETATM   19  H14 UNL     1      24.260   2.394  53.351  1.00  0.00     0.209 HD
ENDBRANCH  17  18
ENDBRANCH  16  17
BRANCH  16  20
HETATM   20  C12 UNL     1      27.125  -0.115  53.461  1.00  0.00    -0.034 A 
HETATM   21  C13 UNL     1      28.223   0.647  53.885  1.00  0.00     0.009 A 
HETATM   22  C14 UNL     1      29.522   0.133  53.848  1.00  0.00     0.001 A 
HETATM   23  C15 UNL     1      29.721  -1.159  53.381  1.00  0.00     0.000 A 
HETATM   24  C16 UNL     1      28.624  -1.880  52.974  1.00  0.00     0.001 A 
HETATM   25  C17 UNL     1      27.341  -1.382  53.006  1.00  0.00     0.009 A 
ENDBRANCH  16  20
ENDBRANCH  14  16
ENDBRANCH  11  14
BRANCH   1  26
HETATM   26  C2  UNL     1      19.552   3.518  50.366  1.00  0.00     0.397 C 
BRANCH  26  27
HETATM   27  N1  UNL     1      18.126   3.220  50.254  1.00  0.00    -0.343 N 
HETATM   28  H2  UNL     1      17.534   2.506  49.775  1.00  0.00     0.163 HD
BRANCH  27  29
HETATM   29  C1  UNL     1      17.422   4.188  51.017  1.00  0.00     0.349 C 
HETATM   30  O1  UNL     1      17.069   3.930  52.215  1.00  0.00    -0.284 OA
ENDBRANCH  27  29
ENDBRANCH  26  27
ENDBRANCH   1  26
TORSDOF 8
ENDMDL
MODEL 3
REMARK VINA RESULT:      -7.9      1.872      2.709
REMARK  8 active torsions:
REMARK  status: ('A' for Active; 'I' for Inactive)
REMARK    1  A    between atoms: C1_2  and  N1_3 
REMARK    2  A    between atoms: N1_3  and  C2_4 
REMARK    3  A    between atoms: C2_4  and  N2_5 
REMARK    4  A    between atoms: C9_15  and  N5_16 
REMARK    5  A    between atoms: N5_16  and  C10_17 
REMARK    6  A    between atoms: C10_17  and  C11_18 
REMARK    7  A    between atoms: C10_17  and  C12_20 
REMARK    8  A    between atoms: C11_18  and  O2_19 
ROOT
HETATM    1  N2  UNL     1      26.448   0.071  53.400  1.00  0.00     0.110 N 
HETATM    2  C3  UNL     1      25.645   0.367  52.234  1.00  0.00     0.279 C 
HETATM    3  C4  UNL     1      24.539   1.339  52.711  1.00  0.00     0.071 C 
HETATM    4  C5  UNL     1      23.491   0.470  53.274  1.00  0.00    -0.025 A 
HETATM    5  C6  UNL     1      24.189  -0.294  54.205  1.00  0.00     0.020 A 
HETATM    6  S1  UNL     1      22.895  -1.385  54.913  1.00  0.00    -0.072 SA
HETATM    7  C7  UNL     1      21.595  -0.749  53.943  1.00  0.00     0.114 A 
HETATM    8  N3  UNL     1      20.310  -1.120  53.959  1.00  0.00    -0.234 NA
HETATM    9  C8  UNL     1      19.436  -0.519  53.141  1.00  0.00     0.236 A 
HETATM   10  N4  UNL     1      19.970   0.425  52.369  1.00  0.00    -0.224 NA
HETATM   11  C9  UNL     1      21.247   0.817  52.332  1.00  0.00     0.139 A 
HETATM   12  C18 UNL     1      22.164   0.211  53.166  1.00  0.00     0.053 A 
HETATM   13  C19 UNL     1      25.630  -0.248  54.549  1.00  0.00     0.321 C 
ENDROOT
BRANCH  11  14
HETATM   14  N5  UNL     1      21.516   1.863  51.373  1.00  0.00    -0.363 N 
HETATM   15  H10 UNL     1      21.757   1.870  50.374  1.00  0.00     0.162 HD
BRANCH  14  16
HETATM   16  C10 UNL     1      21.475   3.259  51.758  1.00  0.00     0.140 C 
BRANCH  16  17
HETATM   17  C11 UNL     1      20.171   3.912  51.416  1.00  0.00     0.194 C 
BRANCH  17  18
HETATM   18  O2  UNL     1      19.129   3.494  52.233  1.00  0.00    -0.399 OA
HETATM   19  H14 UNL     1      18.289   3.700  51.768  1.00  0.00     0.209 HD
ENDBRANCH  17  18
ENDBRANCH  16  17
BRANCH  16  20
HETATM   20  C12 UNL     1      22.651   3.990  51.157  1.00  0.00    -0.034 A 
HETATM   21  C13 UNL     1      23.053   3.254  50.033  1.00  0.00     0.009 A 
HETATM   22  C14 UNL     1      24.126   3.666  49.239  1.00  0.00     0.001 A 
HETATM   23  C15 UNL     1      24.804   4.829  49.577  1.00  0.00     0.000 A 
HETATM   24  C16 UNL     1      24.386   5.528  50.685  1.00  0.00     0.001 A 
HETATM   25  C17 UNL     1      23.330   5.130  51.472  1.00  0.00     0.009 A 
ENDBRANCH  16  20
ENDBRANCH  14  16
ENDBRANCH  11  14
BRANCH   1  26
HETATM   26  C2  UNL     1      27.317  -1.028  53.028  1.00  0.00     0.397 C 
BRANCH  26  27
HETATM   27  N1  UNL     1      28.594  -0.980  53.736  1.00  0.00    -0.343 N 
HETATM   28  H2  UNL     1      29.063  -0.341  54.414  1.00  0.00     0.163 HD
BRANCH  27  29
HETATM   29  C1  UNL     1      29.339  -2.128  53.358  1.00  0.00     0.349 C 
HETATM   30  O1  UNL     1      28.850  -3.294  53.526  1.00  0.00    -0.284 OA
ENDBRANCH  27  29
ENDBRANCH  26  27
ENDBRANCH   1  26
TORSDOF 8
ENDMDL
MODEL 4
REMARK VINA RESULT:      -7.9      2.884      5.529
REMARK  8 active torsions:
REMARK  status: ('A' for Active; 'I' for Inactive)
REMARK    1  A    between atoms: C1_2  and  N1_3 
REMARK    2  A    between atoms: N1_3  and  C2_4 
REMARK    3  A    between atoms: C2_4  and  N2_5 
REMARK    4  A    between atoms: C9_15  and  N5_16 
REMARK    5  A    between atoms: N5_16  and  C10_17 
REMARK    6  A    between atoms: C10_17  and  C11_18 
REMARK    7  A    between atoms: C10_17  and  C12_20 
REMARK    8  A    between atoms: C11_18  and  O2_19 
ROOT
HETATM    1  N2  UNL     1      26.930   1.770  52.805  1.00  0.00     0.110 N 
HETATM    2  C3  UNL     1      25.732   2.206  53.488  1.00  0.00     0.279 C 
HETATM    3  C4  UNL     1      24.549   1.811  52.572  1.00  0.00     0.071 C 
HETATM    4  C5  UNL     1      24.449   2.906  51.592  1.00  0.00    -0.025 A 
HETATM    5  C6  UNL     1      25.737   2.970  51.068  1.00  0.00     0.020 A 
HETATM    6  S1  UNL     1      25.629   4.333  49.844  1.00  0.00    -0.072 SA
HETATM    7  C7  UNL     1      23.946   4.679  50.131  1.00  0.00     0.114 A 
HETATM    8  N3  UNL     1      23.193   5.610  49.537  1.00  0.00    -0.234 NA
HETATM    9  C8  UNL     1      21.903   5.739  49.879  1.00  0.00     0.236 A 
HETATM   10  N4  UNL     1      21.499   4.884  50.817  1.00  0.00    -0.224 NA
HETATM   11  C9  UNL     1      22.227   3.945  51.427  1.00  0.00     0.139 A 
HETATM   12  C18 UNL     1      23.557   3.795  51.090  1.00  0.00     0.053 A 
HETATM   13  C19 UNL     1      26.920   2.144  51.408  1.00  0.00     0.321 C 
ENDROOT
BRANCH  11  14
HETATM   14  N5  UNL     1      21.498   3.181  52.413  1.00  0.00    -0.363 N 
HETATM   15  H10 UNL     1      21.345   3.285  53.424  1.00  0.00     0.162 HD
BRANCH  14  16
HETATM   16  C10 UNL     1      20.779   1.979  52.045  1.00  0.00     0.140 C 
BRANCH  16  17
HETATM   17  C11 UNL     1      19.303   2.209  51.919  1.00  0.00     0.194 C 
BRANCH  17  18
HETATM   18  O2  UNL     1      18.940   3.526  52.165  1.00  0.00    -0.399 OA
HETATM   19  H14 UNL     1      19.766   4.040  52.296  1.00  0.00     0.209 HD
ENDBRANCH  17  18
ENDBRANCH  16  17
BRANCH  16  20
HETATM   20  C12 UNL     1      21.100   0.872  53.020  1.00  0.00    -0.034 A 
HETATM   21  C13 UNL     1      21.830  -0.092  52.310  1.00  0.00     0.009 A 
HETATM   22  C14 UNL     1      22.289  -1.257  52.928  1.00  0.00     0.001 A 
HETATM   23  C15 UNL     1      22.013  -1.458  54.274  1.00  0.00     0.000 A 
HETATM   24  C16 UNL     1      21.295  -0.494  54.941  1.00  0.00     0.001 A 
HETATM   25  C17 UNL     1      20.839   0.656  54.341  1.00  0.00     0.009 A 
ENDBRANCH  16  20
ENDBRANCH  14  16
ENDBRANCH  11  14
BRANCH   1  26
HETATM   26  C2  UNL     1      28.044   2.359  53.519  1.00  0.00     0.397 C 
BRANCH  26  27
HETATM   27  N1  UNL     1      29.164   1.430  53.651  1.00  0.00    -0.343 N 
HETATM   28  H2  UNL     1      30.092   1.289  53.196  1.00  0.00     0.163 HD
BRANCH  27  29
HETATM   29  C1  UNL     1      28.840   0.510  54.683  1.00  0.00     0.349 C 
HETATM   30  O1  UNL     1      28.698  -0.729  54.417  1.00  0.00    -0.284 OA
ENDBRANCH  27  29
ENDBRANCH  26  27
ENDBRANCH   1  26
TORSDOF 8
ENDMDL
MODEL 5
REMARK VINA RESULT:      -7.9      2.627      6.682
REMARK  8 active torsions:
REMARK  status: ('A' for Active; 'I' for Inactive)
REMARK    1  A    between atoms: C1_2  and  N1_3 
REMARK    2  A    between atoms: N1_3  and  C2_4 
REMARK    3  A    between atoms: C2_4  and  N2_5 
REMARK    4  A    between atoms: C9_15  and  N5_16 
REMARK    5  A    between atoms: N5_16  and  C10_17 
REMARK    6  A    between atoms: C10_17  and  C11_18 
REMARK    7  A    between atoms: C10_17  and  C12_20 
REMARK    8  A    between atoms: C11_18  and  O2_19 
ROOT
HETATM    1  N2  UNL     1      22.543   4.353  50.462  1.00  0.00     0.110 N 
HETATM    2  C3  UNL     1      23.643   3.921  51.295  1.00  0.00     0.279 C 
HETATM    3  C4  UNL     1      23.801   2.402  51.043  1.00  0.00     0.071 C 
HETATM    4  C5  UNL     1      22.812   1.768  51.933  1.00  0.00    -0.025 A 
HETATM    5  C6  UNL     1      21.627   2.407  51.583  1.00  0.00     0.020 A 
HETATM    6  S1  UNL     1      20.385   1.629  52.686  1.00  0.00    -0.072 SA
HETATM    7  C7  UNL     1      21.513   0.565  53.480  1.00  0.00     0.114 A 
HETATM    8  N3  UNL     1      21.254  -0.325  54.444  1.00  0.00    -0.234 NA
HETATM    9  C8  UNL     1      22.250  -1.069  54.945  1.00  0.00     0.236 A 
HETATM   10  N4  UNL     1      23.440  -0.827  54.400  1.00  0.00    -0.224 NA
HETATM   11  C9  UNL     1      23.728   0.053  53.437  1.00  0.00     0.139 A 
HETATM   12  C18 UNL     1      22.719   0.830  52.907  1.00  0.00     0.053 A 
HETATM   13  C19 UNL     1      21.407   3.465  50.568  1.00  0.00     0.321 C 
ENDROOT
BRANCH  11  14
HETATM   14  N5  UNL     1      25.125   0.087  53.067  1.00  0.00    -0.363 N 
HETATM   15  H10 UNL     1      25.647  -0.192  52.227  1.00  0.00     0.162 HD
BRANCH  14  16
HETATM   16  C10 UNL     1      26.126   0.599  53.980  1.00  0.00     0.140 C 
BRANCH  16  17
HETATM   17  C11 UNL     1      26.338   2.075  53.832  1.00  0.00     0.194 C 
BRANCH  17  18
HETATM   18  O2  UNL     1      26.859   2.423  52.593  1.00  0.00    -0.399 OA
HETATM   19  H14 UNL     1      27.531   3.123  52.742  1.00  0.00     0.209 HD
ENDBRANCH  17  18
ENDBRANCH  16  17
BRANCH  16  20
HETATM   20  C12 UNL     1      27.411  -0.178  53.817  1.00  0.00    -0.034 A 
HETATM   21  C13 UNL     1      27.095  -1.333  53.088  1.00  0.00     0.009 A 
HETATM   22  C14 UNL     1      28.072  -2.275  52.759  1.00  0.00     0.001 A 
HETATM   23  C15 UNL     1      29.381  -2.057  53.167  1.00  0.00     0.000 A 
HETATM   24  C16 UNL     1      29.658  -0.915  53.881  1.00  0.00     0.001 A 
HETATM   25  C17 UNL     1      28.702   0.018  54.209  1.00  0.00     0.009 A 
ENDBRANCH  16  20
ENDBRANCH  14  16
ENDBRANCH  11  14
BRANCH   1  26
HETATM   26  C2  UNL     1      22.221   5.703  50.880  1.00  0.00     0.397 C 
BRANCH  26  27
HETATM   27  N1  UNL     1      22.413   6.670  49.802  1.00  0.00    -0.343 N 
HETATM   28  H2  UNL     1      22.108   6.773  48.810  1.00  0.00     0.163 HD
BRANCH  27  29
HETATM   29  C1  UNL     1      23.236   7.713  50.302  1.00  0.00     0.349 C 
HETATM   30  O1  UNL     1      24.090   7.474  51.218  1.00  0.00    -0.284 OA
ENDBRANCH  27  29
ENDBRANCH  26  27
ENDBRANCH   1  26
TORSDOF 8
ENDMDL
MODEL 6
REMARK VINA RESULT:      -7.8      1.919      2.514
REMARK  8 active torsions:
REMARK  status: ('A' for Active; 'I' for Inactive)
REMARK    1  A    between atoms: C1_2  and  N1_3 
REMARK    2  A    between atoms: N1_3  and  C2_4 
REMARK    3  A    between atoms: C2_4  and  N2_5 
REMARK    4  A    between atoms: C9_15  and  N5_16 
REMARK    5  A    between atoms: N5_16  and  C10_17 
REMARK    6  A    between atoms: C10_17  and  C11_18 
REMARK    7  A    between atoms: C10_17  and  C12_20 
REMARK    8  A    between atoms: C11_18  and  O2_19 
ROOT
HETATM    1  N2  UNL     1      28.792   0.831  54.172  1.00  0.00     0.110 N 
HETATM    2  C3  UNL     1      28.323   1.532  52.998  1.00  0.00     0.279 C 
HETATM    3  C4  UNL     1      27.139   2.411  53.469  1.00  0.00     0.071 C 
HETATM    4  C5  UNL     1      25.973   1.511  53.458  1.00  0.00    -0.025 A 
HETATM    5  C6  UNL     1      26.399   0.445  54.246  1.00  0.00     0.020 A 
HETATM    6  S1  UNL     1      24.956  -0.688  54.241  1.00  0.00    -0.072 SA
HETATM    7  C7  UNL     1      23.958   0.321  53.231  1.00  0.00     0.114 A 
HETATM    8  N3  UNL     1      22.710   0.078  52.816  1.00  0.00    -0.234 NA
HETATM    9  C8  UNL     1      22.083   0.972  52.039  1.00  0.00     0.236 A 
HETATM   10  N4  UNL     1      22.808   2.052  51.754  1.00  0.00    -0.224 NA
HETATM   11  C9  UNL     1      24.054   2.321  52.154  1.00  0.00     0.139 A 
HETATM   12  C18 UNL     1      24.718   1.415  52.955  1.00  0.00     0.053 A 
HETATM   13  C19 UNL     1      27.701   0.257  54.928  1.00  0.00     0.321 C 
ENDROOT
BRANCH  11  14
HETATM   14  N5  UNL     1      24.572   3.578  51.664  1.00  0.00    -0.363 N 
HETATM   15  H10 UNL     1      24.801   4.476  52.108  1.00  0.00     0.162 HD
BRANCH  14  16
HETATM   16  C10 UNL     1      24.881   3.762  50.261  1.00  0.00     0.140 C 
BRANCH  16  17
HETATM   17  C11 UNL     1      26.217   3.194  49.887  1.00  0.00     0.194 C 
BRANCH  17  18
HETATM   18  O2  UNL     1      27.277   3.936  50.391  1.00  0.00    -0.399 OA
HETATM   19  H14 UNL     1      27.200   3.933  51.369  1.00  0.00     0.209 HD
ENDBRANCH  17  18
ENDBRANCH  16  17
BRANCH  16  20
HETATM   20  C12 UNL     1      24.764   5.223  49.899  1.00  0.00    -0.034 A 
HETATM   21  C13 UNL     1      24.292   5.886  51.041  1.00  0.00     0.009 A 
HETATM   22  C14 UNL     1      24.075   7.266  51.043  1.00  0.00     0.001 A 
HETATM   23  C15 UNL     1      24.334   7.989  49.887  1.00  0.00     0.000 A 
HETATM   24  C16 UNL     1      24.796   7.310  48.785  1.00  0.00     0.001 A 
HETATM   25  C17 UNL     1      25.013   5.952  48.773  1.00  0.00     0.009 A 
ENDBRANCH  16  20
ENDBRANCH  14  16
ENDBRANCH  11  14
BRANCH   1  26
HETATM   26  C2  UNL     1      29.719  -0.179  53.701  1.00  0.00     0.397 C 
BRANCH  26  27
HETATM   27  N1  UNL     1      29.381  -1.509  54.202  1.00  0.00    -0.343 N 
HETATM   28  H2  UNL     1      29.323  -1.978  55.133  1.00  0.00     0.163 HD
BRANCH  27  29
HETATM   29  C1  UNL     1      29.060  -2.322  53.084  1.00  0.00     0.349 C 
HETATM   30  O1  UNL     1      27.873  -2.760  52.928  1.00  0.00    -0.284 OA
ENDBRANCH  27  29
ENDBRANCH  26  27
ENDBRANCH   1  26
TORSDOF 8
ENDMDL
MODEL 7
REMARK VINA RESULT:      -7.8      2.789      6.442
REMARK  8 active torsions:
REMARK  status: ('A' for Active; 'I' for Inactive)
REMARK    1  A    between atoms: C1_2  and  N1_3 
REMARK    2  A    between atoms: N1_3  and  C2_4 
REMARK    3  A    between atoms: C2_4  and  N2_5 
REMARK    4  A    between atoms: C9_15  and  N5_16 
REMARK    5  A    between atoms: N5_16  and  C10_17 
REMARK    6  A    between atoms: C10_17  and  C11_18 
REMARK    7  A    between atoms: C10_17  and  C12_20 
REMARK    8  A    between atoms: C11_18  and  O2_19 
ROOT
HETATM    1  N2  UNL     1      24.839   4.038  49.885  1.00  0.00     0.110 N 
HETATM    2  C3  UNL     1      24.737   3.776  51.304  1.00  0.00     0.279 C 
HETATM    3  C4  UNL     1      24.724   2.236  51.455  1.00  0.00     0.071 C 
HETATM    4  C5  UNL     1      23.320   1.848  51.232  1.00  0.00    -0.025 A 
HETATM    5  C6  UNL     1      23.032   2.424  49.998  1.00  0.00     0.020 A 
HETATM    6  S1  UNL     1      21.284   1.950  49.707  1.00  0.00    -0.072 SA
HETATM    7  C7  UNL     1      21.104   1.064  51.196  1.00  0.00     0.114 A 
HETATM    8  N3  UNL     1      20.015   0.423  51.636  1.00  0.00    -0.234 NA
HETATM    9  C8  UNL     1      20.052  -0.215  52.814  1.00  0.00     0.236 A 
HETATM   10  N4  UNL     1      21.224  -0.136  53.442  1.00  0.00    -0.224 NA
HETATM   11  C9  UNL     1      22.326   0.494  53.027  1.00  0.00     0.139 A 
HETATM   12  C18 UNL     1      22.311   1.158  51.818  1.00  0.00     0.053 A 
HETATM   13  C19 UNL     1      23.916   3.229  49.121  1.00  0.00     0.321 C 
ENDROOT
BRANCH  11  14
HETATM   14  N5  UNL     1      23.438   0.405  53.946  1.00  0.00    -0.363 N 
HETATM   15  H10 UNL     1      23.921   1.083  54.548  1.00  0.00     0.162 HD
BRANCH  14  16
HETATM   16  C10 UNL     1      24.125  -0.850  54.167  1.00  0.00     0.140 C 
BRANCH  16  17
HETATM   17  C11 UNL     1      23.949  -1.363  55.564  1.00  0.00     0.194 C 
BRANCH  17  18
HETATM   18  O2  UNL     1      22.705  -1.944  55.772  1.00  0.00    -0.399 OA
HETATM   19  H14 UNL     1      22.790  -2.559  56.533  1.00  0.00     0.209 HD
ENDBRANCH  17  18
ENDBRANCH  16  17
BRANCH  16  20
HETATM   20  C12 UNL     1      25.581  -0.710  53.793  1.00  0.00    -0.034 A 
HETATM   21  C13 UNL     1      26.197   0.002  54.832  1.00  0.00     0.009 A 
HETATM   22  C14 UNL     1      27.562   0.302  54.798  1.00  0.00     0.001 A 
HETATM   23  C15 UNL     1      28.315  -0.117  53.710  1.00  0.00     0.000 A 
HETATM   24  C16 UNL     1      27.681  -0.813  52.708  1.00  0.00     0.001 A 
HETATM   25  C17 UNL     1      26.339  -1.113  52.733  1.00  0.00     0.009 A 
ENDBRANCH  16  20
ENDBRANCH  14  16
ENDBRANCH  11  14
BRANCH   1  26
HETATM   26  C2  UNL     1      24.592   5.456  49.714  1.00  0.00     0.397 C 
BRANCH  26  27
HETATM   27  N1  UNL     1      25.570   6.273  50.428  1.00  0.00    -0.343 N 
HETATM   28  H2  UNL     1      26.258   6.133  51.199  1.00  0.00     0.163 HD
BRANCH  27  29
HETATM   29  C1  UNL     1      25.520   7.582  49.880  1.00  0.00     0.349 C 
HETATM   30  O1  UNL     1      24.759   8.465  50.395  1.00  0.00    -0.284 OA
ENDBRANCH  27  29
ENDBRANCH  26  27
ENDBRANCH   1  26
TORSDOF 8
ENDMDL
MODEL 8
REMARK VINA RESULT:      -7.8      2.570      5.737
REMARK  8 active torsions:
REMARK  status: ('A' for Active; 'I' for Inactive)
REMARK    1  A    between atoms: C1_2  and  N1_3 
REMARK    2  A    between atoms: N1_3  and  C2_4 
REMARK    3  A    between atoms: C2_4  and  N2_5 
REMARK    4  A    between atoms: C9_15  and  N5_16 
REMARK    5  A    between atoms: N5_16  and  C10_17 
REMARK    6  A    between atoms: C10_17  and  C11_18 
REMARK    7  A    between atoms: C10_17  and  C12_20 
REMARK    8  A    between atoms: C11_18  and  O2_19 
ROOT
HETATM    1  N2  UNL     1      26.391  -0.617  53.239  1.00  0.00     0.110 N 
HETATM    2  C3  UNL     1      25.230  -0.018  53.858  1.00  0.00     0.279 C 
HETATM    3  C4  UNL     1      24.175   0.132  52.736  1.00  0.00     0.071 C 
HETATM    4  C5  UNL     1      24.525   1.392  52.056  1.00  0.00    -0.025 A 
HETATM    5  C6  UNL     1      25.864   1.204  51.726  1.00  0.00     0.020 A 
HETATM    6  S1  UNL     1      26.316   2.767  50.879  1.00  0.00    -0.072 SA
HETATM    7  C7  UNL     1      24.742   3.499  51.036  1.00  0.00     0.114 A 
HETATM    8  N3  UNL     1      24.359   4.706  50.607  1.00  0.00    -0.234 NA
HETATM    9  C8  UNL     1      23.099   5.114  50.810  1.00  0.00     0.236 A 
HETATM   10  N4  UNL     1      22.335   4.229  51.448  1.00  0.00    -0.224 NA
HETATM   11  C9  UNL     1      22.690   3.018  51.887  1.00  0.00     0.139 A 
HETATM   12  C18 UNL     1      23.982   2.578  51.688  1.00  0.00     0.053 A 
HETATM   13  C19 UNL     1      26.729   0.029  51.990  1.00  0.00     0.321 C 
ENDROOT
BRANCH  11  14
HETATM   14  N5  UNL     1      21.629   2.298  52.554  1.00  0.00    -0.363 N 
HETATM   15  H10 UNL     1      21.387   2.137  53.540  1.00  0.00     0.162 HD
BRANCH  14  16
HETATM   16  C10 UNL     1      20.611   1.598  51.799  1.00  0.00     0.140 C 
BRANCH  16  17
HETATM   17  C11 UNL     1      19.461   2.484  51.426  1.00  0.00     0.194 C 
BRANCH  17  18
HETATM   18  O2  UNL     1      19.352   3.598  52.247  1.00  0.00    -0.399 OA
HETATM   19  H14 UNL     1      20.137   4.164  52.082  1.00  0.00     0.209 HD
ENDBRANCH  17  18
ENDBRANCH  16  17
BRANCH  16  20
HETATM   20  C12 UNL     1      20.162   0.373  52.558  1.00  0.00    -0.034 A 
HETATM   21  C13 UNL     1      18.850   0.101  52.145  1.00  0.00     0.009 A 
HETATM   22  C14 UNL     1      18.136  -0.984  52.660  1.00  0.00     0.001 A 
HETATM   23  C15 UNL     1      18.745  -1.804  53.600  1.00  0.00     0.000 A 
HETATM   24  C16 UNL     1      20.031  -1.510  53.984  1.00  0.00     0.001 A 
HETATM   25  C17 UNL     1      20.742  -0.445  53.482  1.00  0.00     0.009 A 
ENDBRANCH  16  20
ENDBRANCH  14  16
ENDBRANCH  11  14
BRANCH   1  26
HETATM   26  C2  UNL     1      27.464  -0.524  54.209  1.00  0.00     0.397 C 
BRANCH  26  27
HETATM   27  N1  UNL     1      27.606   0.830  54.740  1.00  0.00    -0.343 N 
HETATM   28  H2  UNL     1      26.979   1.550  55.160  1.00  0.00     0.163 HD
BRANCH  27  29
HETATM   29  C1  UNL     1      28.973   1.196  54.627  1.00  0.00     0.349 C 
HETATM   30  O1  UNL     1      29.310   2.426  54.626  1.00  0.00    -0.284 OA
ENDBRANCH  27  29
ENDBRANCH  26  27
ENDBRANCH   1  26
TORSDOF 8
ENDMDL
MODEL 9
REMARK VINA RESULT:      -7.7      3.458      6.732
REMARK  8 active torsions:
REMARK  status: ('A' for Active; 'I' for Inactive)
REMARK    1  A    between atoms: C1_2  and  N1_3 
REMARK    2  A    between atoms: N1_3  and  C2_4 
REMARK    3  A    between atoms: C2_4  and  N2_5 
REMARK    4  A    between atoms: C9_15  and  N5_16 
REMARK    5  A    between atoms: N5_16  and  C10_17 
REMARK    6  A    between atoms: C10_17  and  C11_18 
REMARK    7  A    between atoms: C10_17  and  C12_20 
REMARK    8  A    between atoms: C11_18  and  O2_19 
ROOT
HETATM    1  N2  UNL     1      25.714  -0.036  53.506  1.00  0.00     0.110 N 
HETATM    2  C3  UNL     1      24.380  -0.437  53.892  1.00  0.00     0.279 C 
HETATM    3  C4  UNL     1      23.533  -0.414  52.597  1.00  0.00     0.071 C 
HETATM    4  C5  UNL     1      23.120   0.992  52.442  1.00  0.00    -0.025 A 
HETATM    5  C6  UNL     1      24.330   1.677  52.490  1.00  0.00     0.020 A 
HETATM    6  S1  UNL     1      23.830   3.432  52.301  1.00  0.00    -0.072 SA
HETATM    7  C7  UNL     1      22.123   3.105  52.181  1.00  0.00     0.114 A 
HETATM    8  N3  UNL     1      21.134   3.991  52.019  1.00  0.00    -0.234 NA
HETATM    9  C8  UNL     1      19.866   3.562  51.943  1.00  0.00     0.236 A 
HETATM   10  N4  UNL     1      19.729   2.241  52.041  1.00  0.00    -0.224 NA
HETATM   11  C9  UNL     1      20.697   1.335  52.202  1.00  0.00     0.139 A 
HETATM   12  C18 UNL     1      22.009   1.753  52.283  1.00  0.00     0.053 A 
HETATM   13  C19 UNL     1      25.699   1.133  52.655  1.00  0.00     0.321 C 
ENDROOT
BRANCH  11  14
HETATM   14  N5  UNL     1      20.222  -0.027  52.286  1.00  0.00    -0.363 N 
HETATM   15  H10 UNL     1      20.143  -0.798  51.611  1.00  0.00     0.162 HD
BRANCH  14  16
HETATM   16  C10 UNL     1      19.713  -0.565  53.531  1.00  0.00     0.140 C 
BRANCH  16  17
HETATM   17  C11 UNL     1      20.742  -1.361  54.276  1.00  0.00     0.194 C 
BRANCH  17  18
HETATM   18  O2  UNL     1      21.293  -0.663  55.343  1.00  0.00    -0.399 OA
HETATM   19  H14 UNL     1      20.796  -0.918  56.150  1.00  0.00     0.209 HD
ENDBRANCH  17  18
ENDBRANCH  16  17
BRANCH  16  20
HETATM   20  C12 UNL     1      18.459  -1.363  53.269  1.00  0.00    -0.034 A 
HETATM   21  C13 UNL     1      17.672  -0.602  52.393  1.00  0.00     0.009 A 
HETATM   22  C14 UNL     1      16.432  -1.063  51.944  1.00  0.00     0.001 A 
HETATM   23  C15 UNL     1      15.976  -2.300  52.378  1.00  0.00     0.000 A 
HETATM   24  C16 UNL     1      16.771  -3.021  53.237  1.00  0.00     0.001 A 
HETATM   25  C17 UNL     1      17.994  -2.576  53.684  1.00  0.00     0.009 A 
ENDBRANCH  16  20
ENDBRANCH  14  16
ENDBRANCH  11  14
BRANCH   1  26
HETATM   26  C2  UNL     1      26.443   0.196  54.737  1.00  0.00     0.397 C 
BRANCH  26  27
HETATM   27  N1  UNL     1      27.725  -0.503  54.755  1.00  0.00    -0.343 N 
HETATM   28  H2  UNL     1      28.050  -1.495  54.768  1.00  0.00     0.163 HD
BRANCH  27  29
HETATM   29  C1  UNL     1      28.751   0.479  54.751  1.00  0.00     0.349 C 
HETATM   30  O1  UNL     1      29.475   0.647  53.715  1.00  0.00    -0.284 OA
ENDBRANCH  27  29
ENDBRANCH  26  27
ENDBRANCH   1  26
TORSDOF 8
ENDMDL
