MODEL 1
REMARK VINA RESULT:      -8.3      0.000      0.000
REMARK  2 active torsions:
REMARK  status: ('A' for Active; 'I' for Inactive)
REMARK    1  A    between atoms: O1_1  and  C1_2 
REMARK    2  A    between atoms: C4_5  and  C5_6 
ROOT
HETATM    1  C5  UNL     1      24.320  -0.001  53.124  1.00  0.00     0.032 C 
HETATM    2  C6  UNL     1      23.244   0.609  52.699  1.00  0.00     0.122 C 
HETATM    3  N1  UNL     1      23.197   1.703  51.799  1.00  0.00    -0.227 NA
HETATM    4  C7  UNL     1      23.511   2.910  52.101  1.00  0.00     0.214 C 
HETATM    5  N2  UNL     1      23.214   3.343  50.757  1.00  0.00    -0.341 N 
HETATM    6  S1  UNL     1      21.657   3.795  50.024  1.00  0.00    -0.147 SA
HETATM    7  C8  UNL     1      20.482   2.489  50.149  1.00  0.00     0.233 C 
HETATM    8  C9  UNL     1      19.538   1.953  49.419  1.00  0.00    -0.008 C 
HETATM    9  C10 UNL     1      19.023   0.889  50.265  1.00  0.00    -0.001 C 
HETATM   10  C11 UNL     1      19.229   0.361  51.464  1.00  0.00     0.019 C 
HETATM   11  C12 UNL     1      19.104  -0.498  52.638  1.00  0.00     0.112 C 
HETATM   12  N3  UNL     1      19.751  -0.517  53.746  1.00  0.00    -0.282 NA
HETATM   13  C13 UNL     1      20.825   0.426  54.019  1.00  0.00     0.271 C 
HETATM   14  N4  UNL     1      21.943   0.217  53.118  1.00  0.00    -0.357 N 
HETATM   15  H7  UNL     1      23.994   3.428  50.041  1.00  0.00     0.173 HD
HETATM   16  H15 UNL     1      21.883  -0.547  52.397  1.00  0.00     0.162 HD
ENDROOT
BRANCH   1  17
HETATM   17  C4  UNL     1      25.664   0.412  52.688  1.00  0.00     0.039 A 
HETATM   18  C3  UNL     1      26.582  -0.709  52.328  1.00  0.00     0.054 A 
HETATM   19  C2  UNL     1      27.770  -0.507  53.195  1.00  0.00    -0.021 A 
HETATM   20  C1  UNL     1      28.949  -0.645  53.780  1.00  0.00     0.054 A 
HETATM   21  C15 UNL     1      27.546   0.671  54.017  1.00  0.00    -0.046 A 
HETATM   22  C16 UNL     1      28.864   0.525  54.684  1.00  0.00     0.103 A 
HETATM   23  C14 UNL     1      26.365   1.200  53.744  1.00  0.00    -0.010 A 
BRANCH  20  24
HETATM   24  O1  UNL     1      30.093  -1.425  53.819  1.00  0.00    -0.364 OA
HETATM   25  H1  UNL     1      30.327  -2.046  54.592  1.00  0.00     0.217 HD
ENDBRANCH  20  24
ENDBRANCH   1  17
TORSDOF 2
ENDMDL
MODEL 2
REMARK VINA RESULT:      -8.1      2.323      3.178
REMARK  2 active torsions:
REMARK  status: ('A' for Active; 'I' for Inactive)
REMARK    1  A    between atoms: O1_1  and  C1_2 
REMARK    2  A    between atoms: C4_5  and  C5_6 
ROOT
HETATM    1  C5  UNL     1      24.732   1.365  52.292  1.00  0.00     0.032 C 
HETATM    2  C6  UNL     1      23.985   2.183  51.596  1.00  0.00     0.122 C 
HETATM    3  N1  UNL     1      24.082   3.596  51.573  1.00  0.00    -0.227 NA
HETATM    4  C7  UNL     1      23.689   4.371  52.517  1.00  0.00     0.214 C 
HETATM    5  N2  UNL     1      24.110   5.530  51.768  1.00  0.00    -0.341 N 
HETATM    6  S1  UNL     1      23.256   6.435  50.496  1.00  0.00    -0.147 SA
HETATM    7  C8  UNL     1      22.813   5.391  49.147  1.00  0.00     0.233 C 
HETATM    8  C9  UNL     1      22.760   5.455  47.842  1.00  0.00    -0.008 C 
HETATM    9  C10 UNL     1      22.279   4.137  47.462  1.00  0.00    -0.001 C 
HETATM   10  C11 UNL     1      21.914   2.992  48.025  1.00  0.00     0.019 C 
HETATM   11  C12 UNL     1      21.445   1.620  48.191  1.00  0.00     0.112 C 
HETATM   12  N3  UNL     1      21.264   0.909  49.243  1.00  0.00    -0.282 NA
HETATM   13  C13 UNL     1      21.532   1.433  50.574  1.00  0.00     0.271 C 
HETATM   14  N4  UNL     1      22.945   1.714  50.749  1.00  0.00    -0.357 N 
HETATM   15  H7  UNL     1      25.063   5.963  51.948  1.00  0.00     0.173 HD
HETATM   16  H15 UNL     1      23.606   1.524  49.953  1.00  0.00     0.162 HD
ENDROOT
BRANCH   1  17
HETATM   17  C4  UNL     1      25.805   1.859  53.170  1.00  0.00     0.039 A 
HETATM   18  C3  UNL     1      27.119   2.079  52.495  1.00  0.00     0.054 A 
HETATM   19  C2  UNL     1      28.078   1.253  53.272  1.00  0.00    -0.021 A 
HETATM   20  C1  UNL     1      29.180   0.662  53.706  1.00  0.00     0.054 A 
HETATM   21  C15 UNL     1      27.350   0.586  54.341  1.00  0.00    -0.046 A 
HETATM   22  C16 UNL     1      28.579  -0.085  54.834  1.00  0.00     0.103 A 
HETATM   23  C14 UNL     1      26.070   0.917  54.297  1.00  0.00    -0.010 A 
BRANCH  20  24
HETATM   24  O1  UNL     1      30.541   0.532  53.480  1.00  0.00    -0.364 OA
HETATM   25  H1  UNL     1      31.203   1.301  53.568  1.00  0.00     0.217 HD
ENDBRANCH  20  24
ENDBRANCH   1  17
TORSDOF 2
ENDMDL
MODEL 3
REMARK VINA RESULT:      -7.6      3.290      4.923
REMARK  2 active torsions:
REMARK  status: ('A' for Active; 'I' for Inactive)
REMARK    1  A    between atoms: O1_1  and  C1_2 
REMARK    2  A    between atoms: C4_5  and  C5_6 
ROOT
HETATM    1  C5  UNL     1      23.921   2.211  50.782  1.00  0.00     0.032 C 
HETATM    2  C6  UNL     1      23.521   3.369  50.324  1.00  0.00     0.122 C 
HETATM    3  N1  UNL     1      23.873   4.643  50.834  1.00  0.00    -0.227 NA
HETATM    4  C7  UNL     1      23.413   5.147  51.921  1.00  0.00     0.214 C 
HETATM    5  N2  UNL     1      24.201   6.339  51.725  1.00  0.00    -0.341 N 
HETATM    6  S1  UNL     1      23.852   7.789  50.754  1.00  0.00    -0.147 SA
HETATM    7  C8  UNL     1      23.562   7.379  49.065  1.00  0.00     0.233 C 
HETATM    8  C9  UNL     1      23.833   7.869  47.882  1.00  0.00    -0.008 C 
HETATM    9  C10 UNL     1      23.227   6.908  46.975  1.00  0.00    -0.001 C 
HETATM   10  C11 UNL     1      22.538   5.774  47.015  1.00  0.00     0.019 C 
HETATM   11  C12 UNL     1      21.804   4.586  46.590  1.00  0.00     0.112 C 
HETATM   12  N3  UNL     1      21.253   3.645  47.267  1.00  0.00    -0.282 NA
HETATM   13  C13 UNL     1      21.287   3.630  48.721  1.00  0.00     0.271 C 
HETATM   14  N4  UNL     1      22.645   3.474  49.209  1.00  0.00    -0.357 N 
HETATM   15  H7  UNL     1      25.147   6.437  52.201  1.00  0.00     0.173 HD
HETATM   16  H15 UNL     1      23.431   3.390  48.515  1.00  0.00     0.162 HD
ENDROOT
BRANCH   1  17
HETATM   17  C4  UNL     1      24.826   2.110  51.938  1.00  0.00     0.039 A 
HETATM   18  C3  UNL     1      26.137   1.453  51.657  1.00  0.00     0.054 A 
HETATM   19  C2  UNL     1      26.207   0.334  52.631  1.00  0.00    -0.021 A 
HETATM   20  C1  UNL     1      26.610  -0.719  53.324  1.00  0.00     0.054 A 
HETATM   21  C15 UNL     1      24.993   0.345  53.432  1.00  0.00    -0.046 A 
HETATM   22  C16 UNL     1      25.432  -0.838  54.214  1.00  0.00     0.103 A 
HETATM   23  C14 UNL     1      24.206   1.339  53.055  1.00  0.00    -0.010 A 
BRANCH  20  24
HETATM   24  O1  UNL     1      27.643  -1.630  53.472  1.00  0.00    -0.364 OA
HETATM   25  H1  UNL     1      28.151  -1.770  54.344  1.00  0.00     0.217 HD
ENDBRANCH  20  24
ENDBRANCH   1  17
TORSDOF 2
ENDMDL
MODEL 4
REMARK VINA RESULT:      -7.5      2.153      3.533
REMARK  2 active torsions:
REMARK  status: ('A' for Active; 'I' for Inactive)
REMARK    1  A    between atoms: O1_1  and  C1_2 
REMARK    2  A    between atoms: C4_5  and  C5_6 
ROOT
HETATM    1  C5  UNL     1      24.102   1.660  51.445  1.00  0.00     0.032 C 
HETATM    2  C6  UNL     1      22.853   1.341  51.228  1.00  0.00     0.122 C 
HETATM    3  N1  UNL     1      21.977   0.701  52.140  1.00  0.00    -0.227 NA
HETATM    4  C7  UNL     1      22.025  -0.544  52.448  1.00  0.00     0.214 C 
HETATM    5  N2  UNL     1      20.904  -0.385  53.343  1.00  0.00    -0.341 N 
HETATM    6  S1  UNL     1      19.159  -0.406  52.998  1.00  0.00    -0.147 SA
HETATM    7  C8  UNL     1      18.723   0.815  51.805  1.00  0.00     0.233 C 
HETATM    8  C9  UNL     1      17.746   1.657  51.584  1.00  0.00    -0.008 C 
HETATM    9  C10 UNL     1      18.152   2.326  50.358  1.00  0.00    -0.001 C 
HETATM   10  C11 UNL     1      19.150   2.318  49.484  1.00  0.00     0.019 C 
HETATM   11  C12 UNL     1      19.979   2.644  48.328  1.00  0.00     0.112 C 
HETATM   12  N3  UNL     1      21.109   2.178  47.938  1.00  0.00    -0.282 NA
HETATM   13  C13 UNL     1      21.803   1.137  48.681  1.00  0.00     0.271 C 
HETATM   14  N4  UNL     1      22.211   1.616  49.989  1.00  0.00    -0.357 N 
HETATM   15  H7  UNL     1      21.070  -0.227  54.381  1.00  0.00     0.173 HD
HETATM   16  H15 UNL     1      21.987   2.606  50.264  1.00  0.00     0.162 HD
ENDROOT
BRANCH   1  17
HETATM   17  C4  UNL     1      24.760   1.369  52.729  1.00  0.00     0.039 A 
HETATM   18  C3  UNL     1      25.547   2.500  53.304  1.00  0.00     0.054 A 
HETATM   19  C2  UNL     1      26.911   1.944  53.494  1.00  0.00    -0.021 A 
HETATM   20  C1  UNL     1      28.192   1.806  53.797  1.00  0.00     0.054 A 
HETATM   21  C15 UNL     1      26.910   0.561  53.047  1.00  0.00    -0.046 A 
HETATM   22  C16 UNL     1      28.347   0.394  53.379  1.00  0.00     0.103 A 
HETATM   23  C14 UNL     1      25.707   0.222  52.613  1.00  0.00    -0.010 A 
BRANCH  20  24
HETATM   24  O1  UNL     1      29.295   2.466  54.314  1.00  0.00    -0.364 OA
HETATM   25  H1  UNL     1      29.233   3.208  55.010  1.00  0.00     0.217 HD
ENDBRANCH  20  24
ENDBRANCH   1  17
TORSDOF 2
ENDMDL
MODEL 5
REMARK VINA RESULT:      -7.4      3.385      5.382
REMARK  2 active torsions:
REMARK  status: ('A' for Active; 'I' for Inactive)
REMARK    1  A    between atoms: O1_1  and  C1_2 
REMARK    2  A    between atoms: C4_5  and  C5_6 
ROOT
HETATM    1  C5  UNL     1      25.516   3.098  51.351  1.00  0.00     0.032 C 
HETATM    2  C6  UNL     1      24.743   3.925  50.696  1.00  0.00     0.122 C 
HETATM    3  N1  UNL     1      23.504   3.612  50.083  1.00  0.00    -0.227 NA
HETATM    4  C7  UNL     1      23.377   2.954  48.988  1.00  0.00     0.214 C 
HETATM    5  N2  UNL     1      21.941   3.067  49.064  1.00  0.00    -0.341 N 
HETATM    6  S1  UNL     1      20.874   4.391  48.542  1.00  0.00    -0.147 SA
HETATM    7  C8  UNL     1      21.303   5.911  49.322  1.00  0.00     0.233 C 
HETATM    8  C9  UNL     1      20.695   6.953  49.829  1.00  0.00    -0.008 C 
HETATM    9  C10 UNL     1      21.791   7.791  50.287  1.00  0.00    -0.001 C 
HETATM   10  C11 UNL     1      23.117   7.788  50.328  1.00  0.00     0.019 C 
HETATM   11  C12 UNL     1      24.494   8.202  50.579  1.00  0.00     0.112 C 
HETATM   12  N3  UNL     1      25.611   7.623  50.328  1.00  0.00    -0.282 NA
HETATM   13  C13 UNL     1      25.668   6.321  49.681  1.00  0.00     0.271 C 
HETATM   14  N4  UNL     1      25.082   5.295  50.524  1.00  0.00    -0.357 N 
HETATM   15  H7  UNL     1      21.367   2.278  49.485  1.00  0.00     0.173 HD
HETATM   16  H15 UNL     1      24.697   5.564  51.465  1.00  0.00     0.162 HD
ENDROOT
BRANCH   1  17
HETATM   17  C4  UNL     1      25.159   1.681  51.522  1.00  0.00     0.039 A 
HETATM   18  C3  UNL     1      24.355   1.377  52.743  1.00  0.00     0.054 A 
HETATM   19  C2  UNL     1      25.146   0.346  53.461  1.00  0.00    -0.021 A 
HETATM   20  C1  UNL     1      25.555  -0.547  54.349  1.00  0.00     0.054 A 
HETATM   21  C15 UNL     1      26.349   0.071  52.692  1.00  0.00    -0.046 A 
HETATM   22  C16 UNL     1      26.820  -0.930  53.683  1.00  0.00     0.103 A 
HETATM   23  C14 UNL     1      26.371   0.814  51.598  1.00  0.00    -0.010 A 
BRANCH  20  24
HETATM   24  O1  UNL     1      25.227  -1.164  55.545  1.00  0.00    -0.364 OA
HETATM   25  H1  UNL     1      25.894  -1.324  56.299  1.00  0.00     0.217 HD
ENDBRANCH  20  24
ENDBRANCH   1  17
TORSDOF 2
ENDMDL
MODEL 6
REMARK VINA RESULT:      -7.3      4.574      6.006
REMARK  2 active torsions:
REMARK  status: ('A' for Active; 'I' for Inactive)
REMARK    1  A    between atoms: O1_1  and  C1_2 
REMARK    2  A    between atoms: C4_5  and  C5_6 
ROOT
HETATM    1  C5  UNL     1      24.436   4.228  49.387  1.00  0.00     0.032 C 
HETATM    2  C6  UNL     1      23.938   3.184  49.997  1.00  0.00     0.122 C 
HETATM    3  N1  UNL     1      24.470   2.548  51.146  1.00  0.00    -0.227 NA
HETATM    4  C7  UNL     1      25.511   1.795  51.149  1.00  0.00     0.214 C 
HETATM    5  N2  UNL     1      25.376   1.583  52.570  1.00  0.00    -0.341 N 
HETATM    6  S1  UNL     1      24.370   0.414  53.457  1.00  0.00    -0.147 SA
HETATM    7  C8  UNL     1      22.665   0.593  53.052  1.00  0.00     0.233 C 
HETATM    8  C9  UNL     1      21.508   0.542  53.660  1.00  0.00    -0.008 C 
HETATM    9  C10 UNL     1      20.557   0.807  52.592  1.00  0.00    -0.001 C 
HETATM   10  C11 UNL     1      20.543   1.063  51.291  1.00  0.00     0.019 C 
HETATM   11  C12 UNL     1      20.063   1.356  49.944  1.00  0.00     0.112 C 
HETATM   12  N3  UNL     1      20.694   1.540  48.842  1.00  0.00    -0.282 NA
HETATM   13  C13 UNL     1      22.146   1.476  48.774  1.00  0.00     0.271 C 
HETATM   14  N4  UNL     1      22.751   2.545  49.546  1.00  0.00    -0.357 N 
HETATM   15  H7  UNL     1      25.932   2.179  53.252  1.00  0.00     0.173 HD
HETATM   16  H15 UNL     1      22.129   3.227  50.050  1.00  0.00     0.162 HD
ENDROOT
BRANCH   1  17
HETATM   17  C4  UNL     1      25.667   4.882  49.858  1.00  0.00     0.039 A 
HETATM   18  C3  UNL     1      25.656   6.374  49.787  1.00  0.00     0.054 A 
HETATM   19  C2  UNL     1      26.846   6.715  48.968  1.00  0.00    -0.021 A 
HETATM   20  C1  UNL     1      27.780   7.379  48.305  1.00  0.00     0.054 A 
HETATM   21  C15 UNL     1      27.509   5.480  48.582  1.00  0.00    -0.046 A 
HETATM   22  C16 UNL     1      28.560   6.213  47.833  1.00  0.00     0.103 A 
HETATM   23  C14 UNL     1      26.859   4.439  49.076  1.00  0.00    -0.010 A 
BRANCH  20  24
HETATM   24  O1  UNL     1      28.213   8.647  47.955  1.00  0.00    -0.364 OA
HETATM   25  H1  UNL     1      28.552   8.890  47.025  1.00  0.00     0.217 HD
ENDBRANCH  20  24
ENDBRANCH   1  17
TORSDOF 2
ENDMDL
MODEL 7
REMARK VINA RESULT:      -7.3      4.356      6.037
REMARK  2 active torsions:
REMARK  status: ('A' for Active; 'I' for Inactive)
REMARK    1  A    between atoms: O1_1  and  C1_2 
REMARK    2  A    between atoms: C4_5  and  C5_6 
ROOT
HETATM    1  C5  UNL     1      26.565   3.324  50.687  1.00  0.00     0.032 C 
HETATM    2  C6  UNL     1      25.603   2.809  51.408  1.00  0.00     0.122 C 
HETATM    3  N1  UNL     1      24.212   2.930  51.165  1.00  0.00    -0.227 NA
HETATM    4  C7  UNL     1      23.523   3.992  51.378  1.00  0.00     0.214 C 
HETATM    5  N2  UNL     1      22.328   3.331  50.913  1.00  0.00    -0.341 N 
HETATM    6  S1  UNL     1      21.200   2.269  51.787  1.00  0.00    -0.147 SA
HETATM    7  C8  UNL     1      22.028   0.871  52.469  1.00  0.00     0.233 C 
HETATM    8  C9  UNL     1      21.803  -0.405  52.644  1.00  0.00    -0.008 C 
HETATM    9  C10 UNL     1      23.015  -0.872  53.298  1.00  0.00    -0.001 C 
HETATM   10  C11 UNL     1      24.179  -0.401  53.726  1.00  0.00     0.019 C 
HETATM   11  C12 UNL     1      25.511  -0.336  54.318  1.00  0.00     0.112 C 
HETATM   12  N3  UNL     1      26.324   0.646  54.469  1.00  0.00    -0.282 NA
HETATM   13  C13 UNL     1      25.991   1.988  54.016  1.00  0.00     0.271 C 
HETATM   14  N4  UNL     1      25.867   2.035  52.571  1.00  0.00    -0.357 N 
HETATM   15  H7  UNL     1      22.011   3.452  49.905  1.00  0.00     0.173 HD
HETATM   16  H15 UNL     1      26.021   1.155  52.016  1.00  0.00     0.162 HD
ENDROOT
BRANCH   1  17
HETATM   17  C4  UNL     1      26.284   4.126  49.486  1.00  0.00     0.039 A 
HETATM   18  C3  UNL     1      27.467   4.392  48.614  1.00  0.00     0.054 A 
HETATM   19  C2  UNL     1      27.522   5.871  48.506  1.00  0.00    -0.021 A 
HETATM   20  C1  UNL     1      27.878   7.106  48.188  1.00  0.00     0.054 A 
HETATM   21  C15 UNL     1      26.426   6.431  49.280  1.00  0.00    -0.046 A 
HETATM   22  C16 UNL     1      26.817   7.821  48.934  1.00  0.00     0.103 A 
HETATM   23  C14 UNL     1      25.720   5.462  49.837  1.00  0.00    -0.010 A 
BRANCH  20  24
HETATM   24  O1  UNL     1      28.801   7.854  47.474  1.00  0.00    -0.364 OA
HETATM   25  H1  UNL     1      28.890   8.866  47.556  1.00  0.00     0.217 HD
ENDBRANCH  20  24
ENDBRANCH   1  17
TORSDOF 2
ENDMDL
MODEL 8
REMARK VINA RESULT:      -7.2      9.977     12.723
REMARK  2 active torsions:
REMARK  status: ('A' for Active; 'I' for Inactive)
REMARK    1  A    between atoms: O1_1  and  C1_2 
REMARK    2  A    between atoms: C4_5  and  C5_6 
ROOT
HETATM    1  C5  UNL     1      29.899   7.140  46.993  1.00  0.00     0.032 C 
HETATM    2  C6  UNL     1      31.140   6.808  46.743  1.00  0.00     0.122 C 
HETATM    3  N1  UNL     1      32.010   6.094  47.604  1.00  0.00    -0.227 NA
HETATM    4  C7  UNL     1      32.570   6.587  48.649  1.00  0.00     0.214 C 
HETATM    5  N2  UNL     1      33.219   5.327  48.918  1.00  0.00    -0.341 N 
HETATM    6  S1  UNL     1      34.734   4.663  48.262  1.00  0.00    -0.147 SA
HETATM    7  C8  UNL     1      34.688   4.569  46.503  1.00  0.00     0.233 C 
HETATM    8  C9  UNL     1      35.087   3.755  45.560  1.00  0.00    -0.008 C 
HETATM    9  C10 UNL     1      34.652   4.418  44.341  1.00  0.00    -0.001 C 
HETATM   10  C11 UNL     1      34.018   5.519  43.959  1.00  0.00     0.019 C 
HETATM   11  C12 UNL     1      33.405   6.539  43.115  1.00  0.00     0.112 C 
HETATM   12  N3  UNL     1      32.807   7.635  43.411  1.00  0.00    -0.282 NA
HETATM   13  C13 UNL     1      32.637   8.064  44.792  1.00  0.00     0.271 C 
HETATM   14  N4  UNL     1      31.776   7.149  45.518  1.00  0.00    -0.357 N 
HETATM   15  H7  UNL     1      32.783   4.639  49.601  1.00  0.00     0.173 HD
HETATM   16  H15 UNL     1      31.376   6.316  45.017  1.00  0.00     0.162 HD
ENDROOT
BRANCH   1  17
HETATM   17  C4  UNL     1      29.248   6.786  48.265  1.00  0.00     0.039 A 
HETATM   18  C3  UNL     1      28.730   5.388  48.340  1.00  0.00     0.054 A 
HETATM   19  C2  UNL     1      27.291   5.543  48.670  1.00  0.00    -0.021 A 
HETATM   20  C1  UNL     1      26.022   5.295  48.952  1.00  0.00     0.054 A 
HETATM   21  C15 UNL     1      26.994   6.963  48.778  1.00  0.00    -0.046 A 
HETATM   22  C16 UNL     1      25.567   6.697  49.090  1.00  0.00     0.103 A 
HETATM   23  C14 UNL     1      28.085   7.675  48.552  1.00  0.00    -0.010 A 
BRANCH  20  24
HETATM   24  O1  UNL     1      25.096   4.281  49.138  1.00  0.00    -0.364 OA
HETATM   25  H1  UNL     1      25.238   3.497  49.774  1.00  0.00     0.217 HD
ENDBRANCH  20  24
ENDBRANCH   1  17
TORSDOF 2
ENDMDL
MODEL 9
REMARK VINA RESULT:      -7.2      5.002      6.115
REMARK  2 active torsions:
REMARK  status: ('A' for Active; 'I' for Inactive)
REMARK    1  A    between atoms: O1_1  and  C1_2 
REMARK    2  A    between atoms: C4_5  and  C5_6 
ROOT
HETATM    1  C5  UNL     1      26.256   4.597  49.915  1.00  0.00     0.032 C 
HETATM    2  C6  UNL     1      25.026   4.161  49.988  1.00  0.00     0.122 C 
HETATM    3  N1  UNL     1      24.034   4.265  48.981  1.00  0.00    -0.227 NA
HETATM    4  C7  UNL     1      23.414   5.347  48.676  1.00  0.00     0.214 C 
HETATM    5  N2  UNL     1      22.661   4.651  47.661  1.00  0.00    -0.341 N 
HETATM    6  S1  UNL     1      21.173   3.687  47.806  1.00  0.00    -0.147 SA
HETATM    7  C8  UNL     1      21.375   2.358  48.945  1.00  0.00     0.233 C 
HETATM    8  C9  UNL     1      21.013   1.106  49.057  1.00  0.00    -0.008 C 
HETATM    9  C10 UNL     1      21.602   0.698  50.322  1.00  0.00    -0.001 C 
HETATM   10  C11 UNL     1      22.339   1.202  51.304  1.00  0.00     0.019 C 
HETATM   11  C12 UNL     1      23.093   1.318  52.547  1.00  0.00     0.112 C 
HETATM   12  N3  UNL     1      23.732   2.305  53.062  1.00  0.00    -0.282 NA
HETATM   13  C13 UNL     1      23.801   3.598  52.399  1.00  0.00     0.271 C 
HETATM   14  N4  UNL     1      24.529   3.504  51.147  1.00  0.00    -0.357 N 
HETATM   15  H7  UNL     1      22.986   4.674  46.649  1.00  0.00     0.173 HD
HETATM   16  H15 UNL     1      24.918   2.573  50.851  1.00  0.00     0.162 HD
ENDROOT
BRANCH   1  17
HETATM   17  C4  UNL     1      26.762   5.279  48.713  1.00  0.00     0.039 A 
HETATM   18  C3  UNL     1      28.192   5.000  48.385  1.00  0.00     0.054 A 
HETATM   19  C2  UNL     1      28.828   6.341  48.330  1.00  0.00    -0.021 A 
HETATM   20  C1  UNL     1      29.706   7.322  48.198  1.00  0.00     0.054 A 
HETATM   21  C15 UNL     1      27.814   7.343  48.615  1.00  0.00    -0.046 A 
HETATM   22  C16 UNL     1      28.790   8.452  48.474  1.00  0.00     0.103 A 
HETATM   23  C14 UNL     1      26.646   6.762  48.833  1.00  0.00    -0.010 A 
BRANCH  20  24
HETATM   24  O1  UNL     1      31.034   7.603  47.920  1.00  0.00    -0.364 OA
HETATM   25  H1  UNL     1      31.578   7.111  47.212  1.00  0.00     0.217 HD
ENDBRANCH  20  24
ENDBRANCH   1  17
TORSDOF 2
ENDMDL
