MODEL 1
REMARK VINA RESULT:      -8.4      0.000      0.000
REMARK  1 active torsions:
REMARK  status: ('A' for Active; 'I' for Inactive)
REMARK    1  A    between atoms: C2_2  and  C3_4 
ROOT
HETATM    1  C3  UNL     1      22.776   3.717  48.780  1.00  0.00     0.179 C 
HETATM    2  F1  UNL     1      22.930   4.421  47.640  1.00  0.00    -0.201 F 
HETATM    3  C4  UNL     1      23.088   3.898  50.037  1.00  0.00     0.172 A 
HETATM    4  N1  UNL     1      22.685   2.825  50.870  1.00  0.00    -0.227 NA
HETATM    5  C5  UNL     1      22.906   2.814  52.141  1.00  0.00     0.078 A 
HETATM    6  C6  UNL     1      23.581   3.890  52.849  1.00  0.00     0.050 A 
HETATM    7  C7  UNL     1      23.973   4.910  52.107  1.00  0.00     0.097 A 
HETATM    8  N2  UNL     1      23.748   4.950  50.712  1.00  0.00    -0.306 N 
HETATM    9  C8  UNL     1      24.272   6.090  49.957  1.00  0.00     0.354 C 
HETATM   10  C9  UNL     1      23.735   7.343  50.595  1.00  0.00     0.225 C 
HETATM   11  O1  UNL     1      24.397   8.483  50.134  1.00  0.00    -0.386 OA
HETATM   12  C10 UNL     1      25.107   8.198  48.989  1.00  0.00     0.198 C 
HETATM   13  C11 UNL     1      26.216   7.208  49.266  1.00  0.00     0.302 C 
HETATM   14  N3  UNL     1      25.723   6.066  49.979  1.00  0.00     0.126 N 
HETATM   15  C12 UNL     1      26.291   4.882  49.376  1.00  0.00     0.369 C 
HETATM   16  C13 UNL     1      26.205   3.710  50.150  1.00  0.00    -0.067 C 
HETATM   17  C14 UNL     1      26.117   2.745  50.804  1.00  0.00    -0.019 C 
HETATM   18  C15 UNL     1      26.000   1.605  51.599  1.00  0.00     0.272 C 
HETATM   19  O2  UNL     1      27.038   0.926  51.800  1.00  0.00    -0.274 OA
HETATM   20  C16 UNL     1      24.724   1.221  52.176  1.00  0.00     0.204 A 
HETATM   21  N4  UNL     1      24.712   0.175  52.883  1.00  0.00    -0.268 N 
HETATM   22  C17 UNL     1      25.790  -0.702  53.203  1.00  0.00     0.180 C 
HETATM   23  N5  UNL     1      23.487   0.834  52.744  1.00  0.00    -0.240 N 
HETATM   24  C18 UNL     1      22.436   1.599  52.786  1.00  0.00     0.150 C 
ENDROOT
BRANCH   1  25
HETATM   25  C2  UNL     1      22.114   2.424  48.766  1.00  0.00     0.051 A 
HETATM   26  C1  UNL     1      21.095   2.246  47.943  1.00  0.00     0.156 A 
HETATM   27 CL1  UNL     1      21.420   0.826  48.864  1.00  0.00    -0.178 Cl
ENDBRANCH   1  25
TORSDOF 1
ENDMDL
MODEL 2
REMARK VINA RESULT:      -8.1      2.863      6.654
REMARK  1 active torsions:
REMARK  status: ('A' for Active; 'I' for Inactive)
REMARK    1  A    between atoms: C2_2  and  C3_4 
ROOT
HETATM    1  C3  UNL     1      26.647   4.538  49.229  1.00  0.00     0.179 C 
HETATM    2  F1  UNL     1      26.902   3.219  49.120  1.00  0.00    -0.201 F 
HETATM    3  C4  UNL     1      25.756   5.268  49.850  1.00  0.00     0.172 A 
HETATM    4  N1  UNL     1      25.932   6.658  49.641  1.00  0.00    -0.227 NA
HETATM    5  C5  UNL     1      25.152   7.542  50.164  1.00  0.00     0.078 A 
HETATM    6  C6  UNL     1      24.022   7.212  51.019  1.00  0.00     0.050 A 
HETATM    7  C7  UNL     1      23.824   5.925  51.238  1.00  0.00     0.097 A 
HETATM    8  N2  UNL     1      24.659   4.932  50.675  1.00  0.00    -0.306 N 
HETATM    9  C8  UNL     1      24.329   3.527  50.919  1.00  0.00     0.354 C 
HETATM   10  C9  UNL     1      24.240   3.333  52.409  1.00  0.00     0.225 C 
HETATM   11  O1  UNL     1      23.653   2.108  52.737  1.00  0.00    -0.386 OA
HETATM   12  C10 UNL     1      23.633   1.275  51.641  1.00  0.00     0.198 C 
HETATM   13  C11 UNL     1      22.749   1.831  50.547  1.00  0.00     0.302 C 
HETATM   14  N3  UNL     1      23.074   3.199  50.268  1.00  0.00     0.126 N 
HETATM   15  C12 UNL     1      23.105   3.368  48.833  1.00  0.00     0.369 C 
HETATM   16  C13 UNL     1      23.057   4.699  48.381  1.00  0.00    -0.067 C 
HETATM   17  C14 UNL     1      23.024   5.813  48.023  1.00  0.00    -0.019 C 
HETATM   18  C15 UNL     1      22.985   7.147  47.620  1.00  0.00     0.272 C 
HETATM   19  O2  UNL     1      22.136   7.468  46.751  1.00  0.00    -0.274 OA
HETATM   20  C16 UNL     1      23.893   8.128  48.185  1.00  0.00     0.204 A 
HETATM   21  N4  UNL     1      23.787   9.312  47.762  1.00  0.00    -0.268 N 
HETATM   22  C17 UNL     1      22.887   9.837  46.787  1.00  0.00     0.180 C 
HETATM   23  N5  UNL     1      24.772   9.096  48.728  1.00  0.00    -0.240 N 
HETATM   24  C18 UNL     1      25.502   8.901  49.786  1.00  0.00     0.150 C 
ENDROOT
BRANCH   1  25
HETATM   25  C2  UNL     1      27.486   5.512  48.552  1.00  0.00     0.051 A 
HETATM   26  C1  UNL     1      28.751   5.204  48.324  1.00  0.00     0.156 A 
HETATM   27 CL1  UNL     1      28.367   6.777  47.735  1.00  0.00    -0.178 Cl
ENDBRANCH   1  25
TORSDOF 1
ENDMDL
MODEL 3
REMARK VINA RESULT:      -7.7      7.243      9.949
REMARK  1 active torsions:
REMARK  status: ('A' for Active; 'I' for Inactive)
REMARK    1  A    between atoms: C2_2  and  C3_4 
ROOT
HETATM    1  C3  UNL     1      32.187   7.638  45.627  1.00  0.00     0.179 C 
HETATM    2  F1  UNL     1      32.746   6.774  44.755  1.00  0.00    -0.201 F 
HETATM    3  C4  UNL     1      32.090   7.717  46.929  1.00  0.00     0.172 A 
HETATM    4  N1  UNL     1      31.384   8.865  47.366  1.00  0.00    -0.227 NA
HETATM    5  C5  UNL     1      31.178   9.119  48.613  1.00  0.00     0.078 A 
HETATM    6  C6  UNL     1      31.645   8.267  49.695  1.00  0.00     0.050 A 
HETATM    7  C7  UNL     1      32.308   7.184  49.330  1.00  0.00     0.097 A 
HETATM    8  N2  UNL     1      32.547   6.877  47.970  1.00  0.00    -0.306 N 
HETATM    9  C8  UNL     1      33.235   5.624  47.653  1.00  0.00     0.354 C 
HETATM   10  C9  UNL     1      34.534   5.614  48.413  1.00  0.00     0.225 C 
HETATM   11  O1  UNL     1      35.127   4.349  48.406  1.00  0.00    -0.386 OA
HETATM   12  C10 UNL     1      34.558   3.556  47.435  1.00  0.00     0.198 C 
HETATM   13  C11 UNL     1      33.101   3.282  47.738  1.00  0.00     0.302 C 
HETATM   14  N3  UNL     1      32.397   4.498  48.023  1.00  0.00     0.126 N 
HETATM   15  C12 UNL     1      31.135   4.460  47.320  1.00  0.00     0.369 C 
HETATM   16  C13 UNL     1      30.173   5.390  47.755  1.00  0.00    -0.067 C 
HETATM   17  C14 UNL     1      29.389   6.175  48.125  1.00  0.00    -0.019 C 
HETATM   18  C15 UNL     1      28.471   7.121  48.580  1.00  0.00     0.272 C 
HETATM   19  O2  UNL     1      27.315   6.718  48.865  1.00  0.00    -0.274 OA
HETATM   20  C16 UNL     1      28.839   8.518  48.721  1.00  0.00     0.204 A 
HETATM   21  N4  UNL     1      27.944   9.302  49.141  1.00  0.00    -0.268 N 
HETATM   22  C17 UNL     1      26.595   9.011  49.503  1.00  0.00     0.180 C 
HETATM   23  N5  UNL     1      29.184   9.883  48.863  1.00  0.00    -0.240 N 
HETATM   24  C18 UNL     1      30.404  10.332  48.824  1.00  0.00     0.150 C 
ENDROOT
BRANCH   1  25
HETATM   25  C2  UNL     1      31.495   8.823  45.152  1.00  0.00     0.051 A 
HETATM   26  C1  UNL     1      31.512   9.087  43.857  1.00  0.00     0.156 A 
HETATM   27 CL1  UNL     1      30.625  10.277  44.733  1.00  0.00    -0.178 Cl
ENDBRANCH   1  25
TORSDOF 1
ENDMDL
MODEL 4
REMARK VINA RESULT:      -7.5      2.343      6.071
REMARK  1 active torsions:
REMARK  status: ('A' for Active; 'I' for Inactive)
REMARK    1  A    between atoms: C2_2  and  C3_4 
ROOT
HETATM    1  C3  UNL     1      21.771   1.245  49.421  1.00  0.00     0.179 C 
HETATM    2  F1  UNL     1      20.786   0.329  49.519  1.00  0.00    -0.201 F 
HETATM    3  C4  UNL     1      22.660   1.749  50.238  1.00  0.00     0.172 A 
HETATM    4  N1  UNL     1      23.500   2.708  49.621  1.00  0.00    -0.227 NA
HETATM    5  C5  UNL     1      24.436   3.323  50.261  1.00  0.00     0.078 A 
HETATM    6  C6  UNL     1      24.731   3.097  51.668  1.00  0.00     0.050 A 
HETATM    7  C7  UNL     1      23.969   2.209  52.279  1.00  0.00     0.097 A 
HETATM    8  N2  UNL     1      22.932   1.522  51.606  1.00  0.00    -0.306 N 
HETATM    9  C8  UNL     1      22.095   0.601  52.376  1.00  0.00     0.354 C 
HETATM   10  C9  UNL     1      23.009  -0.389  53.049  1.00  0.00     0.225 C 
HETATM   11  O1  UNL     1      22.340  -1.127  54.029  1.00  0.00    -0.386 OA
HETATM   12  C10 UNL     1      20.977  -1.002  53.880  1.00  0.00     0.198 C 
HETATM   13  C11 UNL     1      20.530   0.423  54.116  1.00  0.00     0.302 C 
HETATM   14  N3  UNL     1      21.315   1.345  53.348  1.00  0.00     0.126 N 
HETATM   15  C12 UNL     1      20.419   2.310  52.754  1.00  0.00     0.369 C 
HETATM   16  C13 UNL     1      21.029   3.479  52.266  1.00  0.00    -0.067 C 
HETATM   17  C14 UNL     1      21.555   4.441  51.858  1.00  0.00    -0.019 C 
HETATM   18  C15 UNL     1      22.203   5.579  51.377  1.00  0.00     0.272 C 
HETATM   19  O2  UNL     1      21.753   6.698  51.731  1.00  0.00    -0.274 OA
HETATM   20  C16 UNL     1      23.357   5.472  50.503  1.00  0.00     0.204 A 
HETATM   21  N4  UNL     1      23.880   6.554  50.117  1.00  0.00    -0.268 N 
HETATM   22  C17 UNL     1      23.494   7.894  50.420  1.00  0.00     0.180 C 
HETATM   23  N5  UNL     1      24.482   5.383  49.649  1.00  0.00    -0.240 N 
HETATM   24  C18 UNL     1      25.148   4.286  49.436  1.00  0.00     0.150 C 
ENDROOT
BRANCH   1  25
HETATM   25  C2  UNL     1      22.034   1.916  48.160  1.00  0.00     0.051 A 
HETATM   26  C1  UNL     1      21.040   2.555  47.567  1.00  0.00     0.156 A 
HETATM   27 CL1  UNL     1      22.499   2.670  46.657  1.00  0.00    -0.178 Cl
ENDBRANCH   1  25
TORSDOF 1
ENDMDL
MODEL 5
REMARK VINA RESULT:      -7.4      6.303      8.756
REMARK  1 active torsions:
REMARK  status: ('A' for Active; 'I' for Inactive)
REMARK    1  A    between atoms: C2_2  and  C3_4 
ROOT
HETATM    1  C3  UNL     1      28.202   7.954  48.064  1.00  0.00     0.179 C 
HETATM    2  F1  UNL     1      27.173   8.735  47.677  1.00  0.00    -0.201 F 
HETATM    3  C4  UNL     1      29.472   8.141  48.315  1.00  0.00     0.172 A 
HETATM    4  N1  UNL     1      30.141   6.956  48.710  1.00  0.00    -0.227 NA
HETATM    5  C5  UNL     1      31.399   6.933  48.995  1.00  0.00     0.078 A 
HETATM    6  C6  UNL     1      32.256   8.107  48.947  1.00  0.00     0.050 A 
HETATM    7  C7  UNL     1      31.669   9.233  48.583  1.00  0.00     0.097 A 
HETATM    8  N2  UNL     1      30.294   9.290  48.260  1.00  0.00    -0.306 N 
HETATM    9  C8  UNL     1      29.740  10.566  47.805  1.00  0.00     0.354 C 
HETATM   10  C9  UNL     1      30.060  11.599  48.851  1.00  0.00     0.225 C 
HETATM   11  O1  UNL     1      29.830  12.896  48.385  1.00  0.00    -0.386 OA
HETATM   12  C10 UNL     1      29.059  12.868  47.245  1.00  0.00     0.198 C 
HETATM   13  C11 UNL     1      29.788  12.187  46.109  1.00  0.00     0.302 C 
HETATM   14  N3  UNL     1      30.315  10.919  46.520  1.00  0.00     0.126 N 
HETATM   15  C12 UNL     1      30.035   9.958  45.478  1.00  0.00     0.369 C 
HETATM   16  C13 UNL     1      30.776   8.763  45.544  1.00  0.00    -0.067 C 
HETATM   17  C14 UNL     1      31.394   7.774  45.619  1.00  0.00    -0.019 C 
HETATM   18  C15 UNL     1      32.141   6.601  45.730  1.00  0.00     0.272 C 
HETATM   19  O2  UNL     1      32.757   6.205  44.708  1.00  0.00    -0.274 OA
HETATM   20  C16 UNL     1      32.205   5.867  46.981  1.00  0.00     0.204 A 
HETATM   21  N4  UNL     1      32.906   4.818  46.989  1.00  0.00    -0.268 N 
HETATM   22  C17 UNL     1      33.658   4.234  45.926  1.00  0.00     0.180 C 
HETATM   23  N5  UNL     1      32.277   5.142  48.194  1.00  0.00    -0.240 N 
HETATM   24  C18 UNL     1      31.876   5.604  49.342  1.00  0.00     0.150 C 
ENDROOT
BRANCH   1  25
HETATM   25  C2  UNL     1      28.002   6.536  48.310  1.00  0.00     0.051 A 
HETATM   26  C1  UNL     1      26.781   6.110  48.583  1.00  0.00     0.156 A 
HETATM   27 CL1  UNL     1      27.918   4.815  48.583  1.00  0.00    -0.178 Cl
ENDBRANCH   1  25
TORSDOF 1
ENDMDL
MODEL 6
REMARK VINA RESULT:      -7.3      1.319      1.528
REMARK  1 active torsions:
REMARK  status: ('A' for Active; 'I' for Inactive)
REMARK    1  A    between atoms: C2_2  and  C3_4 
ROOT
HETATM    1  C3  UNL     1      21.893   3.978  48.550  1.00  0.00     0.179 C 
HETATM    2  F1  UNL     1      21.655   4.624  47.391  1.00  0.00    -0.201 F 
HETATM    3  C4  UNL     1      22.330   4.319  49.736  1.00  0.00     0.172 A 
HETATM    4  N1  UNL     1      22.392   3.229  50.639  1.00  0.00    -0.227 NA
HETATM    5  C5  UNL     1      22.802   3.360  51.855  1.00  0.00     0.078 A 
HETATM    6  C6  UNL     1      23.237   4.626  52.425  1.00  0.00     0.050 A 
HETATM    7  C7  UNL     1      23.194   5.667  51.614  1.00  0.00     0.097 A 
HETATM    8  N2  UNL     1      22.752   5.555  50.275  1.00  0.00    -0.306 N 
HETATM    9  C8  UNL     1      22.797   6.747  49.427  1.00  0.00     0.354 C 
HETATM   10  C9  UNL     1      22.025   7.833  50.128  1.00  0.00     0.225 C 
HETATM   11  O1  UNL     1      22.247   9.084  49.546  1.00  0.00    -0.386 OA
HETATM   12  C10 UNL     1      22.821   8.941  48.303  1.00  0.00     0.198 C 
HETATM   13  C11 UNL     1      24.200   8.328  48.404  1.00  0.00     0.302 C 
HETATM   14  N3  UNL     1      24.177   7.139  49.206  1.00  0.00     0.126 N 
HETATM   15  C12 UNL     1      24.964   6.131  48.534  1.00  0.00     0.369 C 
HETATM   16  C13 UNL     1      25.345   5.033  49.328  1.00  0.00    -0.067 C 
HETATM   17  C14 UNL     1      25.645   4.125  50.001  1.00  0.00    -0.019 C 
HETATM   18  C15 UNL     1      25.989   3.051  50.821  1.00  0.00     0.272 C 
HETATM   19  O2  UNL     1      27.198   2.709  50.855  1.00  0.00    -0.274 OA
HETATM   20  C16 UNL     1      24.987   2.356  51.608  1.00  0.00     0.204 A 
HETATM   21  N4  UNL     1      25.390   1.396  52.322  1.00  0.00    -0.268 N 
HETATM   22  C17 UNL     1      26.713   0.884  52.471  1.00  0.00     0.180 C 
HETATM   23  N5  UNL     1      24.021   1.669  52.381  1.00  0.00    -0.240 N 
HETATM   24  C18 UNL     1      22.813   2.104  52.587  1.00  0.00     0.150 C 
ENDROOT
BRANCH   1  25
HETATM   25  C2  UNL     1      21.641   2.552  48.667  1.00  0.00     0.051 A 
HETATM   26  C1  UNL     1      20.439   2.097  48.361  1.00  0.00     0.156 A 
HETATM   27 CL1  UNL     1      21.490   0.824  48.856  1.00  0.00    -0.178 Cl
ENDBRANCH   1  25
TORSDOF 1
ENDMDL
MODEL 7
REMARK VINA RESULT:      -7.2      3.382      6.535
REMARK  1 active torsions:
REMARK  status: ('A' for Active; 'I' for Inactive)
REMARK    1  A    between atoms: C2_2  and  C3_4 
ROOT
HETATM    1  C3  UNL     1      24.421   3.227  50.308  1.00  0.00     0.179 C 
HETATM    2  F1  UNL     1      24.753   2.078  50.930  1.00  0.00    -0.201 F 
HETATM    3  C4  UNL     1      23.313   3.894  50.109  1.00  0.00     0.172 A 
HETATM    4  N1  UNL     1      23.508   5.090  49.375  1.00  0.00    -0.227 NA
HETATM    5  C5  UNL     1      22.537   5.883  49.072  1.00  0.00     0.078 A 
HETATM    6  C6  UNL     1      21.154   5.641  49.450  1.00  0.00     0.050 A 
HETATM    7  C7  UNL     1      20.930   4.535  50.136  1.00  0.00     0.097 A 
HETATM    8  N2  UNL     1      21.973   3.644  50.480  1.00  0.00    -0.306 N 
HETATM    9  C8  UNL     1      21.626   2.410  51.187  1.00  0.00     0.354 C 
HETATM   10  C9  UNL     1      20.857   2.795  52.423  1.00  0.00     0.225 C 
HETATM   11  O1  UNL     1      20.237   1.690  53.011  1.00  0.00    -0.386 OA
HETATM   12  C10 UNL     1      20.768   0.520  52.517  1.00  0.00     0.198 C 
HETATM   13  C11 UNL     1      20.478   0.368  51.041  1.00  0.00     0.302 C 
HETATM   14  N3  UNL     1      20.838   1.554  50.320  1.00  0.00     0.126 N 
HETATM   15  C12 UNL     1      21.531   1.154  49.117  1.00  0.00     0.369 C 
HETATM   16  C13 UNL     1      21.644   2.147  48.127  1.00  0.00    -0.067 C 
HETATM   17  C14 UNL     1      21.736   2.987  47.319  1.00  0.00    -0.019 C 
HETATM   18  C15 UNL     1      21.835   4.005  46.370  1.00  0.00     0.272 C 
HETATM   19  O2  UNL     1      21.479   3.740  45.194  1.00  0.00    -0.274 OA
HETATM   20  C16 UNL     1      22.330   5.321  46.730  1.00  0.00     0.204 A 
HETATM   21  N4  UNL     1      22.385   6.180  45.807  1.00  0.00    -0.268 N 
HETATM   22  C17 UNL     1      22.026   6.043  44.433  1.00  0.00     0.180 C 
HETATM   23  N5  UNL     1      22.811   6.609  47.067  1.00  0.00    -0.240 N 
HETATM   24  C18 UNL     1      22.967   7.030  48.288  1.00  0.00     0.150 C 
ENDROOT
BRANCH   1  25
HETATM   25  C2  UNL     1      25.438   4.037  49.659  1.00  0.00     0.051 A 
HETATM   26  C1  UNL     1      26.660   3.544  49.548  1.00  0.00     0.156 A 
HETATM   27 CL1  UNL     1      26.548   5.121  48.860  1.00  0.00    -0.178 Cl
ENDBRANCH   1  25
TORSDOF 1
ENDMDL
MODEL 8
REMARK VINA RESULT:      -7.2      6.647      9.005
REMARK  1 active torsions:
REMARK  status: ('A' for Active; 'I' for Inactive)
REMARK    1  A    between atoms: C2_2  and  C3_4 
ROOT
HETATM    1  C3  UNL     1      28.591   7.839  47.161  1.00  0.00     0.179 C 
HETATM    2  F1  UNL     1      27.690   8.471  46.383  1.00  0.00    -0.201 F 
HETATM    3  C4  UNL     1      29.821   8.071  47.542  1.00  0.00     0.172 A 
HETATM    4  N1  UNL     1      30.338   7.066  48.397  1.00  0.00    -0.227 NA
HETATM    5  C5  UNL     1      31.534   7.112  48.875  1.00  0.00     0.078 A 
HETATM    6  C6  UNL     1      32.472   8.188  48.595  1.00  0.00     0.050 A 
HETATM    7  C7  UNL     1      32.028   9.145  47.801  1.00  0.00     0.097 A 
HETATM    8  N2  UNL     1      30.722   9.122  47.258  1.00  0.00    -0.306 N 
HETATM    9  C8  UNL     1      30.335  10.191  46.337  1.00  0.00     0.354 C 
HETATM   10  C9  UNL     1      30.571  11.503  47.037  1.00  0.00     0.225 C 
HETATM   11  O1  UNL     1      30.506  12.581  46.151  1.00  0.00    -0.386 OA
HETATM   12  C10 UNL     1      29.912  12.199  44.970  1.00  0.00     0.198 C 
HETATM   13  C11 UNL     1      30.749  11.170  44.244  1.00  0.00     0.302 C 
HETATM   14  N3  UNL     1      31.117  10.095  45.118  1.00  0.00     0.126 N 
HETATM   15  C12 UNL     1      30.925   8.852  44.405  1.00  0.00     0.369 C 
HETATM   16  C13 UNL     1      31.560   7.730  44.968  1.00  0.00    -0.067 C 
HETATM   17  C14 UNL     1      32.088   6.806  45.454  1.00  0.00    -0.019 C 
HETATM   18  C15 UNL     1      32.723   5.719  46.052  1.00  0.00     0.272 C 
HETATM   19  O2  UNL     1      33.453   4.999  45.324  1.00  0.00    -0.274 OA
HETATM   20  C16 UNL     1      32.550   5.432  47.464  1.00  0.00     0.204 A 
HETATM   21  N4  UNL     1      33.164   4.428  47.920  1.00  0.00    -0.268 N 
HETATM   22  C17 UNL     1      34.020   3.514  47.235  1.00  0.00     0.180 C 
HETATM   23  N5  UNL     1      32.390   5.140  48.840  1.00  0.00    -0.240 N 
HETATM   24  C18 UNL     1      31.859   5.959  49.699  1.00  0.00     0.150 C 
ENDROOT
BRANCH   1  25
HETATM   25  C2  UNL     1      28.256   6.583  47.809  1.00  0.00     0.051 A 
HETATM   26  C1  UNL     1      27.166   6.531  48.556  1.00  0.00     0.156 A 
HETATM   27 CL1  UNL     1      27.984   5.014  48.522  1.00  0.00    -0.178 Cl
ENDBRANCH   1  25
TORSDOF 1
ENDMDL
MODEL 9
REMARK VINA RESULT:      -6.9      2.332      5.839
REMARK  1 active torsions:
REMARK  status: ('A' for Active; 'I' for Inactive)
REMARK    1  A    between atoms: C2_2  and  C3_4 
ROOT
HETATM    1  C3  UNL     1      22.732   2.739  48.772  1.00  0.00     0.179 C 
HETATM    2  F1  UNL     1      22.604   1.520  49.335  1.00  0.00    -0.201 F 
HETATM    3  C4  UNL     1      23.488   3.787  48.976  1.00  0.00     0.172 A 
HETATM    4  N1  UNL     1      23.224   4.847  48.074  1.00  0.00    -0.227 NA
HETATM    5  C5  UNL     1      23.862   5.967  48.116  1.00  0.00     0.078 A 
HETATM    6  C6  UNL     1      24.910   6.260  49.081  1.00  0.00     0.050 A 
HETATM    7  C7  UNL     1      25.185   5.296  49.941  1.00  0.00     0.097 A 
HETATM    8  N2  UNL     1      24.502   4.058  49.922  1.00  0.00    -0.306 N 
HETATM    9  C8  UNL     1      24.827   3.070  50.952  1.00  0.00     0.354 C 
HETATM   10  C9  UNL     1      26.312   2.832  50.901  1.00  0.00     0.225 C 
HETATM   11  O1  UNL     1      26.763   2.129  52.021  1.00  0.00    -0.386 OA
HETATM   12  C10 UNL     1      25.704   1.551  52.685  1.00  0.00     0.198 C 
HETATM   13  C11 UNL     1      24.774   2.601  53.251  1.00  0.00     0.302 C 
HETATM   14  N3  UNL     1      24.416   3.566  52.253  1.00  0.00     0.126 N 
HETATM   15  C12 UNL     1      22.995   3.810  52.356  1.00  0.00     0.369 C 
HETATM   16  C13 UNL     1      22.534   4.970  51.707  1.00  0.00    -0.067 C 
HETATM   17  C14 UNL     1      22.167   5.933  51.155  1.00  0.00    -0.019 C 
HETATM   18  C15 UNL     1      21.752   7.085  50.487  1.00  0.00     0.272 C 
HETATM   19  O2  UNL     1      21.043   7.904  51.126  1.00  0.00    -0.274 OA
HETATM   20  C16 UNL     1      22.128   7.330  49.107  1.00  0.00     0.204 A 
HETATM   21  N4  UNL     1      21.708   8.399  48.584  1.00  0.00    -0.268 N 
HETATM   22  C17 UNL     1      20.899   9.422  49.163  1.00  0.00     0.180 C 
HETATM   23  N5  UNL     1      22.487   7.581  47.761  1.00  0.00    -0.240 N 
HETATM   24  C18 UNL     1      23.402   6.918  47.117  1.00  0.00     0.150 C 
ENDROOT
BRANCH   1  25
HETATM   25  C2  UNL     1      21.898   3.123  47.646  1.00  0.00     0.051 A 
HETATM   26  C1  UNL     1      20.623   2.773  47.657  1.00  0.00     0.156 A 
HETATM   27 CL1  UNL     1      21.026   3.653  46.230  1.00  0.00    -0.178 Cl
ENDBRANCH   1  25
TORSDOF 1
ENDMDL
