MODEL 1
REMARK VINA RESULT:      -9.0      0.000      0.000
REMARK  6 active torsions:
REMARK  status: ('A' for Active; 'I' for Inactive)
REMARK    1  A    between atoms: C2_2  and  O1_3 
REMARK    2  A    between atoms: O1_3  and  C3_4 
REMARK    3  A    between atoms: N2_10  and  S1_11 
REMARK    4  A    between atoms: S1_11  and  C8_14 
REMARK    5  A    between atoms: C19_26  and  C20_27 
REMARK    6  A    between atoms: C20_27  and  N4_28 
ROOT
HETATM    1  C3  UNL     1      19.774   0.743  51.134  1.00  0.00     0.066 C 
HETATM    2  C4  UNL     1      20.319   0.926  52.360  1.00  0.00     0.066 C 
HETATM    3  C5  UNL     1      21.536   1.608  52.444  1.00  0.00     0.074 A 
HETATM    4  N1  UNL     1      21.888   0.014  52.577  1.00  0.00    -0.204 NA
HETATM    5  C6  UNL     1      23.170   0.349  52.695  1.00  0.00     0.013 A 
HETATM    6  C7  UNL     1      24.092   0.615  52.780  1.00  0.00     0.117 A 
HETATM    7  N2  UNL     1      25.198   0.961  52.880  1.00  0.00    -0.249 N 
HETATM    8  C14 UNL     1      24.197   2.243  52.691  1.00  0.00     0.195 A 
HETATM    9  C15 UNL     1      22.761   2.571  52.515  1.00  0.00    -0.015 A 
HETATM   10  C16 UNL     1      22.638   4.074  52.354  1.00  0.00     0.090 C 
HETATM   11  C17 UNL     1      22.958   4.498  50.967  1.00  0.00     0.040 C 
HETATM   12  C18 UNL     1      23.595   5.826  51.018  1.00  0.00     0.096 C 
HETATM   13  N3  UNL     1      24.095   6.905  51.072  1.00  0.00    -0.192 NA
HETATM   14  C19 UNL     1      22.790   4.164  49.668  1.00  0.00     0.054 C 
HETATM   15  C23 UNL     1      21.890   3.093  49.177  1.00  0.00     0.251 C 
HETATM   16  O4  UNL     1      21.567   2.587  48.036  1.00  0.00    -0.268 OA
HETATM   17  N5  UNL     1      20.950   2.098  49.490  1.00  0.00    -0.351 N 
HETATM   18  C24 UNL     1      19.988   1.067  49.708  1.00  0.00     0.187 C 
HETATM   19  H23 UNL     1      21.077   2.528  50.413  1.00  0.00     0.163 HD
ENDROOT
BRANCH  14  20
HETATM   20  C20 UNL     1      23.206   4.708  48.360  1.00  0.00     0.317 C 
BRANCH  20  21
HETATM   21  N4  UNL     1      22.573   5.927  47.961  1.00  0.00     0.084 N 
HETATM   22  C21 UNL     1      23.650   6.835  47.512  1.00  0.00     0.309 C 
HETATM   23  C22 UNL     1      21.677   5.747  46.840  1.00  0.00     0.309 C 
ENDBRANCH  20  21
ENDBRANCH  14  20
BRANCH   7  24
HETATM   24  S1  UNL     1      26.764   1.453  53.022  1.00  0.00     0.266 S 
HETATM   25  O2  UNL     1      26.944   2.290  54.291  1.00  0.00    -0.200 OA
HETATM   26  O3  UNL     1      27.157   2.357  51.878  1.00  0.00    -0.200 OA
BRANCH  24  27
HETATM   27  C8  UNL     1      27.887   0.111  53.175  1.00  0.00     0.080 A 
HETATM   28  C9  UNL     1      27.538  -1.194  52.882  1.00  0.00     0.025 A 
HETATM   29  C10 UNL     1      28.440  -2.235  53.002  1.00  0.00     0.002 A 
HETATM   30  C11 UNL     1      29.719  -1.943  53.425  1.00  0.00     0.000 A 
HETATM   31  C12 UNL     1      30.125  -0.661  53.732  1.00  0.00     0.002 A 
HETATM   32  C13 UNL     1      29.189   0.352  53.600  1.00  0.00     0.025 A 
ENDBRANCH  24  27
ENDBRANCH   7  24
BRANCH   1  33
HETATM   33  O1  UNL     1      18.610   0.034  51.292  1.00  0.00    -0.354 OA
BRANCH  33  34
HETATM   34  C2  UNL     1      17.709   0.050  52.344  1.00  0.00     0.171 C 
HETATM   35  C1  UNL     1      17.076  -1.341  52.493  1.00  0.00     0.034 C 
ENDBRANCH  33  34
ENDBRANCH   1  33
TORSDOF 6
ENDMDL
MODEL 2
REMARK VINA RESULT:      -8.0      2.761      7.349
REMARK  6 active torsions:
REMARK  status: ('A' for Active; 'I' for Inactive)
REMARK    1  A    between atoms: C2_2  and  O1_3 
REMARK    2  A    between atoms: O1_3  and  C3_4 
REMARK    3  A    between atoms: N2_10  and  S1_11 
REMARK    4  A    between atoms: S1_11  and  C8_14 
REMARK    5  A    between atoms: C19_26  and  C20_27 
REMARK    6  A    between atoms: C20_27  and  N4_28 
ROOT
HETATM    1  C3  UNL     1      24.352   0.798  53.060  1.00  0.00     0.066 C 
HETATM    2  C4  UNL     1      23.258   0.081  52.707  1.00  0.00     0.066 C 
HETATM    3  C5  UNL     1      22.333   0.675  51.844  1.00  0.00     0.074 A 
HETATM    4  N1  UNL     1      21.706   0.801  53.351  1.00  0.00    -0.204 NA
HETATM    5  C6  UNL     1      20.651   1.411  52.817  1.00  0.00     0.013 A 
HETATM    6  C7  UNL     1      19.897   1.849  52.408  1.00  0.00     0.117 A 
HETATM    7  N2  UNL     1      18.997   2.374  51.890  1.00  0.00    -0.249 N 
HETATM    8  C14 UNL     1      20.132   1.940  50.793  1.00  0.00     0.195 A 
HETATM    9  C15 UNL     1      21.456   1.276  50.703  1.00  0.00    -0.015 A 
HETATM   10  C16 UNL     1      21.897   1.303  49.252  1.00  0.00     0.090 C 
HETATM   11  C17 UNL     1      22.476   2.621  48.886  1.00  0.00     0.040 C 
HETATM   12  C18 UNL     1      22.149   2.902  47.476  1.00  0.00     0.096 C 
HETATM   13  N3  UNL     1      21.892   3.109  46.333  1.00  0.00    -0.192 NA
HETATM   14  C19 UNL     1      23.277   3.613  49.336  1.00  0.00     0.054 C 
HETATM   15  C23 UNL     1      24.104   3.544  50.564  1.00  0.00     0.251 C 
HETATM   16  O4  UNL     1      24.915   4.322  51.195  1.00  0.00    -0.268 OA
HETATM   17  N5  UNL     1      24.530   2.784  51.665  1.00  0.00    -0.351 N 
HETATM   18  C24 UNL     1      25.022   2.092  52.812  1.00  0.00     0.187 C 
HETATM   19  H23 UNL     1      23.988   2.079  51.155  1.00  0.00     0.163 HD
ENDROOT
BRANCH  14  20
HETATM   20  C20 UNL     1      23.754   4.916  48.832  1.00  0.00     0.317 C 
BRANCH  20  21
HETATM   21  N4  UNL     1      22.777   5.960  48.776  1.00  0.00     0.084 N 
HETATM   22  C21 UNL     1      23.242   7.023  49.692  1.00  0.00     0.309 C 
HETATM   23  C22 UNL     1      22.671   6.552  47.461  1.00  0.00     0.309 C 
ENDBRANCH  20  21
ENDBRANCH  14  20
BRANCH   7  24
HETATM   24  S1  UNL     1      17.724   3.119  51.157  1.00  0.00     0.266 S 
HETATM   25  O2  UNL     1      17.083   4.133  52.109  1.00  0.00    -0.200 OA
HETATM   26  O3  UNL     1      16.634   2.129  50.821  1.00  0.00    -0.200 OA
BRANCH  24  27
HETATM   27  C8  UNL     1      18.199   4.035  49.736  1.00  0.00     0.080 A 
HETATM   28  C9  UNL     1      18.806   5.275  49.813  1.00  0.00     0.025 A 
HETATM   29  C10 UNL     1      19.180   5.975  48.681  1.00  0.00     0.002 A 
HETATM   30  C11 UNL     1      18.932   5.406  47.451  1.00  0.00     0.000 A 
HETATM   31  C12 UNL     1      18.329   4.173  47.311  1.00  0.00     0.002 A 
HETATM   32  C13 UNL     1      17.969   3.506  48.471  1.00  0.00     0.025 A 
ENDBRANCH  24  27
ENDBRANCH   7  24
BRANCH   1  33
HETATM   33  O1  UNL     1      25.094   0.035  53.925  1.00  0.00    -0.354 OA
BRANCH  33  34
HETATM   34  C2  UNL     1      26.450  -0.250  53.901  1.00  0.00     0.171 C 
HETATM   35  C1  UNL     1      26.742  -1.235  52.759  1.00  0.00     0.034 C 
ENDBRANCH  33  34
ENDBRANCH   1  33
TORSDOF 6
ENDMDL
MODEL 3
REMARK VINA RESULT:      -7.9      3.004      7.877
REMARK  6 active torsions:
REMARK  status: ('A' for Active; 'I' for Inactive)
REMARK    1  A    between atoms: C2_2  and  O1_3 
REMARK    2  A    between atoms: O1_3  and  C3_4 
REMARK    3  A    between atoms: N2_10  and  S1_11 
REMARK    4  A    between atoms: S1_11  and  C8_14 
REMARK    5  A    between atoms: C19_26  and  C20_27 
REMARK    6  A    between atoms: C20_27  and  N4_28 
ROOT
HETATM    1  C3  UNL     1      24.257   0.891  53.004  1.00  0.00     0.066 C 
HETATM    2  C4  UNL     1      23.169   0.175  52.633  1.00  0.00     0.066 C 
HETATM    3  C5  UNL     1      22.263   0.766  51.748  1.00  0.00     0.074 A 
HETATM    4  N1  UNL     1      21.606   0.902  53.242  1.00  0.00    -0.204 NA
HETATM    5  C6  UNL     1      20.563   1.512  52.683  1.00  0.00     0.013 A 
HETATM    6  C7  UNL     1      19.819   1.949  52.257  1.00  0.00     0.117 A 
HETATM    7  N2  UNL     1      18.931   2.474  51.718  1.00  0.00    -0.249 N 
HETATM    8  C14 UNL     1      20.087   2.031  50.647  1.00  0.00     0.195 A 
HETATM    9  C15 UNL     1      21.411   1.363  50.586  1.00  0.00    -0.015 A 
HETATM   10  C16 UNL     1      21.881   1.381  49.144  1.00  0.00     0.090 C 
HETATM   11  C17 UNL     1      22.470   2.696  48.783  1.00  0.00     0.040 C 
HETATM   12  C18 UNL     1      22.173   2.969  47.365  1.00  0.00     0.096 C 
HETATM   13  N3  UNL     1      21.939   3.170  46.216  1.00  0.00    -0.192 NA
HETATM   14  C19 UNL     1      23.264   3.688  49.243  1.00  0.00     0.054 C 
HETATM   15  C23 UNL     1      24.067   3.624  50.488  1.00  0.00     0.251 C 
HETATM   16  O4  UNL     1      24.867   4.403  51.132  1.00  0.00    -0.268 OA
HETATM   17  N5  UNL     1      24.468   2.869  51.602  1.00  0.00    -0.351 N 
HETATM   18  C24 UNL     1      24.935   2.182  52.763  1.00  0.00     0.187 C 
HETATM   19  H23 UNL     1      23.934   2.163  51.085  1.00  0.00     0.163 HD
ENDROOT
BRANCH  14  20
HETATM   20  C20 UNL     1      23.755   4.987  48.742  1.00  0.00     0.317 C 
BRANCH  20  21
HETATM   21  N4  UNL     1      22.815   6.065  48.777  1.00  0.00     0.084 N 
HETATM   22  C21 UNL     1      23.448   7.153  49.553  1.00  0.00     0.309 C 
HETATM   23  C22 UNL     1      22.529   6.595  47.463  1.00  0.00     0.309 C 
ENDBRANCH  20  21
ENDBRANCH  14  20
BRANCH   7  24
HETATM   24  S1  UNL     1      17.675   3.218  50.955  1.00  0.00     0.266 S 
HETATM   25  O2  UNL     1      17.396   2.541  49.611  1.00  0.00    -0.200 OA
HETATM   26  O3  UNL     1      18.010   4.654  50.627  1.00  0.00    -0.200 OA
BRANCH  24  27
HETATM   27  C8  UNL     1      16.173   3.115  51.860  1.00  0.00     0.080 A 
HETATM   28  C9  UNL     1      15.635   4.191  52.542  1.00  0.00     0.025 A 
HETATM   29  C10 UNL     1      14.446   4.090  53.241  1.00  0.00     0.002 A 
HETATM   30  C11 UNL     1      13.794   2.876  53.246  1.00  0.00     0.000 A 
HETATM   31  C12 UNL     1      14.282   1.769  52.584  1.00  0.00     0.002 A 
HETATM   32  C13 UNL     1      15.477   1.913  51.897  1.00  0.00     0.025 A 
ENDBRANCH  24  27
ENDBRANCH   7  24
BRANCH   1  33
HETATM   33  O1  UNL     1      24.980   0.132  53.888  1.00  0.00    -0.354 OA
BRANCH  33  34
HETATM   34  C2  UNL     1      26.325  -0.199  53.865  1.00  0.00     0.171 C 
HETATM   35  C1  UNL     1      26.596  -1.144  52.685  1.00  0.00     0.034 C 
ENDBRANCH  33  34
ENDBRANCH   1  33
TORSDOF 6
ENDMDL
MODEL 4
REMARK VINA RESULT:      -7.9      2.955      7.735
REMARK  6 active torsions:
REMARK  status: ('A' for Active; 'I' for Inactive)
REMARK    1  A    between atoms: C2_2  and  O1_3 
REMARK    2  A    between atoms: O1_3  and  C3_4 
REMARK    3  A    between atoms: N2_10  and  S1_11 
REMARK    4  A    between atoms: S1_11  and  C8_14 
REMARK    5  A    between atoms: C19_26  and  C20_27 
REMARK    6  A    between atoms: C20_27  and  N4_28 
ROOT
HETATM    1  C3  UNL     1      24.371   1.744  53.047  1.00  0.00     0.066 C 
HETATM    2  C4  UNL     1      23.826   0.598  52.572  1.00  0.00     0.066 C 
HETATM    3  C5  UNL     1      22.681   0.696  51.777  1.00  0.00     0.074 A 
HETATM    4  N1  UNL     1      22.170   0.263  53.272  1.00  0.00    -0.204 NA
HETATM    5  C6  UNL     1      20.926   0.261  52.802  1.00  0.00     0.013 A 
HETATM    6  C7  UNL     1      20.034   0.264  52.439  1.00  0.00     0.117 A 
HETATM    7  N2  UNL     1      18.966   0.275  51.977  1.00  0.00    -0.249 N 
HETATM    8  C14 UNL     1      20.092   0.677  50.859  1.00  0.00     0.195 A 
HETATM    9  C15 UNL     1      21.556   0.862  50.709  1.00  0.00    -0.015 A 
HETATM   10  C16 UNL     1      21.830   1.313  49.287  1.00  0.00     0.090 C 
HETATM   11  C17 UNL     1      21.578   2.768  49.122  1.00  0.00     0.040 C 
HETATM   12  C18 UNL     1      21.074   3.003  47.756  1.00  0.00     0.096 C 
HETATM   13  N3  UNL     1      20.682   3.182  46.647  1.00  0.00    -0.192 NA
HETATM   14  C19 UNL     1      21.734   3.967  49.724  1.00  0.00     0.054 C 
HETATM   15  C23 UNL     1      22.532   4.203  50.950  1.00  0.00     0.251 C 
HETATM   16  O4  UNL     1      22.823   5.209  51.703  1.00  0.00    -0.268 OA
HETATM   17  N5  UNL     1      23.363   3.665  51.946  1.00  0.00    -0.351 N 
HETATM   18  C24 UNL     1      24.215   3.212  52.998  1.00  0.00     0.187 C 
HETATM   19  H23 UNL     1      23.264   2.851  51.330  1.00  0.00     0.163 HD
ENDROOT
BRANCH  14  20
HETATM   20  C20 UNL     1      21.397   5.372  49.417  1.00  0.00     0.317 C 
BRANCH  20  21
HETATM   21  N4  UNL     1      20.217   5.882  50.045  1.00  0.00     0.084 N 
HETATM   22  C21 UNL     1      20.280   7.354  49.930  1.00  0.00     0.309 C 
HETATM   23  C22 UNL     1      19.005   5.458  49.379  1.00  0.00     0.309 C 
ENDBRANCH  20  21
ENDBRANCH  14  20
BRANCH   7  24
HETATM   24  S1  UNL     1      17.454   0.291  51.323  1.00  0.00     0.266 S 
HETATM   25  O2  UNL     1      16.632  -0.885  51.859  1.00  0.00    -0.200 OA
HETATM   26  O3  UNL     1      17.506   0.103  49.825  1.00  0.00    -0.200 OA
BRANCH  24  27
HETATM   27  C8  UNL     1      16.546   1.735  51.742  1.00  0.00     0.080 A 
HETATM   28  C9  UNL     1      15.292   1.689  52.321  1.00  0.00     0.025 A 
HETATM   29  C10 UNL     1      14.599   2.839  52.651  1.00  0.00     0.002 A 
HETATM   30  C11 UNL     1      15.191   4.055  52.389  1.00  0.00     0.000 A 
HETATM   31  C12 UNL     1      16.440   4.164  51.813  1.00  0.00     0.002 A 
HETATM   32  C13 UNL     1      17.099   2.987  51.497  1.00  0.00     0.025 A 
ENDBRANCH  24  27
ENDBRANCH   7  24
BRANCH   1  33
HETATM   33  O1  UNL     1      25.456   1.406  53.817  1.00  0.00    -0.354 OA
BRANCH  33  34
HETATM   34  C2  UNL     1      26.085   0.180  53.954  1.00  0.00     0.171 C 
HETATM   35  C1  UNL     1      27.436   0.216  53.224  1.00  0.00     0.034 C 
ENDBRANCH  33  34
ENDBRANCH   1  33
TORSDOF 6
ENDMDL
MODEL 5
REMARK VINA RESULT:      -7.8      3.619      5.302
REMARK  6 active torsions:
REMARK  status: ('A' for Active; 'I' for Inactive)
REMARK    1  A    between atoms: C2_2  and  O1_3 
REMARK    2  A    between atoms: O1_3  and  C3_4 
REMARK    3  A    between atoms: N2_10  and  S1_11 
REMARK    4  A    between atoms: S1_11  and  C8_14 
REMARK    5  A    between atoms: C19_26  and  C20_27 
REMARK    6  A    between atoms: C20_27  and  N4_28 
ROOT
HETATM    1  C3  UNL     1      22.298   0.900  51.776  1.00  0.00     0.066 C 
HETATM    2  C4  UNL     1      22.956   1.887  52.429  1.00  0.00     0.066 C 
HETATM    3  C5  UNL     1      23.052   3.136  51.808  1.00  0.00     0.074 A 
HETATM    4  N1  UNL     1      24.494   2.392  51.578  1.00  0.00    -0.204 NA
HETATM    5  C6  UNL     1      24.900   3.474  50.919  1.00  0.00     0.013 A 
HETATM    6  C7  UNL     1      25.172   4.268  50.446  1.00  0.00     0.117 A 
HETATM    7  N2  UNL     1      25.478   5.238  49.881  1.00  0.00    -0.249 N 
HETATM    8  C14 UNL     1      23.942   5.344  50.437  1.00  0.00     0.195 A 
HETATM    9  C15 UNL     1      22.932   4.564  51.194  1.00  0.00    -0.015 A 
HETATM   10  C16 UNL     1      21.657   5.383  51.256  1.00  0.00     0.090 C 
HETATM   11  C17 UNL     1      20.877   5.268  49.997  1.00  0.00     0.040 C 
HETATM   12  C18 UNL     1      20.190   6.549  49.752  1.00  0.00     0.096 C 
HETATM   13  N3  UNL     1      19.629   7.583  49.574  1.00  0.00    -0.192 NA
HETATM   14  C19 UNL     1      20.482   4.392  49.046  1.00  0.00     0.054 C 
HETATM   15  C23 UNL     1      20.655   2.922  49.122  1.00  0.00     0.251 C 
HETATM   16  O4  UNL     1      20.387   1.904  48.377  1.00  0.00    -0.268 OA
HETATM   17  N5  UNL     1      21.104   1.818  49.865  1.00  0.00    -0.351 N 
HETATM   18  C24 UNL     1      21.528   0.636  50.542  1.00  0.00     0.187 C 
HETATM   19  H23 UNL     1      21.241   2.568  50.551  1.00  0.00     0.163 HD
ENDROOT
BRANCH  14  20
HETATM   20  C20 UNL     1      19.692   4.448  47.800  1.00  0.00     0.317 C 
BRANCH  20  21
HETATM   21  N4  UNL     1      20.341   5.047  46.675  1.00  0.00     0.084 N 
HETATM   22  C21 UNL     1      20.420   4.006  45.629  1.00  0.00     0.309 C 
HETATM   23  C22 UNL     1      19.586   6.148  46.119  1.00  0.00     0.309 C 
ENDBRANCH  20  21
ENDBRANCH  14  20
BRANCH   7  24
HETATM   24  S1  UNL     1      25.911   6.611  49.080  1.00  0.00     0.266 S 
HETATM   25  O2  UNL     1      25.880   7.811  50.031  1.00  0.00    -0.200 OA
HETATM   26  O3  UNL     1      24.926   6.935  47.982  1.00  0.00    -0.200 OA
BRANCH  24  27
HETATM   27  C8  UNL     1      27.550   6.545  48.452  1.00  0.00     0.080 A 
HETATM   28  C9  UNL     1      28.185   7.641  47.899  1.00  0.00     0.025 A 
HETATM   29  C10 UNL     1      29.479   7.569  47.418  1.00  0.00     0.002 A 
HETATM   30  C11 UNL     1      30.139   6.362  47.503  1.00  0.00     0.000 A 
HETATM   31  C12 UNL     1      29.558   5.234  48.044  1.00  0.00     0.002 A 
HETATM   32  C13 UNL     1      28.258   5.350  48.512  1.00  0.00     0.025 A 
ENDBRANCH  24  27
ENDBRANCH   7  24
BRANCH   1  33
HETATM   33  O1  UNL     1      22.355  -0.230  52.552  1.00  0.00    -0.354 OA
BRANCH  33  34
HETATM   34  C2  UNL     1      23.166  -0.504  53.641  1.00  0.00     0.171 C 
HETATM   35  C1  UNL     1      22.308  -1.061  54.787  1.00  0.00     0.034 C 
ENDBRANCH  33  34
ENDBRANCH   1  33
TORSDOF 6
ENDMDL
MODEL 6
REMARK VINA RESULT:      -7.8      7.110     10.649
REMARK  6 active torsions:
REMARK  status: ('A' for Active; 'I' for Inactive)
REMARK    1  A    between atoms: C2_2  and  O1_3 
REMARK    2  A    between atoms: O1_3  and  C3_4 
REMARK    3  A    between atoms: N2_10  and  S1_11 
REMARK    4  A    between atoms: S1_11  and  C8_14 
REMARK    5  A    between atoms: C19_26  and  C20_27 
REMARK    6  A    between atoms: C20_27  and  N4_28 
ROOT
HETATM    1  C3  UNL     1      25.881   5.587  48.828  1.00  0.00     0.066 C 
HETATM    2  C4  UNL     1      25.309   6.629  48.178  1.00  0.00     0.066 C 
HETATM    3  C5  UNL     1      26.142   7.652  47.717  1.00  0.00     0.074 A 
HETATM    4  N1  UNL     1      25.456   8.201  49.099  1.00  0.00    -0.204 NA
HETATM    5  C6  UNL     1      26.130   9.336  48.935  1.00  0.00     0.013 A 
HETATM    6  C7  UNL     1      26.626  10.149  48.794  1.00  0.00     0.117 A 
HETATM    7  N2  UNL     1      27.235  11.122  48.603  1.00  0.00    -0.249 N 
HETATM    8  C14 UNL     1      27.510  10.017  47.427  1.00  0.00     0.195 A 
HETATM    9  C15 UNL     1      27.121   8.645  47.017  1.00  0.00    -0.015 A 
HETATM   10  C16 UNL     1      27.892   8.293  45.760  1.00  0.00     0.090 C 
HETATM   11  C17 UNL     1      29.277   7.859  46.078  1.00  0.00     0.040 C 
HETATM   12  C18 UNL     1      30.166   8.291  44.983  1.00  0.00     0.096 C 
HETATM   13  N3  UNL     1      30.870   8.632  44.087  1.00  0.00    -0.192 NA
HETATM   14  C19 UNL     1      30.008   7.129  46.948  1.00  0.00     0.054 C 
HETATM   15  C23 UNL     1      29.445   6.229  47.983  1.00  0.00     0.251 C 
HETATM   16  O4  UNL     1      29.904   5.458  48.909  1.00  0.00    -0.268 OA
HETATM   17  N5  UNL     1      28.299   5.672  48.574  1.00  0.00    -0.351 N 
HETATM   18  C24 UNL     1      27.197   5.054  49.237  1.00  0.00     0.187 C 
HETATM   19  H23 UNL     1      27.874   6.177  47.788  1.00  0.00     0.163 HD
ENDROOT
BRANCH  14  20
HETATM   20  C20 UNL     1      31.436   6.803  47.139  1.00  0.00     0.317 C 
BRANCH  20  21
HETATM   21  N4  UNL     1      32.263   7.871  47.609  1.00  0.00     0.084 N 
HETATM   22  C21 UNL     1      32.828   7.431  48.902  1.00  0.00     0.309 C 
HETATM   23  C22 UNL     1      33.379   8.139  46.730  1.00  0.00     0.309 C 
ENDBRANCH  20  21
ENDBRANCH  14  20
BRANCH   7  24
HETATM   24  S1  UNL     1      28.099  12.499  48.331  1.00  0.00     0.266 S 
HETATM   25  O2  UNL     1      28.391  13.210  49.655  1.00  0.00    -0.200 OA
HETATM   26  O3  UNL     1      27.308  13.483  47.504  1.00  0.00    -0.200 OA
BRANCH  24  27
HETATM   27  C8  UNL     1      29.666  12.186  47.604  1.00  0.00     0.080 A 
HETATM   28  C9  UNL     1      30.741  11.695  48.323  1.00  0.00     0.025 A 
HETATM   29  C10 UNL     1      31.964  11.447  47.728  1.00  0.00     0.002 A 
HETATM   30  C11 UNL     1      32.097  11.702  46.380  1.00  0.00     0.000 A 
HETATM   31  C12 UNL     1      31.062  12.192  45.612  1.00  0.00     0.002 A 
HETATM   32  C13 UNL     1      29.853  12.427  46.248  1.00  0.00     0.025 A 
ENDBRANCH  24  27
ENDBRANCH   7  24
BRANCH   1  33
HETATM   33  O1  UNL     1      24.880   4.729  49.209  1.00  0.00    -0.354 OA
BRANCH  33  34
HETATM   34  C2  UNL     1      23.525   4.782  48.926  1.00  0.00     0.171 C 
HETATM   35  C1  UNL     1      23.015   3.367  48.614  1.00  0.00     0.034 C 
ENDBRANCH  33  34
ENDBRANCH   1  33
TORSDOF 6
ENDMDL
MODEL 7
REMARK VINA RESULT:      -7.8      3.703      6.879
REMARK  6 active torsions:
REMARK  status: ('A' for Active; 'I' for Inactive)
REMARK    1  A    between atoms: C2_2  and  O1_3 
REMARK    2  A    between atoms: O1_3  and  C3_4 
REMARK    3  A    between atoms: N2_10  and  S1_11 
REMARK    4  A    between atoms: S1_11  and  C8_14 
REMARK    5  A    between atoms: C19_26  and  C20_27 
REMARK    6  A    between atoms: C20_27  and  N4_28 
ROOT
HETATM    1  C3  UNL     1      26.012   6.226  48.906  1.00  0.00     0.066 C 
HETATM    2  C4  UNL     1      25.982   4.887  49.106  1.00  0.00     0.066 C 
HETATM    3  C5  UNL     1      24.734   4.261  49.184  1.00  0.00     0.074 A 
HETATM    4  N1  UNL     1      25.263   4.432  50.725  1.00  0.00    -0.204 NA
HETATM    5  C6  UNL     1      24.142   3.842  51.131  1.00  0.00     0.013 A 
HETATM    6  C7  UNL     1      23.324   3.412  51.402  1.00  0.00     0.117 A 
HETATM    7  N2  UNL     1      22.330   2.890  51.705  1.00  0.00    -0.249 N 
HETATM    8  C14 UNL     1      22.437   3.050  50.079  1.00  0.00     0.195 A 
HETATM    9  C15 UNL     1      23.343   3.574  49.028  1.00  0.00    -0.015 A 
HETATM   10  C16 UNL     1      22.666   3.381  47.684  1.00  0.00     0.090 C 
HETATM   11  C17 UNL     1      21.664   4.447  47.424  1.00  0.00     0.040 C 
HETATM   12  C18 UNL     1      20.554   3.867  46.646  1.00  0.00     0.096 C 
HETATM   13  N3  UNL     1      19.673   3.391  46.004  1.00  0.00    -0.192 NA
HETATM   14  C19 UNL     1      21.439   5.774  47.550  1.00  0.00     0.054 C 
HETATM   15  C23 UNL     1      22.460   6.773  47.948  1.00  0.00     0.251 C 
HETATM   16  O4  UNL     1      22.502   8.046  48.144  1.00  0.00    -0.268 OA
HETATM   17  N5  UNL     1      23.794   7.027  48.304  1.00  0.00    -0.351 N 
HETATM   18  C24 UNL     1      25.126   7.386  48.673  1.00  0.00     0.187 C 
HETATM   19  H23 UNL     1      23.857   6.034  48.056  1.00  0.00     0.163 HD
ENDROOT
BRANCH  14  20
HETATM   20  C20 UNL     1      20.337   6.707  47.244  1.00  0.00     0.317 C 
BRANCH  20  21
HETATM   21  N4  UNL     1      19.317   6.817  48.241  1.00  0.00     0.084 N 
HETATM   22  C21 UNL     1      19.048   8.260  48.415  1.00  0.00     0.309 C 
HETATM   23  C22 UNL     1      18.074   6.202  47.833  1.00  0.00     0.309 C 
ENDBRANCH  20  21
ENDBRANCH  14  20
BRANCH   7  24
HETATM   24  S1  UNL     1      20.920   2.150  52.132  1.00  0.00     0.266 S 
HETATM   25  O2  UNL     1      20.136   1.742  50.882  1.00  0.00    -0.200 OA
HETATM   26  O3  UNL     1      20.018   3.095  52.890  1.00  0.00    -0.200 OA
BRANCH  24  27
HETATM   27  C8  UNL     1      21.178   0.668  53.037  1.00  0.00     0.080 A 
HETATM   28  C9  UNL     1      20.152  -0.203  53.356  1.00  0.00     0.025 A 
HETATM   29  C10 UNL     1      20.379  -1.369  54.062  1.00  0.00     0.002 A 
HETATM   30  C11 UNL     1      21.670  -1.656  54.450  1.00  0.00     0.000 A 
HETATM   31  C12 UNL     1      22.733  -0.827  54.162  1.00  0.00     0.002 A 
HETATM   32  C13 UNL     1      22.462   0.333  53.453  1.00  0.00     0.025 A 
ENDBRANCH  24  27
ENDBRANCH   7  24
BRANCH   1  33
HETATM   33  O1  UNL     1      27.325   6.621  48.893  1.00  0.00    -0.354 OA
BRANCH  33  34
HETATM   34  C2  UNL     1      28.182   6.781  47.817  1.00  0.00     0.171 C 
HETATM   35  C1  UNL     1      29.417   5.888  48.011  1.00  0.00     0.034 C 
ENDBRANCH  33  34
ENDBRANCH   1  33
TORSDOF 6
ENDMDL
MODEL 8
REMARK VINA RESULT:      -7.6      2.587      7.937
REMARK  6 active torsions:
REMARK  status: ('A' for Active; 'I' for Inactive)
REMARK    1  A    between atoms: C2_2  and  O1_3 
REMARK    2  A    between atoms: O1_3  and  C3_4 
REMARK    3  A    between atoms: N2_10  and  S1_11 
REMARK    4  A    between atoms: S1_11  and  C8_14 
REMARK    5  A    between atoms: C19_26  and  C20_27 
REMARK    6  A    between atoms: C20_27  and  N4_28 
ROOT
HETATM    1  C3  UNL     1      24.921   1.498  53.339  1.00  0.00     0.066 C 
HETATM    2  C4  UNL     1      24.844   2.794  52.955  1.00  0.00     0.066 C 
HETATM    3  C5  UNL     1      23.792   3.170  52.115  1.00  0.00     0.074 A 
HETATM    4  N1  UNL     1      25.114   3.016  51.161  1.00  0.00    -0.204 NA
HETATM    5  C6  UNL     1      24.356   3.362  50.124  1.00  0.00     0.013 A 
HETATM    6  C7  UNL     1      23.787   3.615  49.389  1.00  0.00     0.117 A 
HETATM    7  N2  UNL     1      23.082   3.924  48.517  1.00  0.00    -0.249 N 
HETATM    8  C14 UNL     1      22.271   3.878  49.939  1.00  0.00     0.195 A 
HETATM    9  C15 UNL     1      22.483   3.592  51.379  1.00  0.00    -0.015 A 
HETATM   10  C16 UNL     1      21.148   3.729  52.086  1.00  0.00     0.090 C 
HETATM   11  C17 UNL     1      20.316   2.511  51.914  1.00  0.00     0.040 C 
HETATM   12  C18 UNL     1      18.899   2.915  51.862  1.00  0.00     0.096 C 
HETATM   13  N3  UNL     1      17.758   3.252  51.836  1.00  0.00    -0.192 NA
HETATM   14  C19 UNL     1      20.368   1.160  51.889  1.00  0.00     0.054 C 
HETATM   15  C23 UNL     1      21.549   0.350  52.269  1.00  0.00     0.251 C 
HETATM   16  O4  UNL     1      21.852  -0.902  52.324  1.00  0.00    -0.268 OA
HETATM   17  N5  UNL     1      22.871   0.330  52.744  1.00  0.00    -0.351 N 
HETATM   18  C24 UNL     1      24.210   0.208  53.222  1.00  0.00     0.187 C 
HETATM   19  H23 UNL     1      22.659   1.330  52.832  1.00  0.00     0.163 HD
ENDROOT
BRANCH  14  20
HETATM   20  C20 UNL     1      19.411   0.055  51.679  1.00  0.00     0.317 C 
BRANCH  20  21
HETATM   21  N4  UNL     1      18.466  -0.161  52.732  1.00  0.00     0.084 N 
HETATM   22  C21 UNL     1      17.137  -0.260  52.093  1.00  0.00     0.309 C 
HETATM   23  C22 UNL     1      18.692  -1.405  53.433  1.00  0.00     0.309 C 
ENDBRANCH  20  21
ENDBRANCH  14  20
BRANCH   7  24
HETATM   24  S1  UNL     1      22.081   4.361  47.283  1.00  0.00     0.266 S 
HETATM   25  O2  UNL     1      22.232   3.390  46.109  1.00  0.00    -0.200 OA
HETATM   26  O3  UNL     1      22.450   5.721  46.738  1.00  0.00    -0.200 OA
BRANCH  24  27
HETATM   27  C8  UNL     1      20.384   4.305  47.731  1.00  0.00     0.080 A 
HETATM   28  C9  UNL     1      19.655   3.130  47.756  1.00  0.00     0.025 A 
HETATM   29  C10 UNL     1      18.322   3.107  48.121  1.00  0.00     0.002 A 
HETATM   30  C11 UNL     1      17.720   4.298  48.466  1.00  0.00     0.000 A 
HETATM   31  C12 UNL     1      18.395   5.500  48.460  1.00  0.00     0.002 A 
HETATM   32  C13 UNL     1      19.730   5.479  48.087  1.00  0.00     0.025 A 
ENDBRANCH  24  27
ENDBRANCH   7  24
BRANCH   1  33
HETATM   33  O1  UNL     1      26.035   1.358  54.127  1.00  0.00    -0.354 OA
BRANCH  33  34
HETATM   34  C2  UNL     1      26.563   0.214  54.704  1.00  0.00     0.171 C 
HETATM   35  C1  UNL     1      28.096   0.265  54.625  1.00  0.00     0.034 C 
ENDBRANCH  33  34
ENDBRANCH   1  33
TORSDOF 6
ENDMDL
MODEL 9
REMARK VINA RESULT:      -7.6      6.232     10.430
REMARK  6 active torsions:
REMARK  status: ('A' for Active; 'I' for Inactive)
REMARK    1  A    between atoms: C2_2  and  O1_3 
REMARK    2  A    between atoms: O1_3  and  C3_4 
REMARK    3  A    between atoms: N2_10  and  S1_11 
REMARK    4  A    between atoms: S1_11  and  C8_14 
REMARK    5  A    between atoms: C19_26  and  C20_27 
REMARK    6  A    between atoms: C20_27  and  N4_28 
ROOT
HETATM    1  C3  UNL     1      31.959   6.624  48.214  1.00  0.00     0.066 C 
HETATM    2  C4  UNL     1      31.075   5.969  47.423  1.00  0.00     0.066 C 
HETATM    3  C5  UNL     1      29.754   6.424  47.396  1.00  0.00     0.074 A 
HETATM    4  N1  UNL     1      29.772   5.114  48.379  1.00  0.00    -0.204 NA
HETATM    5  C6  UNL     1      28.464   5.281  48.557  1.00  0.00     0.013 A 
HETATM    6  C7  UNL     1      27.518   5.421  48.671  1.00  0.00     0.117 A 
HETATM    7  N2  UNL     1      26.377   5.609  48.791  1.00  0.00    -0.249 N 
HETATM    8  C14 UNL     1      27.053   6.723  47.800  1.00  0.00     0.195 A 
HETATM    9  C15 UNL     1      28.362   7.103  47.213  1.00  0.00    -0.015 A 
HETATM   10  C16 UNL     1      28.159   8.359  46.387  1.00  0.00     0.090 C 
HETATM   11  C17 UNL     1      28.134   9.572  47.243  1.00  0.00     0.040 C 
HETATM   12  C18 UNL     1      27.206  10.549  46.644  1.00  0.00     0.096 C 
HETATM   13  N3  UNL     1      26.467  11.335  46.142  1.00  0.00    -0.192 NA
HETATM   14  C19 UNL     1      28.721  10.153  48.313  1.00  0.00     0.054 C 
HETATM   15  C23 UNL     1      29.950   9.659  48.978  1.00  0.00     0.251 C 
HETATM   16  O4  UNL     1      30.681  10.009  49.981  1.00  0.00    -0.268 OA
HETATM   17  N5  UNL     1      30.981   8.705  49.008  1.00  0.00    -0.351 N 
HETATM   18  C24 UNL     1      32.067   7.786  49.120  1.00  0.00     0.187 C 
HETATM   19  H23 UNL     1      30.510   8.440  48.136  1.00  0.00     0.163 HD
ENDROOT
BRANCH  14  20
HETATM   20  C20 UNL     1      28.556  11.407  49.076  1.00  0.00     0.317 C 
BRANCH  20  21
HETATM   21  N4  UNL     1      28.981  12.602  48.413  1.00  0.00     0.084 N 
HETATM   22  C21 UNL     1      27.907  13.598  48.610  1.00  0.00     0.309 C 
HETATM   23  C22 UNL     1      30.185  13.158  48.989  1.00  0.00     0.309 C 
ENDBRANCH  20  21
ENDBRANCH  14  20
BRANCH   7  24
HETATM   24  S1  UNL     1      24.760   5.878  48.962  1.00  0.00     0.266 S 
HETATM   25  O2  UNL     1      24.210   6.600  47.729  1.00  0.00    -0.200 OA
HETATM   26  O3  UNL     1      24.480   6.793  50.130  1.00  0.00    -0.200 OA
BRANCH  24  27
HETATM   27  C8  UNL     1      23.834   4.391  49.094  1.00  0.00     0.080 A 
HETATM   28  C9  UNL     1      24.007   3.491  50.129  1.00  0.00     0.025 A 
HETATM   29  C10 UNL     1      23.261   2.330  50.218  1.00  0.00     0.002 A 
HETATM   30  C11 UNL     1      22.324   2.081  49.238  1.00  0.00     0.000 A 
HETATM   31  C12 UNL     1      22.106   2.942  48.183  1.00  0.00     0.002 A 
HETATM   32  C13 UNL     1      22.877   4.093  48.131  1.00  0.00     0.025 A 
ENDBRANCH  24  27
ENDBRANCH   7  24
BRANCH   1  33
HETATM   33  O1  UNL     1      33.171   5.992  48.104  1.00  0.00    -0.354 OA
BRANCH  33  34
HETATM   34  C2  UNL     1      34.447   6.508  48.262  1.00  0.00     0.171 C 
HETATM   35  C1  UNL     1      35.314   5.498  49.028  1.00  0.00     0.034 C 
ENDBRANCH  33  34
ENDBRANCH   1  33
TORSDOF 6
ENDMDL
