MODEL 1
REMARK VINA RESULT:      -6.8      0.000      0.000
REMARK  8 active torsions:
REMARK  status: ('A' for Active; 'I' for Inactive)
REMARK    1  A    between atoms: N1_2  and  C2_3 
REMARK    2  A    between atoms: C3_4  and  C4_5 
REMARK    3  A    between atoms: C5_6  and  C7_8 
REMARK    4  A    between atoms: C7_8  and  P1_9 
REMARK    5  A    between atoms: P1_9  and  C8_10 
REMARK    6  A    between atoms: C14_18  and  C15_19 
REMARK    7  A    between atoms: C15_19  and  C16_20 
REMARK    8  A    between atoms: C16_20  and  O1_21 
ROOT
HETATM    1  C8  UNL     1      24.453   3.477  50.874  1.00  0.00     0.070 A 
HETATM    2  C9  UNL     1      25.706   2.994  50.651  1.00  0.00     0.034 A 
HETATM    3  C10 UNL     1      26.671   3.649  49.945  1.00  0.00     0.016 A 
HETATM    4  C11 UNL     1      26.520   4.888  49.358  1.00  0.00    -0.004 A 
HETATM    5  C12 UNL     1      25.253   5.289  49.627  1.00  0.00     0.076 A 
HETATM    6  N2  UNL     1      24.263   4.686  50.316  1.00  0.00    -0.246 NA
HETATM    7  P2  UNL     1      25.007   6.898  48.858  1.00  0.00    -0.023 P 
HETATM    8  C13 UNL     1      26.806   6.985  48.131  1.00  0.00     0.081 A 
HETATM    9  C14 UNL     1      27.298   5.677  48.592  1.00  0.00    -0.060 A 
ENDROOT
BRANCH   1  10
HETATM   10  P1  UNL     1      23.125   2.683  51.787  1.00  0.00    -0.001 P 
BRANCH  10  11
HETATM   11  C7  UNL     1      23.079   1.006  51.882  1.00  0.00     0.025 C 
BRANCH  11  12
HETATM   12  C5  UNL     1      23.771   0.315  52.965  1.00  0.00    -0.061 C 
HETATM   13  C4  UNL     1      25.090   0.348  53.050  1.00  0.00     0.008 C 
HETATM   14  C6  UNL     1      22.975  -0.432  53.982  1.00  0.00     0.048 C 
BRANCH  13  15
HETATM   15  C3  UNL     1      25.764  -0.346  54.136  1.00  0.00     0.017 C 
HETATM   16  C2  UNL     1      26.779   0.243  54.764  1.00  0.00     0.082 C 
BRANCH  16  17
HETATM   17  N1  UNL     1      27.177   1.544  54.348  1.00  0.00    -0.403 N 
HETATM   18  C1  UNL     1      28.175   2.232  53.569  1.00  0.00     0.145 C 
HETATM   19  H4  UNL     1      26.481   2.214  54.772  1.00  0.00     0.158 HD
ENDBRANCH  16  17
ENDBRANCH  13  15
ENDBRANCH  11  12
ENDBRANCH  10  11
ENDBRANCH   1  10
BRANCH   9  20
HETATM   20  C15 UNL     1      28.614   5.135  48.217  1.00  0.00     0.061 C 
BRANCH  20  21
HETATM   21  C16 UNL     1      29.851   5.917  48.437  1.00  0.00     0.171 C 
BRANCH  21  22
HETATM   22  O1  UNL     1      30.873   5.584  49.142  1.00  0.00    -0.396 OA
HETATM   23  C17 UNL     1      32.067   5.986  49.446  1.00  0.00     0.201 C 
ENDBRANCH  21  22
ENDBRANCH  20  21
ENDBRANCH   9  20
TORSDOF 8
ENDMDL
MODEL 2
REMARK VINA RESULT:      -6.6      2.523      7.147
REMARK  8 active torsions:
REMARK  status: ('A' for Active; 'I' for Inactive)
REMARK    1  A    between atoms: N1_2  and  C2_3 
REMARK    2  A    between atoms: C3_4  and  C4_5 
REMARK    3  A    between atoms: C5_6  and  C7_8 
REMARK    4  A    between atoms: C7_8  and  P1_9 
REMARK    5  A    between atoms: P1_9  and  C8_10 
REMARK    6  A    between atoms: C14_18  and  C15_19 
REMARK    7  A    between atoms: C15_19  and  C16_20 
REMARK    8  A    between atoms: C16_20  and  O1_21 
ROOT
HETATM    1  C8  UNL     1      25.232   3.381  50.389  1.00  0.00     0.070 A 
HETATM    2  C9  UNL     1      26.446   2.837  50.681  1.00  0.00     0.034 A 
HETATM    3  C10 UNL     1      26.631   1.754  51.488  1.00  0.00     0.016 A 
HETATM    4  C11 UNL     1      25.625   1.055  52.120  1.00  0.00    -0.004 A 
HETATM    5  C12 UNL     1      24.461   1.661  51.776  1.00  0.00     0.076 A 
HETATM    6  N2  UNL     1      24.221   2.727  50.988  1.00  0.00    -0.246 NA
HETATM    7  P2  UNL     1      23.120   0.790  52.600  1.00  0.00    -0.023 P 
HETATM    8  C13 UNL     1      24.293  -0.495  53.463  1.00  0.00     0.081 A 
HETATM    9  C14 UNL     1      25.584   0.017  52.979  1.00  0.00    -0.060 A 
ENDROOT
BRANCH   1  10
HETATM   10  P1  UNL     1      24.898   4.802  49.342  1.00  0.00    -0.001 P 
BRANCH  10  11
HETATM   11  C7  UNL     1      25.776   6.217  49.569  1.00  0.00     0.025 C 
BRANCH  11  12
HETATM   12  C5  UNL     1      26.693   6.683  48.534  1.00  0.00    -0.061 C 
HETATM   13  C4  UNL     1      27.947   6.263  48.507  1.00  0.00     0.008 C 
HETATM   14  C6  UNL     1      26.203   7.640  47.501  1.00  0.00     0.048 C 
BRANCH  13  15
HETATM   15  C3  UNL     1      28.847   6.738  47.469  1.00  0.00     0.017 C 
HETATM   16  C2  UNL     1      30.148   6.855  47.728  1.00  0.00     0.082 C 
BRANCH  16  17
HETATM   17  N1  UNL     1      30.619   6.509  49.025  1.00  0.00    -0.403 N 
HETATM   18  C1  UNL     1      31.788   6.029  49.719  1.00  0.00     0.145 C 
HETATM   19  H4  UNL     1      29.812   6.672  49.685  1.00  0.00     0.158 HD
ENDBRANCH  16  17
ENDBRANCH  13  15
ENDBRANCH  11  12
ENDBRANCH  10  11
ENDBRANCH   1  10
BRANCH   9  20
HETATM   20  C15 UNL     1      26.881  -0.516  53.425  1.00  0.00     0.061 C 
BRANCH  20  21
HETATM   21  C16 UNL     1      27.514  -0.035  54.673  1.00  0.00     0.171 C 
BRANCH  21  22
HETATM   22  O1  UNL     1      28.269   0.995  54.821  1.00  0.00    -0.396 OA
HETATM   23  C17 UNL     1      29.179   1.680  54.203  1.00  0.00     0.201 C 
ENDBRANCH  21  22
ENDBRANCH  20  21
ENDBRANCH   9  20
TORSDOF 8
ENDMDL
MODEL 3
REMARK VINA RESULT:      -6.3      1.481      1.957
REMARK  8 active torsions:
REMARK  status: ('A' for Active; 'I' for Inactive)
REMARK    1  A    between atoms: N1_2  and  C2_3 
REMARK    2  A    between atoms: C3_4  and  C4_5 
REMARK    3  A    between atoms: C5_6  and  C7_8 
REMARK    4  A    between atoms: C7_8  and  P1_9 
REMARK    5  A    between atoms: P1_9  and  C8_10 
REMARK    6  A    between atoms: C14_18  and  C15_19 
REMARK    7  A    between atoms: C15_19  and  C16_20 
REMARK    8  A    between atoms: C16_20  and  O1_21 
ROOT
HETATM    1  C8  UNL     1      24.520   4.269  49.668  1.00  0.00     0.070 A 
HETATM    2  C9  UNL     1      25.709   3.605  49.694  1.00  0.00     0.034 A 
HETATM    3  C10 UNL     1      26.891   4.124  49.258  1.00  0.00     0.016 A 
HETATM    4  C11 UNL     1      27.057   5.387  48.732  1.00  0.00    -0.004 A 
HETATM    5  C12 UNL     1      25.833   5.972  48.743  1.00  0.00     0.076 A 
HETATM    6  N2  UNL     1      24.638   5.509  49.160  1.00  0.00    -0.246 NA
HETATM    7  P2  UNL     1      26.001   7.621  48.042  1.00  0.00    -0.023 P 
HETATM    8  C13 UNL     1      27.911   7.449  47.732  1.00  0.00     0.081 A 
HETATM    9  C14 UNL     1      28.094   6.069  48.205  1.00  0.00    -0.060 A 
ENDROOT
BRANCH   1  10
HETATM   10  P1  UNL     1      22.921   3.664  50.218  1.00  0.00    -0.001 P 
BRANCH  10  11
HETATM   11  C7  UNL     1      22.526   2.047  49.981  1.00  0.00     0.025 C 
BRANCH  11  12
HETATM   12  C5  UNL     1      22.364   1.159  51.126  1.00  0.00    -0.061 C 
HETATM   13  C4  UNL     1      23.344   1.001  51.999  1.00  0.00     0.008 C 
HETATM   14  C6  UNL     1      21.077   0.426  51.306  1.00  0.00     0.048 C 
BRANCH  13  15
HETATM   15  C3  UNL     1      23.165   0.110  53.135  1.00  0.00     0.017 C 
HETATM   16  C2  UNL     1      24.225  -0.486  53.677  1.00  0.00     0.082 C 
BRANCH  16  17
HETATM   17  N1  UNL     1      25.509  -0.232  53.122  1.00  0.00    -0.403 N 
HETATM   18  C1  UNL     1      26.867  -0.716  53.130  1.00  0.00     0.145 C 
HETATM   19  H4  UNL     1      25.397   0.606  52.491  1.00  0.00     0.158 HD
ENDBRANCH  16  17
ENDBRANCH  13  15
ENDBRANCH  11  12
ENDBRANCH  10  11
ENDBRANCH   1  10
BRANCH   9  20
HETATM   20  C15 UNL     1      29.367   5.341  48.093  1.00  0.00     0.061 C 
BRANCH  20  21
HETATM   21  C16 UNL     1      30.583   5.821  48.787  1.00  0.00     0.171 C 
BRANCH  21  22
HETATM   22  O1  UNL     1      31.707   5.208  48.913  1.00  0.00    -0.396 OA
HETATM   23  C17 UNL     1      32.624   4.623  48.209  1.00  0.00     0.201 C 
ENDBRANCH  21  22
ENDBRANCH  20  21
ENDBRANCH   9  20
TORSDOF 8
ENDMDL
MODEL 4
REMARK VINA RESULT:      -6.3      2.134      3.229
REMARK  8 active torsions:
REMARK  status: ('A' for Active; 'I' for Inactive)
REMARK    1  A    between atoms: N1_2  and  C2_3 
REMARK    2  A    between atoms: C3_4  and  C4_5 
REMARK    3  A    between atoms: C5_6  and  C7_8 
REMARK    4  A    between atoms: C7_8  and  P1_9 
REMARK    5  A    between atoms: P1_9  and  C8_10 
REMARK    6  A    between atoms: C14_18  and  C15_19 
REMARK    7  A    between atoms: C15_19  and  C16_20 
REMARK    8  A    between atoms: C16_20  and  O1_21 
ROOT
HETATM    1  C8  UNL     1      24.647   3.786  49.754  1.00  0.00     0.070 A 
HETATM    2  C9  UNL     1      25.914   3.288  49.731  1.00  0.00     0.034 A 
HETATM    3  C10 UNL     1      27.004   3.977  49.289  1.00  0.00     0.016 A 
HETATM    4  C11 UNL     1      26.984   5.268  48.805  1.00  0.00    -0.004 A 
HETATM    5  C12 UNL     1      25.693   5.680  48.863  1.00  0.00     0.076 A 
HETATM    6  N2  UNL     1      24.582   5.046  49.288  1.00  0.00    -0.246 NA
HETATM    7  P2  UNL     1      25.618   7.359  48.219  1.00  0.00    -0.023 P 
HETATM    8  C13 UNL     1      27.525   7.459  47.862  1.00  0.00     0.081 A 
HETATM    9  C14 UNL     1      27.905   6.102  48.281  1.00  0.00    -0.060 A 
ENDROOT
BRANCH   1  10
HETATM   10  P1  UNL     1      23.159   2.950  50.316  1.00  0.00    -0.001 P 
BRANCH  10  11
HETATM   11  C7  UNL     1      22.868   2.805  51.965  1.00  0.00     0.025 C 
BRANCH  11  12
HETATM   12  C5  UNL     1      23.144   1.546  52.648  1.00  0.00    -0.061 C 
HETATM   13  C4  UNL     1      22.170   0.686  52.894  1.00  0.00     0.008 C 
HETATM   14  C6  UNL     1      24.541   1.235  53.070  1.00  0.00     0.048 C 
BRANCH  13  15
HETATM   15  C3  UNL     1      22.463  -0.564  53.576  1.00  0.00     0.017 C 
HETATM   16  C2  UNL     1      21.474  -1.252  54.143  1.00  0.00     0.082 C 
BRANCH  16  17
HETATM   17  N1  UNL     1      20.151  -0.737  54.063  1.00  0.00    -0.403 N 
HETATM   18  C1  UNL     1      18.967  -0.769  53.242  1.00  0.00     0.145 C 
HETATM   19  H4  UNL     1      20.022  -0.124  54.912  1.00  0.00     0.158 HD
ENDBRANCH  16  17
ENDBRANCH  13  15
ENDBRANCH  11  12
ENDBRANCH  10  11
ENDBRANCH   1  10
BRANCH   9  20
HETATM   20  C15 UNL     1      29.262   5.558  48.116  1.00  0.00     0.061 C 
BRANCH  20  21
HETATM   21  C16 UNL     1      30.376   6.417  47.658  1.00  0.00     0.171 C 
BRANCH  21  22
HETATM   22  O1  UNL     1      30.980   7.338  48.323  1.00  0.00    -0.396 OA
HETATM   23  C17 UNL     1      31.559   7.548  49.462  1.00  0.00     0.201 C 
ENDBRANCH  21  22
ENDBRANCH  20  21
ENDBRANCH   9  20
TORSDOF 8
ENDMDL
MODEL 5
REMARK VINA RESULT:      -6.3      3.553      8.294
REMARK  8 active torsions:
REMARK  status: ('A' for Active; 'I' for Inactive)
REMARK    1  A    between atoms: N1_2  and  C2_3 
REMARK    2  A    between atoms: C3_4  and  C4_5 
REMARK    3  A    between atoms: C5_6  and  C7_8 
REMARK    4  A    between atoms: C7_8  and  P1_9 
REMARK    5  A    between atoms: P1_9  and  C8_10 
REMARK    6  A    between atoms: C14_18  and  C15_19 
REMARK    7  A    between atoms: C15_19  and  C16_20 
REMARK    8  A    between atoms: C16_20  and  O1_21 
ROOT
HETATM    1  C8  UNL     1      24.957   3.113  51.090  1.00  0.00     0.070 A 
HETATM    2  C9  UNL     1      23.780   2.889  51.736  1.00  0.00     0.034 A 
HETATM    3  C10 UNL     1      23.564   1.870  52.614  1.00  0.00     0.016 A 
HETATM    4  C11 UNL     1      24.498   0.923  52.975  1.00  0.00    -0.004 A 
HETATM    5  C12 UNL     1      25.630   1.219  52.289  1.00  0.00     0.076 A 
HETATM    6  N2  UNL     1      25.899   2.208  51.413  1.00  0.00    -0.246 NA
HETATM    7  P2  UNL     1      26.874  -0.010  52.716  1.00  0.00    -0.023 P 
HETATM    8  C13 UNL     1      25.708  -0.975  53.933  1.00  0.00     0.081 A 
HETATM    9  C14 UNL     1      24.488  -0.172  53.762  1.00  0.00    -0.060 A 
ENDROOT
BRANCH   1  10
HETATM   10  P1  UNL     1      25.327   4.425  49.920  1.00  0.00    -0.001 P 
BRANCH  10  11
HETATM   11  C7  UNL     1      26.780   4.391  49.075  1.00  0.00     0.025 C 
BRANCH  11  12
HETATM   12  C5  UNL     1      27.368   5.631  48.582  1.00  0.00    -0.061 C 
HETATM   13  C4  UNL     1      28.636   5.673  48.210  1.00  0.00     0.008 C 
HETATM   14  C6  UNL     1      26.524   6.858  48.501  1.00  0.00     0.048 C 
BRANCH  13  15
HETATM   15  C3  UNL     1      29.207   6.918  47.722  1.00  0.00     0.017 C 
HETATM   16  C2  UNL     1      30.308   7.406  48.291  1.00  0.00     0.082 C 
BRANCH  16  17
HETATM   17  N1  UNL     1      30.895   6.687  49.368  1.00  0.00    -0.403 N 
HETATM   18  C1  UNL     1      32.043   5.883  49.705  1.00  0.00     0.145 C 
HETATM   19  H4  UNL     1      30.242   6.800  50.188  1.00  0.00     0.158 HD
ENDBRANCH  16  17
ENDBRANCH  13  15
ENDBRANCH  11  12
ENDBRANCH  10  11
ENDBRANCH   1  10
BRANCH   9  20
HETATM   20  C15 UNL     1      23.198  -0.524  54.375  1.00  0.00     0.061 C 
BRANCH  20  21
HETATM   21  C16 UNL     1      22.159  -1.242  53.605  1.00  0.00     0.171 C 
BRANCH  21  22
HETATM   22  O1  UNL     1      20.883  -1.102  53.690  1.00  0.00    -0.396 OA
HETATM   23  C17 UNL     1      19.936  -0.268  53.397  1.00  0.00     0.201 C 
ENDBRANCH  21  22
ENDBRANCH  20  21
ENDBRANCH   9  20
TORSDOF 8
ENDMDL
MODEL 6
REMARK VINA RESULT:      -6.2      4.956      7.599
REMARK  8 active torsions:
REMARK  status: ('A' for Active; 'I' for Inactive)
REMARK    1  A    between atoms: N1_2  and  C2_3 
REMARK    2  A    between atoms: C3_4  and  C4_5 
REMARK    3  A    between atoms: C5_6  and  C7_8 
REMARK    4  A    between atoms: C7_8  and  P1_9 
REMARK    5  A    between atoms: P1_9  and  C8_10 
REMARK    6  A    between atoms: C14_18  and  C15_19 
REMARK    7  A    between atoms: C15_19  and  C16_20 
REMARK    8  A    between atoms: C16_20  and  O1_21 
ROOT
HETATM    1  C8  UNL     1      21.950   0.258  52.597  1.00  0.00     0.070 A 
HETATM    2  C9  UNL     1      22.766  -0.603  53.267  1.00  0.00     0.034 A 
HETATM    3  C10 UNL     1      24.124  -0.504  53.306  1.00  0.00     0.016 A 
HETATM    4  C11 UNL     1      24.867   0.474  52.679  1.00  0.00    -0.004 A 
HETATM    5  C12 UNL     1      23.981   1.280  52.041  1.00  0.00     0.076 A 
HETATM    6  N2  UNL     1      22.635   1.229  51.969  1.00  0.00    -0.246 NA
HETATM    7  P2  UNL     1      24.912   2.562  51.189  1.00  0.00    -0.023 P 
HETATM    8  C13 UNL     1      26.639   1.905  51.788  1.00  0.00     0.081 A 
HETATM    9  C14 UNL     1      26.183   0.729  52.544  1.00  0.00    -0.060 A 
ENDROOT
BRANCH   1  10
HETATM   10  P1  UNL     1      20.158   0.201  52.492  1.00  0.00    -0.001 P 
BRANCH  10  11
HETATM   11  C7  UNL     1      19.295  -0.714  53.608  1.00  0.00     0.025 C 
BRANCH  11  12
HETATM   12  C5  UNL     1      18.090  -1.425  53.195  1.00  0.00    -0.061 C 
HETATM   13  C4  UNL     1      17.209  -0.848  52.395  1.00  0.00     0.008 C 
HETATM   14  C6  UNL     1      17.858  -2.815  53.684  1.00  0.00     0.048 C 
BRANCH  13  15
HETATM   15  C3  UNL     1      16.013  -1.571  51.993  1.00  0.00     0.017 C 
HETATM   16  C2  UNL     1      14.816  -1.118  52.359  1.00  0.00     0.082 C 
BRANCH  16  17
HETATM   17  N1  UNL     1      14.745   0.069  53.139  1.00  0.00    -0.403 N 
HETATM   18  C1  UNL     1      14.215   1.410  53.122  1.00  0.00     0.145 C 
HETATM   19  H4  UNL     1      15.268  -0.133  54.032  1.00  0.00     0.158 HD
ENDBRANCH  16  17
ENDBRANCH  13  15
ENDBRANCH  11  12
ENDBRANCH  10  11
ENDBRANCH   1  10
BRANCH   9  20
HETATM   20  C15 UNL     1      27.104  -0.251  53.142  1.00  0.00     0.061 C 
BRANCH  20  21
HETATM   21  C16 UNL     1      27.815   0.045  54.405  1.00  0.00     0.171 C 
BRANCH  21  22
HETATM   22  O1  UNL     1      28.919   0.691  54.550  1.00  0.00    -0.396 OA
HETATM   23  C17 UNL     1      29.415   1.882  54.440  1.00  0.00     0.201 C 
ENDBRANCH  21  22
ENDBRANCH  20  21
ENDBRANCH   9  20
TORSDOF 8
ENDMDL
MODEL 7
REMARK VINA RESULT:      -6.2      5.328      9.214
REMARK  8 active torsions:
REMARK  status: ('A' for Active; 'I' for Inactive)
REMARK    1  A    between atoms: N1_2  and  C2_3 
REMARK    2  A    between atoms: C3_4  and  C4_5 
REMARK    3  A    between atoms: C5_6  and  C7_8 
REMARK    4  A    between atoms: C7_8  and  P1_9 
REMARK    5  A    between atoms: P1_9  and  C8_10 
REMARK    6  A    between atoms: C14_18  and  C15_19 
REMARK    7  A    between atoms: C15_19  and  C16_20 
REMARK    8  A    between atoms: C16_20  and  O1_21 
ROOT
HETATM    1  C8  UNL     1      21.693   1.394  52.352  1.00  0.00     0.070 A 
HETATM    2  C9  UNL     1      21.411   0.528  53.365  1.00  0.00     0.034 A 
HETATM    3  C10 UNL     1      20.262  -0.198  53.461  1.00  0.00     0.016 A 
HETATM    4  C11 UNL     1      19.223  -0.162  52.555  1.00  0.00    -0.004 A 
HETATM    5  C12 UNL     1      19.586   0.719  51.589  1.00  0.00     0.076 A 
HETATM    6  N2  UNL     1      20.703   1.460  51.444  1.00  0.00    -0.246 NA
HETATM    7  P2  UNL     1      18.245   0.812  50.393  1.00  0.00    -0.023 P 
HETATM    8  C13 UNL     1      17.131  -0.476  51.328  1.00  0.00     0.081 A 
HETATM    9  C14 UNL     1      18.007  -0.738  52.479  1.00  0.00    -0.060 A 
ENDROOT
BRANCH   1  10
HETATM   10  P1  UNL     1      23.175   2.387  52.149  1.00  0.00    -0.001 P 
BRANCH  10  11
HETATM   11  C7  UNL     1      24.553   2.003  53.032  1.00  0.00     0.025 C 
BRANCH  11  12
HETATM   12  C5  UNL     1      25.555   1.105  52.469  1.00  0.00    -0.061 C 
HETATM   13  C4  UNL     1      25.649  -0.146  52.888  1.00  0.00     0.008 C 
HETATM   14  C6  UNL     1      26.478   1.610  51.412  1.00  0.00     0.048 C 
BRANCH  13  15
HETATM   15  C3  UNL     1      26.654  -1.028  52.316  1.00  0.00     0.017 C 
HETATM   16  C2  UNL     1      27.770  -1.283  52.996  1.00  0.00     0.082 C 
BRANCH  16  17
HETATM   17  N1  UNL     1      27.944  -0.679  54.272  1.00  0.00    -0.403 N 
HETATM   18  C1  UNL     1      28.672   0.369  54.943  1.00  0.00     0.145 C 
HETATM   19  H4  UNL     1      27.307  -1.198  54.933  1.00  0.00     0.158 HD
ENDBRANCH  16  17
ENDBRANCH  13  15
ENDBRANCH  11  12
ENDBRANCH  10  11
ENDBRANCH   1  10
BRANCH   9  20
HETATM   20  C15 UNL     1      17.609  -1.579  53.619  1.00  0.00     0.061 C 
BRANCH  20  21
HETATM   21  C16 UNL     1      17.721  -3.053  53.553  1.00  0.00     0.171 C 
BRANCH  21  22
HETATM   22  O1  UNL     1      16.855  -3.885  53.091  1.00  0.00    -0.396 OA
HETATM   23  C17 UNL     1      15.663  -4.336  53.321  1.00  0.00     0.201 C 
ENDBRANCH  21  22
ENDBRANCH  20  21
ENDBRANCH   9  20
TORSDOF 8
ENDMDL
MODEL 8
REMARK VINA RESULT:      -6.2      3.037      3.781
REMARK  8 active torsions:
REMARK  status: ('A' for Active; 'I' for Inactive)
REMARK    1  A    between atoms: N1_2  and  C2_3 
REMARK    2  A    between atoms: C3_4  and  C4_5 
REMARK    3  A    between atoms: C5_6  and  C7_8 
REMARK    4  A    between atoms: C7_8  and  P1_9 
REMARK    5  A    between atoms: P1_9  and  C8_10 
REMARK    6  A    between atoms: C14_18  and  C15_19 
REMARK    7  A    between atoms: C15_19  and  C16_20 
REMARK    8  A    between atoms: C16_20  and  O1_21 
ROOT
HETATM    1  C8  UNL     1      26.877   4.620  49.075  1.00  0.00     0.070 A 
HETATM    2  C9  UNL     1      26.284   5.799  48.742  1.00  0.00     0.034 A 
HETATM    3  C10 UNL     1      26.937   6.862  48.194  1.00  0.00     0.016 A 
HETATM    4  C11 UNL     1      28.283   6.900  47.899  1.00  0.00    -0.004 A 
HETATM    5  C12 UNL     1      28.790   5.695  48.261  1.00  0.00     0.076 A 
HETATM    6  N2  UNL     1      28.194   4.614  48.804  1.00  0.00    -0.246 NA
HETATM    7  P2  UNL     1      30.555   5.708  47.911  1.00  0.00    -0.023 P 
HETATM    8  C13 UNL     1      30.547   7.520  47.212  1.00  0.00     0.081 A 
HETATM    9  C14 UNL     1      29.126   7.835  47.416  1.00  0.00    -0.060 A 
ENDROOT
BRANCH   1  10
HETATM   10  P1  UNL     1      26.095   3.174  49.800  1.00  0.00    -0.001 P 
BRANCH  10  11
HETATM   11  C7  UNL     1      26.474   2.736  51.379  1.00  0.00     0.025 C 
BRANCH  11  12
HETATM   12  C5  UNL     1      26.050   1.442  51.900  1.00  0.00    -0.061 C 
HETATM   13  C4  UNL     1      26.838   0.385  51.800  1.00  0.00     0.008 C 
HETATM   14  C6  UNL     1      24.714   1.319  52.552  1.00  0.00     0.048 C 
BRANCH  13  15
HETATM   15  C3  UNL     1      26.398  -0.898  52.326  1.00  0.00     0.017 C 
HETATM   16  C2  UNL     1      27.130  -1.516  53.250  1.00  0.00     0.082 C 
BRANCH  16  17
HETATM   17  N1  UNL     1      28.329  -0.896  53.698  1.00  0.00    -0.403 N 
HETATM   18  C1  UNL     1      29.764  -1.011  53.624  1.00  0.00     0.145 C 
HETATM   19  H4  UNL     1      28.033  -0.071  54.284  1.00  0.00     0.158 HD
ENDBRANCH  16  17
ENDBRANCH  13  15
ENDBRANCH  11  12
ENDBRANCH  10  11
ENDBRANCH   1  10
BRANCH   9  20
HETATM   20  C15 UNL     1      28.551   9.166  47.167  1.00  0.00     0.061 C 
BRANCH  20  21
HETATM   21  C16 UNL     1      28.873  10.312  48.046  1.00  0.00     0.171 C 
BRANCH  21  22
HETATM   22  O1  UNL     1      30.008  10.903  48.179  1.00  0.00    -0.396 OA
HETATM   23  C17 UNL     1      30.693  11.596  49.032  1.00  0.00     0.201 C 
ENDBRANCH  21  22
ENDBRANCH  20  21
ENDBRANCH   9  20
TORSDOF 8
ENDMDL
MODEL 9
REMARK VINA RESULT:      -6.1      4.438      8.801
REMARK  8 active torsions:
REMARK  status: ('A' for Active; 'I' for Inactive)
REMARK    1  A    between atoms: N1_2  and  C2_3 
REMARK    2  A    between atoms: C3_4  and  C4_5 
REMARK    3  A    between atoms: C5_6  and  C7_8 
REMARK    4  A    between atoms: C7_8  and  P1_9 
REMARK    5  A    between atoms: P1_9  and  C8_10 
REMARK    6  A    between atoms: C14_18  and  C15_19 
REMARK    7  A    between atoms: C15_19  and  C16_20 
REMARK    8  A    between atoms: C16_20  and  O1_21 
ROOT
HETATM    1  C8  UNL     1      24.107   1.234  52.189  1.00  0.00     0.070 A 
HETATM    2  C9  UNL     1      23.530   0.506  53.185  1.00  0.00     0.034 A 
HETATM    3  C10 UNL     1      22.235   0.083  53.178  1.00  0.00     0.016 A 
HETATM    4  C11 UNL     1      21.325   0.327  52.171  1.00  0.00    -0.004 A 
HETATM    5  C12 UNL     1      21.980   1.053  51.230  1.00  0.00     0.076 A 
HETATM    6  N2  UNL     1      23.253   1.496  51.184  1.00  0.00    -0.246 NA
HETATM    7  P2  UNL     1      20.820   1.413  49.902  1.00  0.00    -0.023 P 
HETATM    8  C13 UNL     1      19.344   0.473  50.745  1.00  0.00     0.081 A 
HETATM    9  C14 UNL     1      20.018   0.058  51.984  1.00  0.00    -0.060 A 
ENDROOT
BRANCH   1  10
HETATM   10  P1  UNL     1      25.800   1.832  52.117  1.00  0.00    -0.001 P 
BRANCH  10  11
HETATM   11  C7  UNL     1      26.441   2.316  50.640  1.00  0.00     0.025 C 
BRANCH  11  12
HETATM   12  C5  UNL     1      26.177   3.657  50.133  1.00  0.00    -0.061 C 
HETATM   13  C4  UNL     1      26.948   4.188  49.199  1.00  0.00     0.008 C 
HETATM   14  C6  UNL     1      25.023   4.431  50.678  1.00  0.00     0.048 C 
BRANCH  13  15
HETATM   15  C3  UNL     1      26.671   5.527  48.705  1.00  0.00     0.017 C 
HETATM   16  C2  UNL     1      27.677   6.373  48.496  1.00  0.00     0.082 C 
BRANCH  16  17
HETATM   17  N1  UNL     1      29.003   5.937  48.766  1.00  0.00    -0.403 N 
HETATM   18  C1  UNL     1      30.244   5.600  48.113  1.00  0.00     0.145 C 
HETATM   19  H4  UNL     1      29.072   5.834  49.813  1.00  0.00     0.158 HD
ENDBRANCH  16  17
ENDBRANCH  13  15
ENDBRANCH  11  12
ENDBRANCH  10  11
ENDBRANCH   1  10
BRANCH   9  20
HETATM   20  C15 UNL     1      19.323  -0.612  53.094  1.00  0.00     0.061 C 
BRANCH  20  21
HETATM   21  C16 UNL     1      17.875  -0.910  53.017  1.00  0.00     0.171 C 
BRANCH  21  22
HETATM   22  O1  UNL     1      17.295  -2.039  53.225  1.00  0.00    -0.396 OA
HETATM   23  C17 UNL     1      17.534  -3.232  53.671  1.00  0.00     0.201 C 
ENDBRANCH  21  22
ENDBRANCH  20  21
ENDBRANCH   9  20
TORSDOF 8
ENDMDL
