MODEL 1
REMARK VINA RESULT:      -8.4      0.000      0.000
REMARK  3 active torsions:
REMARK  status: ('A' for Active; 'I' for Inactive)
REMARK    1  A    between atoms: N1_1  and  C1_2 
REMARK    2  A    between atoms: C9_13  and  C10_14 
REMARK    3  A    between atoms: C10_14  and  O1_15 
ROOT
HETATM    1  C1  UNL     1      25.320   2.786  51.303  1.00  0.00     0.006 C 
HETATM    2  C2  UNL     1      25.082   3.156  50.009  1.00  0.00     0.027 C 
HETATM    3  C3  UNL     1      23.793   2.868  49.388  1.00  0.00     0.037 C 
HETATM    4  C4  UNL     1      22.598   2.324  49.622  1.00  0.00     0.103 A 
HETATM    5  N2  UNL     1      21.552   2.232  48.738  1.00  0.00    -0.238 NA
HETATM    6  C5  UNL     1      20.464   1.785  49.024  1.00  0.00     0.236 A 
HETATM    7  N3  UNL     1      20.699   1.460  50.418  1.00  0.00    -0.223 NA
HETATM    8  C6  UNL     1      21.908   1.760  50.775  1.00  0.00     0.148 A 
HETATM    9  N4  UNL     1      21.627   1.294  52.072  1.00  0.00    -0.370 NA
HETATM   10  C7  UNL     1      22.307   0.694  52.934  1.00  0.00     0.287 C 
HETATM   11  C8  UNL     1      23.550   0.144  53.242  1.00  0.00     0.027 C 
HETATM   12  C9  UNL     1      24.648  -0.422  53.687  1.00  0.00    -0.024 C 
HETATM   13  C11 UNL     1      25.692  -0.252  52.631  1.00  0.00     0.072 A 
HETATM   14  C12 UNL     1      26.705  -1.301  52.722  1.00  0.00    -0.017 A 
HETATM   15  C13 UNL     1      27.974  -1.205  53.000  1.00  0.00    -0.023 A 
HETATM   16  C14 UNL     1      28.635   0.115  53.292  1.00  0.00     0.097 A 
HETATM   17  C15 UNL     1      27.641   1.211  53.089  1.00  0.00     0.101 A 
HETATM   18  F1  UNL     1      28.302   2.383  53.259  1.00  0.00    -0.210 F 
HETATM   19  C16 UNL     1      26.328   1.118  52.796  1.00  0.00    -0.028 A 
HETATM   20  C17 UNL     1      25.705   2.468  52.675  1.00  0.00     0.094 C 
ENDROOT
BRANCH  12  21
HETATM   21  C10 UNL     1      24.991  -1.119  54.958  1.00  0.00     0.244 C 
HETATM   22 CL1  UNL     1      26.007  -0.050  55.978  1.00  0.00    -0.090 Cl
BRANCH  21  23
HETATM   23  O1  UNL     1      23.807  -1.417  55.613  1.00  0.00    -0.377 OA
HETATM   24  H9  UNL     1      23.765  -2.333  55.964  1.00  0.00     0.211 HD
ENDBRANCH  21  23
ENDBRANCH  12  21
BRANCH   1  25
HETATM   25  N1  UNL     1      26.679   3.359  51.217  1.00  0.00    -0.402 N 
HETATM   26  H1  UNL     1      26.995   4.327  51.513  1.00  0.00     0.156 HD
HETATM   27  H2  UNL     1      27.665   3.231  50.932  1.00  0.00     0.156 HD
ENDBRANCH   1  25
TORSDOF 3
ENDMDL
MODEL 2
REMARK VINA RESULT:      -8.1      3.571      6.594
REMARK  3 active torsions:
REMARK  status: ('A' for Active; 'I' for Inactive)
REMARK    1  A    between atoms: N1_1  and  C1_2 
REMARK    2  A    between atoms: C9_13  and  C10_14 
REMARK    3  A    between atoms: C10_14  and  O1_15 
ROOT
HETATM    1  C1  UNL     1      23.565   1.319  52.970  1.00  0.00     0.006 C 
HETATM    2  C2  UNL     1      23.475  -0.013  53.262  1.00  0.00     0.027 C 
HETATM    3  C3  UNL     1      24.674  -0.843  53.283  1.00  0.00     0.037 C 
HETATM    4  C4  UNL     1      25.997  -0.805  53.118  1.00  0.00     0.103 A 
HETATM    5  N2  UNL     1      26.869  -1.858  53.234  1.00  0.00    -0.238 NA
HETATM    6  C5  UNL     1      28.071  -1.754  53.136  1.00  0.00     0.236 A 
HETATM    7  N3  UNL     1      28.168  -0.326  52.898  1.00  0.00    -0.223 NA
HETATM    8  C6  UNL     1      26.997   0.230  52.885  1.00  0.00     0.148 A 
HETATM    9  N4  UNL     1      27.605   1.475  52.645  1.00  0.00    -0.370 NA
HETATM   10  C7  UNL     1      27.276   2.474  51.968  1.00  0.00     0.287 C 
HETATM   11  C8  UNL     1      26.313   3.029  51.128  1.00  0.00     0.027 C 
HETATM   12  C9  UNL     1      25.513   3.694  50.326  1.00  0.00    -0.024 C 
HETATM   13  C11 UNL     1      24.309   2.838  50.095  1.00  0.00     0.072 A 
HETATM   14  C12 UNL     1      23.673   3.162  48.820  1.00  0.00    -0.017 A 
HETATM   15  C13 UNL     1      22.493   3.662  48.588  1.00  0.00    -0.023 A 
HETATM   16  C14 UNL     1      21.532   4.005  49.695  1.00  0.00     0.097 A 
HETATM   17  C15 UNL     1      22.119   3.572  50.997  1.00  0.00     0.101 A 
HETATM   18  F1  UNL     1      21.182   3.802  51.951  1.00  0.00    -0.210 F 
HETATM   19  C16 UNL     1      23.338   3.050  51.244  1.00  0.00    -0.028 A 
HETATM   20  C17 UNL     1      23.514   2.752  52.695  1.00  0.00     0.094 C 
ENDROOT
BRANCH  12  21
HETATM   21  C10 UNL     1      25.596   5.038  49.690  1.00  0.00     0.244 C 
HETATM   22 CL1  UNL     1      24.668   6.225  50.663  1.00  0.00    -0.090 Cl
BRANCH  21  23
HETATM   23  O1  UNL     1      26.931   5.405  49.640  1.00  0.00    -0.377 OA
HETATM   24  H9  UNL     1      27.554   4.648  49.694  1.00  0.00     0.211 HD
ENDBRANCH  21  23
ENDBRANCH  12  21
BRANCH   1  25
HETATM   25  N1  UNL     1      22.102   1.454  53.133  1.00  0.00    -0.402 N 
HETATM   26  H1  UNL     1      21.553   2.331  53.363  1.00  0.00     0.156 HD
HETATM   27  H2  UNL     1      21.178   0.990  53.137  1.00  0.00     0.156 HD
ENDBRANCH   1  25
TORSDOF 3
ENDMDL
MODEL 3
REMARK VINA RESULT:      -8.0      3.738      6.774
REMARK  3 active torsions:
REMARK  status: ('A' for Active; 'I' for Inactive)
REMARK    1  A    between atoms: N1_1  and  C1_2 
REMARK    2  A    between atoms: C9_13  and  C10_14 
REMARK    3  A    between atoms: C10_14  and  O1_15 
ROOT
HETATM    1  C1  UNL     1      22.616  -0.090  53.882  1.00  0.00     0.006 C 
HETATM    2  C2  UNL     1      23.329  -1.195  54.254  1.00  0.00     0.027 C 
HETATM    3  C3  UNL     1      24.775  -1.113  54.429  1.00  0.00     0.037 C 
HETATM    4  C4  UNL     1      25.806  -0.269  54.371  1.00  0.00     0.103 A 
HETATM    5  N2  UNL     1      27.122  -0.564  54.628  1.00  0.00    -0.238 NA
HETATM    6  C5  UNL     1      28.011   0.257  54.623  1.00  0.00     0.236 A 
HETATM    7  N3  UNL     1      27.240   1.442  54.298  1.00  0.00    -0.223 NA
HETATM    8  C6  UNL     1      25.983   1.161  54.152  1.00  0.00     0.148 A 
HETATM    9  N4  UNL     1      25.724   2.516  53.880  1.00  0.00    -0.370 NA
HETATM   10  C7  UNL     1      24.927   3.100  53.113  1.00  0.00     0.287 C 
HETATM   11  C8  UNL     1      23.921   2.944  52.161  1.00  0.00     0.027 C 
HETATM   12  C9  UNL     1      22.973   2.974  51.253  1.00  0.00    -0.024 C 
HETATM   13  C11 UNL     1      22.576   1.558  50.982  1.00  0.00     0.072 A 
HETATM   14  C12 UNL     1      22.014   1.420  49.640  1.00  0.00    -0.017 A 
HETATM   15  C13 UNL     1      20.808   1.088  49.279  1.00  0.00    -0.023 A 
HETATM   16  C14 UNL     1      19.727   0.771  50.278  1.00  0.00     0.097 A 
HETATM   17  C15 UNL     1      20.314   0.793  51.650  1.00  0.00     0.101 A 
HETATM   18  F1  UNL     1      19.338   0.401  52.506  1.00  0.00    -0.210 F 
HETATM   19  C16 UNL     1      21.563   1.131  52.030  1.00  0.00    -0.028 A 
HETATM   20  C17 UNL     1      21.730   1.008  53.508  1.00  0.00     0.094 C 
ENDROOT
BRANCH  12  21
HETATM   21  C10 UNL     1      22.284   4.084  50.538  1.00  0.00     0.244 C 
HETATM   22 CL1  UNL     1      20.768   4.508  51.397  1.00  0.00    -0.090 Cl
BRANCH  21  23
HETATM   23  O1  UNL     1      23.139   5.174  50.517  1.00  0.00    -0.377 OA
HETATM   24  H9  UNL     1      22.939   5.824  49.810  1.00  0.00     0.211 HD
ENDBRANCH  21  23
ENDBRANCH  12  21
BRANCH   1  25
HETATM   25  N1  UNL     1      21.369  -0.883  53.914  1.00  0.00    -0.402 N 
HETATM   26  H1  UNL     1      21.251  -1.915  53.701  1.00  0.00     0.156 HD
HETATM   27  H2  UNL     1      20.347  -0.898  54.069  1.00  0.00     0.156 HD
ENDBRANCH   1  25
TORSDOF 3
ENDMDL
MODEL 4
REMARK VINA RESULT:      -7.8      2.733      4.432
REMARK  3 active torsions:
REMARK  status: ('A' for Active; 'I' for Inactive)
REMARK    1  A    between atoms: N1_1  and  C1_2 
REMARK    2  A    between atoms: C9_13  and  C10_14 
REMARK    3  A    between atoms: C10_14  and  O1_15 
ROOT
HETATM    1  C1  UNL     1      22.823   1.759  52.251  1.00  0.00     0.006 C 
HETATM    2  C2  UNL     1      22.215   2.982  52.303  1.00  0.00     0.027 C 
HETATM    3  C3  UNL     1      22.890   4.162  51.774  1.00  0.00     0.037 C 
HETATM    4  C4  UNL     1      24.009   4.566  51.171  1.00  0.00     0.103 A 
HETATM    5  N2  UNL     1      24.317   5.847  50.786  1.00  0.00    -0.238 NA
HETATM    6  C5  UNL     1      25.323   6.147  50.184  1.00  0.00     0.236 A 
HETATM    7  N3  UNL     1      25.932   4.836  50.067  1.00  0.00    -0.223 NA
HETATM    8  C6  UNL     1      25.198   3.924  50.623  1.00  0.00     0.148 A 
HETATM    9  N4  UNL     1      26.148   2.954  50.259  1.00  0.00    -0.370 NA
HETATM   10  C7  UNL     1      26.567   1.913  50.813  1.00  0.00     0.287 C 
HETATM   11  C8  UNL     1      26.471   1.084  51.928  1.00  0.00     0.027 C 
HETATM   12  C9  UNL     1      26.509   0.204  52.903  1.00  0.00    -0.024 C 
HETATM   13  C11 UNL     1      25.483   0.617  53.909  1.00  0.00     0.072 A 
HETATM   14  C12 UNL     1      25.826   0.120  55.240  1.00  0.00    -0.017 A 
HETATM   15  C13 UNL     1      25.196  -0.738  55.990  1.00  0.00    -0.023 A 
HETATM   16  C14 UNL     1      23.914  -1.397  55.556  1.00  0.00     0.097 A 
HETATM   17  C15 UNL     1      23.487  -0.814  54.250  1.00  0.00     0.101 A 
HETATM   18  F1  UNL     1      22.281  -1.356  53.949  1.00  0.00    -0.210 F 
HETATM   19  C16 UNL     1      24.132   0.078  53.471  1.00  0.00    -0.028 A 
HETATM   20  C17 UNL     1      23.342   0.395  52.245  1.00  0.00     0.094 C 
ENDROOT
BRANCH  12  21
HETATM   21  C10 UNL     1      27.315  -1.027  53.133  1.00  0.00     0.244 C 
HETATM   22 CL1  UNL     1      26.775  -2.320  52.014  1.00  0.00    -0.090 Cl
BRANCH  21  23
HETATM   23  O1  UNL     1      28.644  -0.717  52.895  1.00  0.00    -0.377 OA
HETATM   24  H9  UNL     1      28.774   0.053  52.300  1.00  0.00     0.211 HD
ENDBRANCH  21  23
ENDBRANCH  12  21
BRANCH   1  25
HETATM   25  N1  UNL     1      21.647   1.146  52.901  1.00  0.00    -0.402 N 
HETATM   26  H1  UNL     1      20.721   0.885  52.455  1.00  0.00     0.156 HD
HETATM   27  H2  UNL     1      21.216   0.791  53.772  1.00  0.00     0.156 HD
ENDBRANCH   1  25
TORSDOF 3
ENDMDL
MODEL 5
REMARK VINA RESULT:      -7.6      3.227      5.901
REMARK  3 active torsions:
REMARK  status: ('A' for Active; 'I' for Inactive)
REMARK    1  A    between atoms: N1_1  and  C1_2 
REMARK    2  A    between atoms: C9_13  and  C10_14 
REMARK    3  A    between atoms: C10_14  and  O1_15 
ROOT
HETATM    1  C1  UNL     1      25.522   2.414  50.808  1.00  0.00     0.006 C 
HETATM    2  C2  UNL     1      26.764   2.827  51.201  1.00  0.00     0.027 C 
HETATM    3  C3  UNL     1      27.394   2.244  52.380  1.00  0.00     0.037 C 
HETATM    4  C4  UNL     1      27.214   1.341  53.345  1.00  0.00     0.103 A 
HETATM    5  N2  UNL     1      28.091   1.033  54.355  1.00  0.00    -0.238 NA
HETATM    6  C5  UNL     1      27.903   0.158  55.169  1.00  0.00     0.236 A 
HETATM    7  N3  UNL     1      26.617  -0.327  54.706  1.00  0.00    -0.223 NA
HETATM    8  C6  UNL     1      26.210   0.335  53.669  1.00  0.00     0.148 A 
HETATM    9  N4  UNL     1      25.048  -0.457  53.634  1.00  0.00    -0.370 NA
HETATM   10  C7  UNL     1      23.856  -0.219  53.338  1.00  0.00     0.287 C 
HETATM   11  C8  UNL     1      22.945   0.747  52.917  1.00  0.00     0.027 C 
HETATM   12  C9  UNL     1      21.963   1.530  52.533  1.00  0.00    -0.024 C 
HETATM   13  C11 UNL     1      22.553   2.875  52.257  1.00  0.00     0.072 A 
HETATM   14  C12 UNL     1      21.552   3.928  52.414  1.00  0.00    -0.017 A 
HETATM   15  C13 UNL     1      21.059   4.740  51.523  1.00  0.00    -0.023 A 
HETATM   16  C14 UNL     1      21.486   4.707  50.081  1.00  0.00     0.097 A 
HETATM   17  C15 UNL     1      22.593   3.717  49.926  1.00  0.00     0.101 A 
HETATM   18  F1  UNL     1      23.018   3.795  48.640  1.00  0.00    -0.210 F 
HETATM   19  C16 UNL     1      23.111   2.878  50.845  1.00  0.00    -0.028 A 
HETATM   20  C17 UNL     1      24.215   2.057  50.265  1.00  0.00     0.094 C 
ENDROOT
BRANCH  12  21
HETATM   21  C10 UNL     1      20.504   1.308  52.329  1.00  0.00     0.244 C 
HETATM   22 CL1  UNL     1      20.212   0.708  50.664  1.00  0.00    -0.090 Cl
BRANCH  21  23
HETATM   23  O1  UNL     1      20.082   0.366  53.254  1.00  0.00    -0.377 OA
HETATM   24  H9  UNL     1      20.762   0.130  53.921  1.00  0.00     0.211 HD
ENDBRANCH  21  23
ENDBRANCH  12  21
BRANCH   1  25
HETATM   25  N1  UNL     1      25.568   3.356  49.670  1.00  0.00    -0.402 N 
HETATM   26  H1  UNL     1      26.121   3.260  48.771  1.00  0.00     0.156 HD
HETATM   27  H2  UNL     1      25.255   4.255  49.268  1.00  0.00     0.156 HD
ENDBRANCH   1  25
TORSDOF 3
ENDMDL
MODEL 6
REMARK VINA RESULT:      -7.4      3.477      5.895
REMARK  3 active torsions:
REMARK  status: ('A' for Active; 'I' for Inactive)
REMARK    1  A    between atoms: N1_1  and  C1_2 
REMARK    2  A    between atoms: C9_13  and  C10_14 
REMARK    3  A    between atoms: C10_14  and  O1_15 
ROOT
HETATM    1  C1  UNL     1      26.072   2.409  51.581  1.00  0.00     0.006 C 
HETATM    2  C2  UNL     1      27.047   2.224  52.521  1.00  0.00     0.027 C 
HETATM    3  C3  UNL     1      26.828   1.310  53.638  1.00  0.00     0.037 C 
HETATM    4  C4  UNL     1      25.937   0.467  54.162  1.00  0.00     0.103 A 
HETATM    5  N2  UNL     1      26.090  -0.283  55.301  1.00  0.00    -0.238 NA
HETATM    6  C5  UNL     1      25.273  -1.083  55.698  1.00  0.00     0.236 A 
HETATM    7  N3  UNL     1      24.272  -0.937  54.658  1.00  0.00    -0.223 NA
HETATM    8  C6  UNL     1      24.634  -0.059  53.776  1.00  0.00     0.148 A 
HETATM    9  N4  UNL     1      23.437  -0.289  53.074  1.00  0.00    -0.370 NA
HETATM   10  C7  UNL     1      22.670   0.452  52.421  1.00  0.00     0.287 C 
HETATM   11  C8  UNL     1      22.428   1.748  51.970  1.00  0.00     0.027 C 
HETATM   12  C9  UNL     1      22.051   2.904  51.473  1.00  0.00    -0.024 C 
HETATM   13  C11 UNL     1      23.102   3.904  51.837  1.00  0.00     0.072 A 
HETATM   14  C12 UNL     1      22.545   5.255  51.885  1.00  0.00    -0.017 A 
HETATM   15  C13 UNL     1      22.816   6.288  51.140  1.00  0.00    -0.023 A 
HETATM   16  C14 UNL     1      23.830   6.234  50.028  1.00  0.00     0.097 A 
HETATM   17  C15 UNL     1      24.493   4.897  50.041  1.00  0.00     0.101 A 
HETATM   18  F1  UNL     1      25.467   4.927  49.098  1.00  0.00    -0.210 F 
HETATM   19  C16 UNL     1      24.220   3.825  50.812  1.00  0.00    -0.028 A 
HETATM   20  C17 UNL     1      25.133   2.687  50.499  1.00  0.00     0.094 C 
ENDROOT
BRANCH  12  21
HETATM   21  C10 UNL     1      20.873   3.331  50.669  1.00  0.00     0.244 C 
HETATM   22 CL1  UNL     1      21.289   3.297  48.924  1.00  0.00    -0.090 Cl
BRANCH  21  23
HETATM   23  O1  UNL     1      19.837   2.448  50.928  1.00  0.00    -0.377 OA
HETATM   24  H9  UNL     1      19.860   1.634  50.380  1.00  0.00     0.211 HD
ENDBRANCH  21  23
ENDBRANCH  12  21
BRANCH   1  25
HETATM   25  N1  UNL     1      26.945   3.362  50.864  1.00  0.00    -0.402 N 
HETATM   26  H1  UNL     1      27.503   3.191  49.978  1.00  0.00     0.156 HD
HETATM   27  H2  UNL     1      27.357   4.309  50.824  1.00  0.00     0.156 HD
ENDBRANCH   1  25
TORSDOF 3
ENDMDL
MODEL 7
REMARK VINA RESULT:      -7.2      3.857      6.072
REMARK  3 active torsions:
REMARK  status: ('A' for Active; 'I' for Inactive)
REMARK    1  A    between atoms: N1_1  and  C1_2 
REMARK    2  A    between atoms: C9_13  and  C10_14 
REMARK    3  A    between atoms: C10_14  and  O1_15 
ROOT
HETATM    1  C1  UNL     1      25.523   2.616  51.128  1.00  0.00     0.006 C 
HETATM    2  C2  UNL     1      25.914   1.939  52.249  1.00  0.00     0.027 C 
HETATM    3  C3  UNL     1      24.980   1.053  52.935  1.00  0.00     0.037 C 
HETATM    4  C4  UNL     1      23.736   0.574  52.885  1.00  0.00     0.103 A 
HETATM    5  N2  UNL     1      23.162  -0.314  53.760  1.00  0.00    -0.238 NA
HETATM    6  C5  UNL     1      22.047  -0.766  53.630  1.00  0.00     0.236 A 
HETATM    7  N3  UNL     1      21.662  -0.100  52.400  1.00  0.00    -0.223 NA
HETATM    8  C6  UNL     1      22.611   0.666  51.962  1.00  0.00     0.148 A 
HETATM    9  N4  UNL     1      21.800   1.026  50.871  1.00  0.00    -0.370 NA
HETATM   10  C7  UNL     1      21.647   2.089  50.229  1.00  0.00     0.287 C 
HETATM   11  C8  UNL     1      22.036   3.420  50.097  1.00  0.00     0.027 C 
HETATM   12  C9  UNL     1      22.284   4.684  49.840  1.00  0.00    -0.024 C 
HETATM   13  C11 UNL     1      23.352   5.126  50.788  1.00  0.00     0.072 A 
HETATM   14  C12 UNL     1      23.285   6.568  51.017  1.00  0.00    -0.017 A 
HETATM   15  C13 UNL     1      24.150   7.494  50.715  1.00  0.00    -0.023 A 
HETATM   16  C14 UNL     1      25.455   7.184  50.031  1.00  0.00     0.097 A 
HETATM   17  C15 UNL     1      25.591   5.704  49.895  1.00  0.00     0.101 A 
HETATM   18  F1  UNL     1      26.820   5.465  49.373  1.00  0.00    -0.210 F 
HETATM   19  C16 UNL     1      24.702   4.740  50.210  1.00  0.00    -0.028 A 
HETATM   20  C17 UNL     1      25.250   3.383  49.917  1.00  0.00     0.094 C 
ENDROOT
BRANCH  12  21
HETATM   21  C10 UNL     1      21.741   5.645  48.841  1.00  0.00     0.244 C 
HETATM   22 CL1  UNL     1      22.792   5.666  47.388  1.00  0.00    -0.090 Cl
BRANCH  21  23
HETATM   23  O1  UNL     1      20.464   5.228  48.498  1.00  0.00    -0.377 OA
HETATM   24  H9  UNL     1      19.889   5.030  49.268  1.00  0.00     0.211 HD
ENDBRANCH  21  23
ENDBRANCH  12  21
BRANCH   1  25
HETATM   25  N1  UNL     1      26.865   3.226  51.028  1.00  0.00    -0.402 N 
HETATM   26  H1  UNL     1      27.575   3.363  51.804  1.00  0.00     0.156 HD
HETATM   27  H2  UNL     1      27.574   3.685  50.432  1.00  0.00     0.156 HD
ENDBRANCH   1  25
TORSDOF 3
ENDMDL
MODEL 8
REMARK VINA RESULT:      -7.1      6.506      9.060
REMARK  3 active torsions:
REMARK  status: ('A' for Active; 'I' for Inactive)
REMARK    1  A    between atoms: N1_1  and  C1_2 
REMARK    2  A    between atoms: C9_13  and  C10_14 
REMARK    3  A    between atoms: C10_14  and  O1_15 
ROOT
HETATM    1  C1  UNL     1      27.212   8.651  47.688  1.00  0.00     0.006 C 
HETATM    2  C2  UNL     1      28.293   9.449  47.942  1.00  0.00     0.027 C 
HETATM    3  C3  UNL     1      29.554   8.862  48.381  1.00  0.00     0.037 C 
HETATM    4  C4  UNL     1      30.146   7.699  48.656  1.00  0.00     0.103 A 
HETATM    5  N2  UNL     1      31.444   7.516  49.062  1.00  0.00    -0.238 NA
HETATM    6  C5  UNL     1      31.951   6.430  49.237  1.00  0.00     0.236 A 
HETATM    7  N3  UNL     1      30.823   5.584  48.897  1.00  0.00    -0.223 NA
HETATM    8  C6  UNL     1      29.788   6.289  48.564  1.00  0.00     0.148 A 
HETATM    9  N4  UNL     1      29.063   5.103  48.352  1.00  0.00    -0.370 NA
HETATM   10  C7  UNL     1      27.868   4.783  48.537  1.00  0.00     0.287 C 
HETATM   11  C8  UNL     1      26.617   5.209  48.980  1.00  0.00     0.027 C 
HETATM   12  C9  UNL     1      25.383   5.445  49.362  1.00  0.00    -0.024 C 
HETATM   13  C11 UNL     1      25.318   6.878  49.785  1.00  0.00     0.072 A 
HETATM   14  C12 UNL     1      24.242   7.090  50.751  1.00  0.00    -0.017 A 
HETATM   15  C13 UNL     1      23.159   7.805  50.639  1.00  0.00    -0.023 A 
HETATM   16  C14 UNL     1      22.834   8.582  49.391  1.00  0.00     0.097 A 
HETATM   17  C15 UNL     1      23.978   8.471  48.439  1.00  0.00     0.101 A 
HETATM   18  F1  UNL     1      23.691   9.267  47.379  1.00  0.00    -0.210 F 
HETATM   19  C16 UNL     1      25.103   7.736  48.551  1.00  0.00    -0.028 A 
HETATM   20  C17 UNL     1      25.990   7.923  47.365  1.00  0.00     0.094 C 
ENDROOT
BRANCH  12  21
HETATM   21  C10 UNL     1      24.156   4.603  49.416  1.00  0.00     0.244 C 
HETATM   22 CL1  UNL     1      23.123   4.948  47.991  1.00  0.00    -0.090 Cl
BRANCH  21  23
HETATM   23  O1  UNL     1      24.548   3.275  49.409  1.00  0.00    -0.377 OA
HETATM   24  H9  UNL     1      25.230   3.057  50.080  1.00  0.00     0.211 HD
ENDBRANCH  21  23
ENDBRANCH  12  21
BRANCH   1  25
HETATM   25  N1  UNL     1      26.415   9.843  47.332  1.00  0.00    -0.402 N 
HETATM   26  H1  UNL     1      25.367   9.973  47.423  1.00  0.00     0.156 HD
HETATM   27  H2  UNL     1      26.403  10.801  46.944  1.00  0.00     0.156 HD
ENDBRANCH   1  25
TORSDOF 3
ENDMDL
MODEL 9
REMARK VINA RESULT:      -7.0      5.670      8.286
REMARK  3 active torsions:
REMARK  status: ('A' for Active; 'I' for Inactive)
REMARK    1  A    between atoms: N1_1  and  C1_2 
REMARK    2  A    between atoms: C9_13  and  C10_14 
REMARK    3  A    between atoms: C10_14  and  O1_15 
ROOT
HETATM    1  C1  UNL     1      26.648   4.877  49.281  1.00  0.00     0.006 C 
HETATM    2  C2  UNL     1      27.842   4.822  48.618  1.00  0.00     0.027 C 
HETATM    3  C3  UNL     1      28.547   6.051  48.270  1.00  0.00     0.037 C 
HETATM    4  C4  UNL     1      28.480   7.379  48.369  1.00  0.00     0.103 A 
HETATM    5  N2  UNL     1      29.398   8.284  47.898  1.00  0.00    -0.238 NA
HETATM    6  C5  UNL     1      29.319   9.479  48.072  1.00  0.00     0.236 A 
HETATM    7  N3  UNL     1      28.088   9.528  48.839  1.00  0.00    -0.223 NA
HETATM    8  C6  UNL     1      27.598   8.341  49.017  1.00  0.00     0.148 A 
HETATM    9  N4  UNL     1      26.531   8.905  49.740  1.00  0.00    -0.370 NA
HETATM   10  C7  UNL     1      25.316   8.622  49.837  1.00  0.00     0.287 C 
HETATM   11  C8  UNL     1      24.298   7.762  49.431  1.00  0.00     0.027 C 
HETATM   12  C9  UNL     1      23.231   7.051  49.148  1.00  0.00    -0.024 C 
HETATM   13  C11 UNL     1      23.665   5.945  48.240  1.00  0.00     0.072 A 
HETATM   14  C12 UNL     1      22.555   5.485  47.408  1.00  0.00    -0.017 A 
HETATM   15  C13 UNL     1      21.964   4.325  47.385  1.00  0.00    -0.023 A 
HETATM   16  C14 UNL     1      22.374   3.195  48.290  1.00  0.00     0.097 A 
HETATM   17  C15 UNL     1      23.582   3.608  49.065  1.00  0.00     0.101 A 
HETATM   18  F1  UNL     1      23.980   2.531  49.785  1.00  0.00    -0.210 F 
HETATM   19  C16 UNL     1      24.201   4.806  49.089  1.00  0.00    -0.028 A 
HETATM   20  C17 UNL     1      25.382   4.784  50.001  1.00  0.00     0.094 C 
ENDROOT
BRANCH  12  21
HETATM   21  C10 UNL     1      21.804   7.149  49.562  1.00  0.00     0.244 C 
HETATM   22 CL1  UNL     1      21.542   6.197  51.060  1.00  0.00    -0.090 Cl
BRANCH  21  23
HETATM   23  O1  UNL     1      21.516   8.485  49.792  1.00  0.00    -0.377 OA
HETATM   24  H9  UNL     1      20.557   8.680  49.865  1.00  0.00     0.211 HD
ENDBRANCH  21  23
ENDBRANCH  12  21
BRANCH   1  25
HETATM   25  N1  UNL     1      26.575   3.401  49.272  1.00  0.00    -0.402 N 
HETATM   26  H1  UNL     1      25.961   2.778  49.871  1.00  0.00     0.156 HD
HETATM   27  H2  UNL     1      26.927   2.511  48.879  1.00  0.00     0.156 HD
ENDBRANCH   1  25
TORSDOF 3
ENDMDL
