MODEL 1
REMARK VINA RESULT:      -8.1      0.000      0.000
REMARK  8 active torsions:
REMARK  status: ('A' for Active; 'I' for Inactive)
REMARK    1  A    between atoms: C2_2  and  C3_3 
REMARK       I    between atoms: C3_3  and  N1_5 
REMARK    2  A    between atoms: N1_5  and  C4_6 
REMARK    3  A    between atoms: C4_6  and  C5_7 
REMARK    4  A    between atoms: C4_6  and  C13_18 
REMARK    5  A    between atoms: C5_7  and  C6_8 
REMARK    6  A    between atoms: C6_8  and  N2_9 
REMARK    7  A    between atoms: N2_9  and  C7_10 
REMARK    8  A    between atoms: C18_24  and  N6_25 
ROOT
HETATM    1  C4  UNL     1      23.856   3.804  49.826  1.00  0.00     0.059 C 
ENDROOT
BRANCH   1   2
HETATM    2  N1  UNL     1      23.348   5.092  49.561  1.00  0.00    -0.322 N 
HETATM    3  C3  UNL     1      23.244   6.156  50.462  1.00  0.00     0.242 C 
HETATM    4  O1  UNL     1      23.588   6.127  51.656  1.00  0.00    -0.269 OA
HETATM    5  H4  UNL     1      23.036   5.376  48.646  1.00  0.00     0.169 HD
BRANCH   3   6
HETATM    6  C2  UNL     1      22.726   7.474  50.207  1.00  0.00     0.065 C 
HETATM    7  C1  UNL     1      21.438   7.610  50.602  1.00  0.00     0.019 C 
ENDBRANCH   3   6
ENDBRANCH   1   2
BRANCH   1   8
HETATM    8  C5  UNL     1      25.092   3.341  49.855  1.00  0.00     0.025 C 
BRANCH   8   9
HETATM    9  C6  UNL     1      26.436   2.889  50.076  1.00  0.00     0.167 C 
BRANCH   9  10
HETATM   10  N2  UNL     1      26.834   3.131  51.473  1.00  0.00    -0.219 N 
HETATM   11  H8  UNL     1      26.733   4.078  51.938  1.00  0.00     0.178 HD
BRANCH  10  12
HETATM   12  C7  UNL     1      27.387   2.058  52.258  1.00  0.00     0.721 A 
HETATM   13  N3  UNL     1      28.305   2.469  53.067  1.00  0.00    -0.076 NA
HETATM   14  C8  UNL     1      29.062   1.693  53.987  1.00  0.00     0.133 A 
HETATM   15  C9  UNL     1      28.959   0.392  54.174  1.00  0.00     0.003 A 
HETATM   16  C10 UNL     1      28.160  -0.701  53.629  1.00  0.00     0.047 A 
HETATM   17  C11 UNL     1      28.999  -1.875  53.136  1.00  0.00     0.020 C 
HETATM   18  C12 UNL     1      27.193  -0.326  52.599  1.00  0.00     0.117 A 
HETATM   19  N4  UNL     1      26.839   0.765  52.009  1.00  0.00    -0.079 NA
ENDBRANCH  10  12
ENDBRANCH   9  10
ENDBRANCH   8   9
ENDBRANCH   1   8
BRANCH   1  20
HETATM   20  C13 UNL     1      22.912   2.760  50.103  1.00  0.00     0.056 C 
HETATM   21  C14 UNL     1      22.412   1.922  49.178  1.00  0.00     0.034 C 
HETATM   22  C15 UNL     1      21.448   0.896  49.618  1.00  0.00     0.302 C 
HETATM   23  N5  UNL     1      20.478   1.318  50.575  1.00  0.00     0.110 N 
HETATM   24  C16 UNL     1      21.017   2.112  51.651  1.00  0.00     0.324 C 
HETATM   25  H19 UNL     1      19.734   1.848  50.090  1.00  0.00     0.319 HD
HETATM   26  C17 UNL     1      20.786   1.482  52.977  1.00  0.00     0.093 C 
HETATM   27  N7  UNL     1      22.434   2.422  51.401  1.00  0.00    -0.349 N 
HETATM   28  C18 UNL     1      21.882   0.658  53.548  1.00  0.00     0.227 C 
HETATM   29  C21 UNL     1      23.246   0.884  52.963  1.00  0.00     0.055 C 
HETATM   30  C22 UNL     1      23.380   2.353  52.487  1.00  0.00     0.127 C 
BRANCH  28  31
HETATM   31  N6  UNL     1      21.613  -0.744  53.676  1.00  0.00     0.084 N 
HETATM   32  C19 UNL     1      22.332  -1.277  54.819  1.00  0.00     0.309 C 
HETATM   33  C20 UNL     1      20.249  -1.127  53.785  1.00  0.00     0.309 C 
ENDBRANCH  28  31
ENDBRANCH   1  20
TORSDOF 8
ENDMDL
MODEL 2
REMARK VINA RESULT:      -7.7      2.307      7.493
REMARK  8 active torsions:
REMARK  status: ('A' for Active; 'I' for Inactive)
REMARK    1  A    between atoms: C2_2  and  C3_3 
REMARK       I    between atoms: C3_3  and  N1_5 
REMARK    2  A    between atoms: N1_5  and  C4_6 
REMARK    3  A    between atoms: C4_6  and  C5_7 
REMARK    4  A    between atoms: C4_6  and  C13_18 
REMARK    5  A    between atoms: C5_7  and  C6_8 
REMARK    6  A    between atoms: C6_8  and  N2_9 
REMARK    7  A    between atoms: N2_9  and  C7_10 
REMARK    8  A    between atoms: C18_24  and  N6_25 
ROOT
HETATM    1  C4  UNL     1      25.253   1.020  53.096  1.00  0.00     0.059 C 
ENDROOT
BRANCH   1   2
HETATM    2  N1  UNL     1      26.646   0.991  53.314  1.00  0.00    -0.322 N 
HETATM    3  C3  UNL     1      27.318   0.370  54.370  1.00  0.00     0.242 C 
HETATM    4  O1  UNL     1      26.782  -0.260  55.297  1.00  0.00    -0.269 OA
HETATM    5  H4  UNL     1      27.304   1.407  52.674  1.00  0.00     0.169 HD
BRANCH   3   6
HETATM    6  C2  UNL     1      28.738   0.335  54.606  1.00  0.00     0.065 C 
HETATM    7  C1  UNL     1      29.405  -0.360  53.655  1.00  0.00     0.019 C 
ENDBRANCH   3   6
ENDBRANCH   1   2
BRANCH   1   8
HETATM    8  C5  UNL     1      24.323   0.098  53.267  1.00  0.00     0.025 C 
BRANCH   8   9
HETATM    9  C6  UNL     1      23.277  -0.816  53.626  1.00  0.00     0.167 C 
BRANCH   9  10
HETATM   10  N2  UNL     1      22.135  -0.087  54.203  1.00  0.00    -0.219 N 
HETATM   11  H8  UNL     1      22.123   0.248  55.208  1.00  0.00     0.178 HD
BRANCH  10  12
HETATM   12  C7  UNL     1      20.978   0.191  53.392  1.00  0.00     0.721 A 
HETATM   13  N3  UNL     1      20.058  -0.703  53.534  1.00  0.00    -0.076 NA
HETATM   14  C8  UNL     1      18.789  -0.750  52.894  1.00  0.00     0.133 A 
HETATM   15  C9  UNL     1      18.324   0.126  52.026  1.00  0.00     0.003 A 
HETATM   16  C10 UNL     1      18.795   1.358  51.402  1.00  0.00     0.047 A 
HETATM   17  C11 UNL     1      18.701   1.338  49.880  1.00  0.00     0.020 C 
HETATM   18  C12 UNL     1      20.129   1.801  51.803  1.00  0.00     0.117 A 
HETATM   19  N4  UNL     1      21.051   1.373  52.597  1.00  0.00    -0.079 NA
ENDBRANCH  10  12
ENDBRANCH   9  10
ENDBRANCH   8   9
ENDBRANCH   1   8
BRANCH   1  20
HETATM   20  C13 UNL     1      24.684   2.232  52.581  1.00  0.00     0.056 C 
HETATM   21  C14 UNL     1      24.104   3.180  53.338  1.00  0.00     0.034 C 
HETATM   22  C15 UNL     1      23.565   4.376  52.661  1.00  0.00     0.302 C 
HETATM   23  N5  UNL     1      22.882   4.144  51.431  1.00  0.00     0.110 N 
HETATM   24  C16 UNL     1      23.555   3.226  50.546  1.00  0.00     0.324 C 
HETATM   25  H19 UNL     1      21.929   3.796  51.635  1.00  0.00     0.319 HD
HETATM   26  C17 UNL     1      23.891   3.856  49.242  1.00  0.00     0.093 C 
HETATM   27  N7  UNL     1      24.722   2.629  51.214  1.00  0.00    -0.349 N 
HETATM   28  C18 UNL     1      25.258   4.415  49.081  1.00  0.00     0.227 C 
HETATM   29  C21 UNL     1      26.288   3.920  50.054  1.00  0.00     0.055 C 
HETATM   30  C22 UNL     1      25.955   2.469  50.484  1.00  0.00     0.127 C 
BRANCH  28  31
HETATM   31  N6  UNL     1      25.342   5.837  48.934  1.00  0.00     0.084 N 
HETATM   32  C19 UNL     1      24.136   6.336  48.300  1.00  0.00     0.309 C 
HETATM   33  C20 UNL     1      25.572   6.591  50.117  1.00  0.00     0.309 C 
ENDBRANCH  28  31
ENDBRANCH   1  20
TORSDOF 8
ENDMDL
MODEL 3
REMARK VINA RESULT:      -7.7      2.099      7.220
REMARK  8 active torsions:
REMARK  status: ('A' for Active; 'I' for Inactive)
REMARK    1  A    between atoms: C2_2  and  C3_3 
REMARK       I    between atoms: C3_3  and  N1_5 
REMARK    2  A    between atoms: N1_5  and  C4_6 
REMARK    3  A    between atoms: C4_6  and  C5_7 
REMARK    4  A    between atoms: C4_6  and  C13_18 
REMARK    5  A    between atoms: C5_7  and  C6_8 
REMARK    6  A    between atoms: C6_8  and  N2_9 
REMARK    7  A    between atoms: N2_9  and  C7_10 
REMARK    8  A    between atoms: C18_24  and  N6_25 
ROOT
HETATM    1  C4  UNL     1      24.238   0.575  52.652  1.00  0.00     0.059 C 
ENDROOT
BRANCH   1   2
HETATM    2  N1  UNL     1      25.617   0.280  52.646  1.00  0.00    -0.322 N 
HETATM    3  C3  UNL     1      26.573   0.715  53.569  1.00  0.00     0.242 C 
HETATM    4  O1  UNL     1      26.350   1.442  54.552  1.00  0.00    -0.269 OA
HETATM    5  H4  UNL     1      26.041  -0.326  51.962  1.00  0.00     0.169 HD
BRANCH   3   6
HETATM    6  C2  UNL     1      27.983   0.425  53.575  1.00  0.00     0.065 C 
HETATM    7  C1  UNL     1      28.451   0.151  54.815  1.00  0.00     0.019 C 
ENDBRANCH   3   6
ENDBRANCH   1   2
BRANCH   1   8
HETATM    8  C5  UNL     1      23.251   0.119  53.400  1.00  0.00     0.025 C 
BRANCH   8   9
HETATM    9  C6  UNL     1      22.141  -0.500  54.066  1.00  0.00     0.167 C 
BRANCH   9  10
HETATM   10  N2  UNL     1      21.073   0.485  54.304  1.00  0.00    -0.219 N 
HETATM   11  H8  UNL     1      20.912   0.933  55.250  1.00  0.00     0.178 HD
BRANCH  10  12
HETATM   12  C7  UNL     1      20.198   0.870  53.226  1.00  0.00     0.721 A 
HETATM   13  N3  UNL     1      19.575  -0.142  52.720  1.00  0.00    -0.076 NA
HETATM   14  C8  UNL     1      18.639  -0.136  51.650  1.00  0.00     0.133 A 
HETATM   15  C9  UNL     1      18.239   0.922  50.974  1.00  0.00     0.003 A 
HETATM   16  C10 UNL     1      18.509   2.356  50.984  1.00  0.00     0.047 A 
HETATM   17  C11 UNL     1      18.904   2.906  49.618  1.00  0.00     0.020 C 
HETATM   18  C12 UNL     1      19.466   2.812  51.990  1.00  0.00     0.117 A 
HETATM   19  N4  UNL     1      20.175   2.262  52.916  1.00  0.00    -0.079 NA
ENDBRANCH  10  12
ENDBRANCH   9  10
ENDBRANCH   8   9
ENDBRANCH   1   8
BRANCH   1  20
HETATM   20  C13 UNL     1      23.755   1.517  51.684  1.00  0.00     0.056 C 
HETATM   21  C14 UNL     1      22.845   1.233  50.736  1.00  0.00     0.034 C 
HETATM   22  C15 UNL     1      22.445   2.311  49.811  1.00  0.00     0.302 C 
HETATM   23  N5  UNL     1      23.494   3.157  49.346  1.00  0.00     0.110 N 
HETATM   24  C16 UNL     1      24.411   3.581  50.374  1.00  0.00     0.324 C 
HETATM   25  H19 UNL     1      24.014   2.670  48.596  1.00  0.00     0.319 HD
HETATM   26  C17 UNL     1      24.448   5.061  50.511  1.00  0.00     0.093 C 
HETATM   27  N7  UNL     1      24.116   2.894  51.642  1.00  0.00    -0.349 N 
HETATM   28  C18 UNL     1      23.591   5.677  51.556  1.00  0.00     0.227 C 
HETATM   29  C21 UNL     1      23.113   4.755  52.640  1.00  0.00     0.055 C 
HETATM   30  C22 UNL     1      24.156   3.633  52.879  1.00  0.00     0.127 C 
BRANCH  28  31
HETATM   31  N6  UNL     1      22.519   6.501  51.084  1.00  0.00     0.084 N 
HETATM   32  C19 UNL     1      23.005   7.385  50.040  1.00  0.00     0.309 C 
HETATM   33  C20 UNL     1      21.360   5.834  50.605  1.00  0.00     0.309 C 
ENDBRANCH  28  31
ENDBRANCH   1  20
TORSDOF 8
ENDMDL
MODEL 4
REMARK VINA RESULT:      -7.5      2.513      4.517
REMARK  8 active torsions:
REMARK  status: ('A' for Active; 'I' for Inactive)
REMARK    1  A    between atoms: C2_2  and  C3_3 
REMARK       I    between atoms: C3_3  and  N1_5 
REMARK    2  A    between atoms: N1_5  and  C4_6 
REMARK    3  A    between atoms: C4_6  and  C5_7 
REMARK    4  A    between atoms: C4_6  and  C13_18 
REMARK    5  A    between atoms: C5_7  and  C6_8 
REMARK    6  A    between atoms: C6_8  and  N2_9 
REMARK    7  A    between atoms: N2_9  and  C7_10 
REMARK    8  A    between atoms: C18_24  and  N6_25 
ROOT
HETATM    1  C4  UNL     1      24.566   4.284  51.069  1.00  0.00     0.059 C 
ENDROOT
BRANCH   1   2
HETATM    2  N1  UNL     1      25.614   4.866  50.327  1.00  0.00    -0.322 N 
HETATM    3  C3  UNL     1      26.533   4.203  49.507  1.00  0.00     0.242 C 
HETATM    4  O1  UNL     1      26.568   2.978  49.306  1.00  0.00    -0.269 OA
HETATM    5  H4  UNL     1      25.772   5.861  50.298  1.00  0.00     0.169 HD
BRANCH   3   6
HETATM    6  C2  UNL     1      27.608   4.784  48.747  1.00  0.00     0.065 C 
HETATM    7  C1  UNL     1      27.403   6.094  48.474  1.00  0.00     0.019 C 
ENDBRANCH   3   6
ENDBRANCH   1   2
BRANCH   1   8
HETATM    8  C5  UNL     1      24.579   3.499  52.130  1.00  0.00     0.025 C 
BRANCH   8   9
HETATM    9  C6  UNL     1      24.492   2.790  53.374  1.00  0.00     0.167 C 
BRANCH   9  10
HETATM   10  N2  UNL     1      25.819   2.700  54.006  1.00  0.00    -0.219 N 
HETATM   11  H8  UNL     1      26.175   3.428  54.688  1.00  0.00     0.178 HD
BRANCH  10  12
HETATM   12  C7  UNL     1      26.687   1.592  53.699  1.00  0.00     0.721 A 
HETATM   13  N3  UNL     1      26.026   0.524  53.402  1.00  0.00    -0.076 NA
HETATM   14  C8  UNL     1      26.550  -0.750  53.048  1.00  0.00     0.133 A 
HETATM   15  C9  UNL     1      27.826  -1.068  52.964  1.00  0.00     0.003 A 
HETATM   16  C10 UNL     1      29.106  -0.393  53.157  1.00  0.00     0.047 A 
HETATM   17  C11 UNL     1      30.040  -1.133  54.108  1.00  0.00     0.020 C 
HETATM   18  C12 UNL     1      29.027   1.014  53.544  1.00  0.00     0.117 A 
HETATM   19  N4  UNL     1      28.085   1.863  53.776  1.00  0.00    -0.079 NA
ENDBRANCH  10  12
ENDBRANCH   9  10
ENDBRANCH   8   9
ENDBRANCH   1   8
BRANCH   1  20
HETATM   20  C13 UNL     1      23.223   4.536  50.633  1.00  0.00     0.056 C 
HETATM   21  C14 UNL     1      22.579   5.705  50.796  1.00  0.00     0.034 C 
HETATM   22  C15 UNL     1      21.196   5.812  50.291  1.00  0.00     0.302 C 
HETATM   23  N5  UNL     1      20.361   4.677  50.509  1.00  0.00     0.110 N 
HETATM   24  C16 UNL     1      20.992   3.415  50.215  1.00  0.00     0.324 C 
HETATM   25  H19 UNL     1      20.033   4.682  51.490  1.00  0.00     0.319 HD
HETATM   26  C17 UNL     1      20.268   2.663  49.157  1.00  0.00     0.093 C 
HETATM   27  N7  UNL     1      22.418   3.612  49.908  1.00  0.00    -0.349 N 
HETATM   28  C18 UNL     1      20.758   2.797  47.761  1.00  0.00     0.227 C 
HETATM   29  C21 UNL     1      22.160   3.309  47.604  1.00  0.00     0.055 C 
HETATM   30  C22 UNL     1      23.020   2.880  48.821  1.00  0.00     0.127 C 
BRANCH  28  31
HETATM   31  N6  UNL     1      19.874   3.454  46.845  1.00  0.00     0.084 N 
HETATM   32  C19 UNL     1      18.498   3.223  47.243  1.00  0.00     0.309 C 
HETATM   33  C20 UNL     1      20.062   4.851  46.664  1.00  0.00     0.309 C 
ENDBRANCH  28  31
ENDBRANCH   1  20
TORSDOF 8
ENDMDL
MODEL 5
REMARK VINA RESULT:      -7.4      2.420      4.810
REMARK  8 active torsions:
REMARK  status: ('A' for Active; 'I' for Inactive)
REMARK    1  A    between atoms: C2_2  and  C3_3 
REMARK       I    between atoms: C3_3  and  N1_5 
REMARK    2  A    between atoms: N1_5  and  C4_6 
REMARK    3  A    between atoms: C4_6  and  C5_7 
REMARK    4  A    between atoms: C4_6  and  C13_18 
REMARK    5  A    between atoms: C5_7  and  C6_8 
REMARK    6  A    between atoms: C6_8  and  N2_9 
REMARK    7  A    between atoms: N2_9  and  C7_10 
REMARK    8  A    between atoms: C18_24  and  N6_25 
ROOT
HETATM    1  C4  UNL     1      22.836   1.260  51.924  1.00  0.00     0.059 C 
ENDROOT
BRANCH   1   2
HETATM    2  N1  UNL     1      22.530   0.102  52.667  1.00  0.00    -0.322 N 
HETATM    3  C3  UNL     1      21.530  -0.036  53.634  1.00  0.00     0.242 C 
HETATM    4  O1  UNL     1      20.746   0.857  53.994  1.00  0.00    -0.269 OA
HETATM    5  H4  UNL     1      23.009  -0.774  52.529  1.00  0.00     0.169 HD
BRANCH   3   6
HETATM    6  C2  UNL     1      21.208  -1.210  54.401  1.00  0.00     0.065 C 
HETATM    7  C1  UNL     1      22.280  -1.707  55.064  1.00  0.00     0.019 C 
ENDBRANCH   3   6
ENDBRANCH   1   2
BRANCH   1   8
HETATM    8  C5  UNL     1      23.829   2.125  52.023  1.00  0.00     0.025 C 
BRANCH   8   9
HETATM    9  C6  UNL     1      24.962   2.963  52.290  1.00  0.00     0.167 C 
BRANCH   9  10
HETATM   10  N2  UNL     1      25.473   2.715  53.649  1.00  0.00    -0.219 N 
HETATM   11  H8  UNL     1      25.006   3.109  54.514  1.00  0.00     0.178 HD
BRANCH  10  12
HETATM   12  C7  UNL     1      26.654   1.912  53.836  1.00  0.00     0.721 A 
HETATM   13  N3  UNL     1      27.734   2.619  53.803  1.00  0.00    -0.076 NA
HETATM   14  C8  UNL     1      29.073   2.164  53.952  1.00  0.00     0.133 A 
HETATM   15  C9  UNL     1      29.452   0.917  54.148  1.00  0.00     0.003 A 
HETATM   16  C10 UNL     1      28.803  -0.383  54.287  1.00  0.00     0.047 A 
HETATM   17  C11 UNL     1      29.365  -1.441  53.344  1.00  0.00     0.020 C 
HETATM   18  C12 UNL     1      27.344  -0.375  54.198  1.00  0.00     0.117 A 
HETATM   19  N4  UNL     1      26.429   0.515  54.017  1.00  0.00    -0.079 NA
ENDBRANCH  10  12
ENDBRANCH   9  10
ENDBRANCH   8   9
ENDBRANCH   1   8
BRANCH   1  20
HETATM   20  C13 UNL     1      21.938   1.630  50.868  1.00  0.00     0.056 C 
HETATM   21  C14 UNL     1      21.504   0.791  49.912  1.00  0.00     0.034 C 
HETATM   22  C15 UNL     1      20.578   1.320  48.891  1.00  0.00     0.302 C 
HETATM   23  N5  UNL     1      20.867   2.627  48.401  1.00  0.00     0.110 N 
HETATM   24  C16 UNL     1      21.210   3.579  49.427  1.00  0.00     0.324 C 
HETATM   25  H19 UNL     1      21.636   2.566  47.711  1.00  0.00     0.319 HD
HETATM   26  C17 UNL     1      20.274   4.734  49.449  1.00  0.00     0.093 C 
HETATM   27  N7  UNL     1      21.328   2.910  50.733  1.00  0.00    -0.349 N 
HETATM   28  C18 UNL     1      19.143   4.684  50.410  1.00  0.00     0.227 C 
HETATM   29  C21 UNL     1      19.287   3.711  51.544  1.00  0.00     0.055 C 
HETATM   30  C22 UNL     1      20.785   3.542  51.909  1.00  0.00     0.127 C 
BRANCH  28  31
HETATM   31  N6  UNL     1      17.833   4.600  49.836  1.00  0.00     0.084 N 
HETATM   32  C19 UNL     1      17.854   5.145  48.491  1.00  0.00     0.309 C 
HETATM   33  C20 UNL     1      17.235   3.311  49.789  1.00  0.00     0.309 C 
ENDBRANCH  28  31
ENDBRANCH   1  20
TORSDOF 8
ENDMDL
MODEL 6
REMARK VINA RESULT:      -7.4      2.199      6.867
REMARK  8 active torsions:
REMARK  status: ('A' for Active; 'I' for Inactive)
REMARK    1  A    between atoms: C2_2  and  C3_3 
REMARK       I    between atoms: C3_3  and  N1_5 
REMARK    2  A    between atoms: N1_5  and  C4_6 
REMARK    3  A    between atoms: C4_6  and  C5_7 
REMARK    4  A    between atoms: C4_6  and  C13_18 
REMARK    5  A    between atoms: C5_7  and  C6_8 
REMARK    6  A    between atoms: C6_8  and  N2_9 
REMARK    7  A    between atoms: N2_9  and  C7_10 
REMARK    8  A    between atoms: C18_24  and  N6_25 
ROOT
HETATM    1  C4  UNL     1      23.070   1.853  52.825  1.00  0.00     0.059 C 
ENDROOT
BRANCH   1   2
HETATM    2  N1  UNL     1      22.457   0.752  53.458  1.00  0.00    -0.322 N 
HETATM    3  C3  UNL     1      21.317   0.065  53.031  1.00  0.00     0.242 C 
HETATM    4  O1  UNL     1      20.656   0.325  52.011  1.00  0.00    -0.269 OA
HETATM    5  H4  UNL     1      22.830   0.328  54.293  1.00  0.00     0.169 HD
BRANCH   3   6
HETATM    6  C2  UNL     1      20.679  -1.057  53.667  1.00  0.00     0.065 C 
HETATM    7  C1  UNL     1      21.517  -1.733  54.489  1.00  0.00     0.019 C 
ENDBRANCH   3   6
ENDBRANCH   1   2
BRANCH   1   8
HETATM    8  C5  UNL     1      22.579   3.007  52.412  1.00  0.00     0.025 C 
BRANCH   8   9
HETATM    9  C6  UNL     1      21.870   4.185  52.002  1.00  0.00     0.167 C 
BRANCH   9  10
HETATM   10  N2  UNL     1      22.732   5.372  52.127  1.00  0.00    -0.219 N 
HETATM   11  H8  UNL     1      22.860   5.889  53.042  1.00  0.00     0.178 HD
BRANCH  10  12
HETATM   12  C7  UNL     1      23.439   5.870  50.975  1.00  0.00     0.721 A 
HETATM   13  N3  UNL     1      24.389   6.681  51.300  1.00  0.00    -0.076 NA
HETATM   14  C8  UNL     1      25.287   7.358  50.429  1.00  0.00     0.133 A 
HETATM   15  C9  UNL     1      25.302   7.276  49.114  1.00  0.00     0.003 A 
HETATM   16  C10 UNL     1      24.543   6.576  48.082  1.00  0.00     0.047 A 
HETATM   17  C11 UNL     1      24.010   7.501  46.994  1.00  0.00     0.020 C 
HETATM   18  C12 UNL     1      23.465   5.715  48.564  1.00  0.00     0.117 A 
HETATM   19  N4  UNL     1      22.976   5.393  49.713  1.00  0.00    -0.079 NA
ENDBRANCH  10  12
ENDBRANCH   9  10
ENDBRANCH   8   9
ENDBRANCH   1   8
BRANCH   1  20
HETATM   20  C13 UNL     1      24.471   1.758  52.535  1.00  0.00     0.056 C 
HETATM   21  C14 UNL     1      25.184   2.714  51.912  1.00  0.00     0.034 C 
HETATM   22  C15 UNL     1      26.622   2.470  51.685  1.00  0.00     0.302 C 
HETATM   23  N5  UNL     1      26.977   1.151  51.279  1.00  0.00     0.110 N 
HETATM   24  C16 UNL     1      26.320   0.106  52.023  1.00  0.00     0.324 C 
HETATM   25  H19 UNL     1      26.772   1.042  50.270  1.00  0.00     0.319 HD
HETATM   26  C17 UNL     1      27.292  -0.777  52.720  1.00  0.00     0.093 C 
HETATM   27  N7  UNL     1      25.310   0.678  52.930  1.00  0.00    -0.349 N 
HETATM   28  C18 UNL     1      27.594  -0.479  54.143  1.00  0.00     0.227 C 
HETATM   29  C21 UNL     1      26.598   0.385  54.859  1.00  0.00     0.055 C 
HETATM   30  C22 UNL     1      25.182   0.160  54.270  1.00  0.00     0.127 C 
BRANCH  28  31
HETATM   31  N6  UNL     1      28.932  -0.049  54.424  1.00  0.00     0.084 N 
HETATM   32  C19 UNL     1      29.869  -0.806  53.615  1.00  0.00     0.309 C 
HETATM   33  C20 UNL     1      29.209   1.334  54.257  1.00  0.00     0.309 C 
ENDBRANCH  28  31
ENDBRANCH   1  20
TORSDOF 8
ENDMDL
MODEL 7
REMARK VINA RESULT:      -7.3      2.208      5.372
REMARK  8 active torsions:
REMARK  status: ('A' for Active; 'I' for Inactive)
REMARK    1  A    between atoms: C2_2  and  C3_3 
REMARK       I    between atoms: C3_3  and  N1_5 
REMARK    2  A    between atoms: N1_5  and  C4_6 
REMARK    3  A    between atoms: C4_6  and  C5_7 
REMARK    4  A    between atoms: C4_6  and  C13_18 
REMARK    5  A    between atoms: C5_7  and  C6_8 
REMARK    6  A    between atoms: C6_8  and  N2_9 
REMARK    7  A    between atoms: N2_9  and  C7_10 
REMARK    8  A    between atoms: C18_24  and  N6_25 
ROOT
HETATM    1  C4  UNL     1      21.684   0.727  51.702  1.00  0.00     0.059 C 
ENDROOT
BRANCH   1   2
HETATM    2  N1  UNL     1      20.296   0.483  51.662  1.00  0.00    -0.322 N 
HETATM    3  C3  UNL     1      19.547  -0.259  52.581  1.00  0.00     0.242 C 
HETATM    4  O1  UNL     1      19.998  -0.827  53.589  1.00  0.00    -0.269 OA
HETATM    5  H4  UNL     1      19.696   0.871  50.952  1.00  0.00     0.169 HD
BRANCH   3   6
HETATM    6  C2  UNL     1      18.132  -0.518  52.552  1.00  0.00     0.065 C 
HETATM    7  C1  UNL     1      17.783  -1.583  53.311  1.00  0.00     0.019 C 
ENDBRANCH   3   6
ENDBRANCH   1   2
BRANCH   1   8
HETATM    8  C5  UNL     1      22.644   0.193  52.434  1.00  0.00     0.025 C 
BRANCH   8   9
HETATM    9  C6  UNL     1      23.723  -0.503  53.075  1.00  0.00     0.167 C 
BRANCH   9  10
HETATM   10  N2  UNL     1      24.386   0.372  54.056  1.00  0.00    -0.219 N 
HETATM   11  H8  UNL     1      23.866   0.825  54.860  1.00  0.00     0.178 HD
BRANCH  10  12
HETATM   12  C7  UNL     1      25.796   0.642  53.938  1.00  0.00     0.721 A 
HETATM   13  N3  UNL     1      26.042   1.588  53.094  1.00  0.00    -0.076 NA
HETATM   14  C8  UNL     1      27.311   2.116  52.729  1.00  0.00     0.133 A 
HETATM   15  C9  UNL     1      28.479   1.721  53.193  1.00  0.00     0.003 A 
HETATM   16  C10 UNL     1      28.965   0.725  54.144  1.00  0.00     0.047 A 
HETATM   17  C11 UNL     1      30.040  -0.188  53.566  1.00  0.00     0.020 C 
HETATM   18  C12 UNL     1      27.935  -0.083  54.795  1.00  0.00     0.117 A 
HETATM   19  N4  UNL     1      26.649  -0.161  54.751  1.00  0.00    -0.079 NA
ENDBRANCH  10  12
ENDBRANCH   9  10
ENDBRANCH   8   9
ENDBRANCH   1   8
BRANCH   1  20
HETATM   20  C13 UNL     1      22.208   1.736  50.828  1.00  0.00     0.056 C 
HETATM   21  C14 UNL     1      22.222   1.645  49.486  1.00  0.00     0.034 C 
HETATM   22  C15 UNL     1      22.795   2.770  48.720  1.00  0.00     0.302 C 
HETATM   23  N5  UNL     1      23.980   3.353  49.256  1.00  0.00     0.110 N 
HETATM   24  C16 UNL     1      23.936   3.580  50.678  1.00  0.00     0.324 C 
HETATM   25  H19 UNL     1      24.788   2.749  49.025  1.00  0.00     0.319 HD
HETATM   26  C17 UNL     1      24.111   5.016  51.019  1.00  0.00     0.093 C 
HETATM   27  N7  UNL     1      22.713   2.997  51.255  1.00  0.00    -0.349 N 
HETATM   28  C18 UNL     1      22.885   5.825  51.238  1.00  0.00     0.227 C 
HETATM   29  C21 UNL     1      21.630   5.052  51.523  1.00  0.00     0.055 C 
HETATM   30  C22 UNL     1      21.978   3.731  52.255  1.00  0.00     0.127 C 
BRANCH  28  31
HETATM   31  N6  UNL     1      22.635   6.860  50.279  1.00  0.00     0.084 N 
HETATM   32  C19 UNL     1      23.895   7.381  49.782  1.00  0.00     0.309 C 
HETATM   33  C20 UNL     1      21.819   6.519  49.166  1.00  0.00     0.309 C 
ENDBRANCH  28  31
ENDBRANCH   1  20
TORSDOF 8
ENDMDL
MODEL 8
REMARK VINA RESULT:      -7.2      1.692      2.179
REMARK  8 active torsions:
REMARK  status: ('A' for Active; 'I' for Inactive)
REMARK    1  A    between atoms: C2_2  and  C3_3 
REMARK       I    between atoms: C3_3  and  N1_5 
REMARK    2  A    between atoms: N1_5  and  C4_6 
REMARK    3  A    between atoms: C4_6  and  C5_7 
REMARK    4  A    between atoms: C4_6  and  C13_18 
REMARK    5  A    between atoms: C5_7  and  C6_8 
REMARK    6  A    between atoms: C6_8  and  N2_9 
REMARK    7  A    between atoms: N2_9  and  C7_10 
REMARK    8  A    between atoms: C18_24  and  N6_25 
ROOT
HETATM    1  C4  UNL     1      23.456   3.996  49.341  1.00  0.00     0.059 C 
ENDROOT
BRANCH   1   2
HETATM    2  N1  UNL     1      22.870   5.174  48.836  1.00  0.00    -0.322 N 
HETATM    3  C3  UNL     1      22.374   5.379  47.544  1.00  0.00     0.242 C 
HETATM    4  O1  UNL     1      22.377   4.539  46.628  1.00  0.00    -0.269 OA
HETATM    5  H4  UNL     1      22.721   5.994  49.403  1.00  0.00     0.169 HD
BRANCH   3   6
HETATM    6  C2  UNL     1      21.776   6.575  47.014  1.00  0.00     0.065 C 
HETATM    7  C1  UNL     1      22.505   7.121  46.012  1.00  0.00     0.019 C 
ENDBRANCH   3   6
ENDBRANCH   1   2
BRANCH   1   8
HETATM    8  C5  UNL     1      24.718   3.668  49.549  1.00  0.00     0.025 C 
BRANCH   8   9
HETATM    9  C6  UNL     1      26.109   3.316  49.578  1.00  0.00     0.167 C 
BRANCH   9  10
HETATM   10  N2  UNL     1      26.651   3.486  50.937  1.00  0.00    -0.219 N 
HETATM   11  H8  UNL     1      26.774   4.437  51.386  1.00  0.00     0.178 HD
BRANCH  10  12
HETATM   12  C7  UNL     1      27.039   2.331  51.704  1.00  0.00     0.721 A 
HETATM   13  N3  UNL     1      26.264   1.321  51.491  1.00  0.00    -0.076 NA
HETATM   14  C8  UNL     1      26.347   0.025  52.071  1.00  0.00     0.133 A 
HETATM   15  C9  UNL     1      27.245  -0.377  52.948  1.00  0.00     0.003 A 
HETATM   16  C10 UNL     1      28.395   0.204  53.635  1.00  0.00     0.047 A 
HETATM   17  C11 UNL     1      28.341   0.034  55.149  1.00  0.00     0.020 C 
HETATM   18  C12 UNL     1      28.689   1.598  53.310  1.00  0.00     0.117 A 
HETATM   19  N4  UNL     1      28.180   2.501  52.543  1.00  0.00    -0.079 NA
ENDBRANCH  10  12
ENDBRANCH   9  10
ENDBRANCH   8   9
ENDBRANCH   1   8
BRANCH   1  20
HETATM   20  C13 UNL     1      22.581   2.916  49.695  1.00  0.00     0.056 C 
HETATM   21  C14 UNL     1      22.280   1.886  48.885  1.00  0.00     0.034 C 
HETATM   22  C15 UNL     1      21.362   0.847  49.394  1.00  0.00     0.302 C 
HETATM   23  N5  UNL     1      20.245   1.314  50.147  1.00  0.00     0.110 N 
HETATM   24  C16 UNL     1      20.570   2.331  51.116  1.00  0.00     0.324 C 
HETATM   25  H19 UNL     1      19.525   1.671  49.496  1.00  0.00     0.319 HD
HETATM   26  C17 UNL     1      20.228   1.910  52.500  1.00  0.00     0.093 C 
HETATM   27  N7  UNL     1      21.973   2.749  50.972  1.00  0.00    -0.349 N 
HETATM   28  C18 UNL     1      21.311   1.318  53.326  1.00  0.00     0.227 C 
HETATM   29  C21 UNL     1      22.713   1.592  52.864  1.00  0.00     0.055 C 
HETATM   30  C22 UNL     1      22.776   2.967  52.150  1.00  0.00     0.127 C 
BRANCH  28  31
HETATM   31  N6  UNL     1      21.154  -0.063  53.673  1.00  0.00     0.084 N 
HETATM   32  C19 UNL     1      19.814  -0.504  53.331  1.00  0.00     0.309 C 
HETATM   33  C20 UNL     1      22.085  -0.976  53.108  1.00  0.00     0.309 C 
ENDBRANCH  28  31
ENDBRANCH   1  20
TORSDOF 8
ENDMDL
MODEL 9
REMARK VINA RESULT:      -7.1      2.659      4.970
REMARK  8 active torsions:
REMARK  status: ('A' for Active; 'I' for Inactive)
REMARK    1  A    between atoms: C2_2  and  C3_3 
REMARK       I    between atoms: C3_3  and  N1_5 
REMARK    2  A    between atoms: N1_5  and  C4_6 
REMARK    3  A    between atoms: C4_6  and  C5_7 
REMARK    4  A    between atoms: C4_6  and  C13_18 
REMARK    5  A    between atoms: C5_7  and  C6_8 
REMARK    6  A    between atoms: C6_8  and  N2_9 
REMARK    7  A    between atoms: N2_9  and  C7_10 
REMARK    8  A    between atoms: C18_24  and  N6_25 
ROOT
HETATM    1  C4  UNL     1      24.608   3.600  49.960  1.00  0.00     0.059 C 
ENDROOT
BRANCH   1   2
HETATM    2  N1  UNL     1      25.856   3.738  49.319  1.00  0.00    -0.322 N 
HETATM    3  C3  UNL     1      26.595   4.915  49.162  1.00  0.00     0.242 C 
HETATM    4  O1  UNL     1      26.257   6.039  49.568  1.00  0.00    -0.269 OA
HETATM    5  H4  UNL     1      26.359   2.954  48.934  1.00  0.00     0.169 HD
BRANCH   3   6
HETATM    6  C2  UNL     1      27.868   5.071  48.509  1.00  0.00     0.065 C 
HETATM    7  C1  UNL     1      28.104   6.349  48.130  1.00  0.00     0.019 C 
ENDBRANCH   3   6
ENDBRANCH   1   2
BRANCH   1   8
HETATM    8  C5  UNL     1      24.289   3.481  51.235  1.00  0.00     0.025 C 
BRANCH   8   9
HETATM    9  C6  UNL     1      23.765   3.416  52.569  1.00  0.00     0.167 C 
BRANCH   9  10
HETATM   10  N2  UNL     1      24.856   3.235  53.540  1.00  0.00    -0.219 N 
HETATM   11  H8  UNL     1      25.139   3.990  54.228  1.00  0.00     0.178 HD
BRANCH  10  12
HETATM   12  C7  UNL     1      25.587   1.994  53.575  1.00  0.00     0.721 A 
HETATM   13  N3  UNL     1      26.838   2.173  53.837  1.00  0.00    -0.076 NA
HETATM   14  C8  UNL     1      27.851   1.181  53.950  1.00  0.00     0.133 A 
HETATM   15  C9  UNL     1      27.685  -0.118  53.801  1.00  0.00     0.003 A 
HETATM   16  C10 UNL     1      26.579  -1.022  53.500  1.00  0.00     0.047 A 
HETATM   17  C11 UNL     1      26.868  -1.963  52.335  1.00  0.00     0.020 C 
HETATM   18  C12 UNL     1      25.278  -0.386  53.303  1.00  0.00     0.117 A 
HETATM   19  N4  UNL     1      24.820   0.819  53.321  1.00  0.00    -0.079 NA
ENDBRANCH  10  12
ENDBRANCH   9  10
ENDBRANCH   8   9
ENDBRANCH   1   8
BRANCH   1  20
HETATM   20  C13 UNL     1      23.437   3.558  49.133  1.00  0.00     0.056 C 
HETATM   21  C14 UNL     1      22.703   2.452  48.911  1.00  0.00     0.034 C 
HETATM   22  C15 UNL     1      21.521   2.567  48.035  1.00  0.00     0.302 C 
HETATM   23  N5  UNL     1      21.680   3.377  46.872  1.00  0.00     0.110 N 
HETATM   24  C16 UNL     1      22.352   4.629  47.112  1.00  0.00     0.324 C 
HETATM   25  H19 UNL     1      22.195   2.838  46.154  1.00  0.00     0.319 HD
HETATM   26  C17 UNL     1      21.502   5.794  46.751  1.00  0.00     0.093 C 
HETATM   27  N7  UNL     1      22.851   4.689  48.496  1.00  0.00    -0.349 N 
HETATM   28  C18 UNL     1      20.725   6.442  47.839  1.00  0.00     0.227 C 
HETATM   29  C21 UNL     1      21.187   6.154  49.238  1.00  0.00     0.055 C 
HETATM   30  C22 UNL     1      22.718   5.911  49.249  1.00  0.00     0.127 C 
BRANCH  28  31
HETATM   31  N6  UNL     1      19.300   6.331  47.745  1.00  0.00     0.084 N 
HETATM   32  C19 UNL     1      18.911   6.184  46.354  1.00  0.00     0.309 C 
HETATM   33  C20 UNL     1      18.687   5.290  48.494  1.00  0.00     0.309 C 
ENDBRANCH  28  31
ENDBRANCH   1  20
TORSDOF 8
ENDMDL
