MODEL 1
REMARK VINA RESULT:      -8.3      0.000      0.000
REMARK  1 active torsions:
REMARK  status: ('A' for Active; 'I' for Inactive)
REMARK    1  A    between atoms: C5_6  and  C6_7 
ROOT
HETATM    1  C6  UNL     1      24.568   1.032  52.840  1.00  0.00     0.073 C 
HETATM    2  N1  UNL     1      23.652   0.172  53.139  1.00  0.00    -0.263 NA
HETATM    3  C7  UNL     1      22.298   0.490  52.996  1.00  0.00     0.376 C 
HETATM    4  N2  UNL     1      21.150   0.045  52.518  1.00  0.00    -0.293 NA
HETATM    5  C8  UNL     1      20.019   0.909  52.693  1.00  0.00     0.051 C 
HETATM    6  C9  UNL     1      19.603   1.950  52.001  1.00  0.00     0.010 C 
HETATM    7  C10 UNL     1      20.100   2.621  50.822  1.00  0.00    -0.003 C 
HETATM    8  C11 UNL     1      21.120   2.466  49.967  1.00  0.00    -0.026 C 
HETATM    9  C12 UNL     1      22.293   1.686  49.589  1.00  0.00     0.031 C 
HETATM   10  C13 UNL     1      23.605   2.437  49.675  1.00  0.00     0.039 C 
HETATM   11  C14 UNL     1      23.803   2.792  51.122  1.00  0.00    -0.060 C 
HETATM   12  C15 UNL     1      24.159   2.359  52.355  1.00  0.00    -0.020 C 
HETATM   13  C16 UNL     1      24.241   3.670  53.048  1.00  0.00     0.041 A 
HETATM   14  C17 UNL     1      23.294   4.704  53.122  1.00  0.00     0.016 A 
HETATM   15  C18 UNL     1      23.262   3.914  51.923  1.00  0.00     0.009 A 
ENDROOT
BRANCH   1  16
HETATM   16  C5  UNL     1      25.918   0.555  53.040  1.00  0.00     0.034 A 
HETATM   17  C4  UNL     1      26.326  -0.821  52.838  1.00  0.00     0.037 A 
HETATM   18  C3  UNL     1      27.619  -0.985  53.081  1.00  0.00     0.024 A 
HETATM   19  C2  UNL     1      28.140   0.329  53.469  1.00  0.00     0.011 A 
HETATM   20 BR1  UNL     1      28.684  -2.571  52.976  1.00  0.00    -0.050 Br
HETATM   21  C1  UNL     1      29.396   0.587  53.793  1.00  0.00     0.028 C 
HETATM   22  C19 UNL     1      26.987   1.208  53.407  1.00  0.00     0.139 A 
HETATM   23  F1  UNL     1      27.125   2.505  53.702  1.00  0.00    -0.204 F 
ENDBRANCH   1  16
TORSDOF 1
ENDMDL
MODEL 2
REMARK VINA RESULT:      -8.3      3.136      4.460
REMARK  1 active torsions:
REMARK  status: ('A' for Active; 'I' for Inactive)
REMARK    1  A    between atoms: C5_6  and  C6_7 
ROOT
HETATM    1  C6  UNL     1      23.948   3.042  51.875  1.00  0.00     0.073 C 
HETATM    2  N1  UNL     1      23.320   4.046  52.392  1.00  0.00    -0.263 NA
HETATM    3  C7  UNL     1      23.290   5.283  51.740  1.00  0.00     0.376 C 
HETATM    4  N2  UNL     1      22.490   6.262  51.362  1.00  0.00    -0.293 NA
HETATM    5  C8  UNL     1      23.113   7.353  50.669  1.00  0.00     0.051 C 
HETATM    6  C9  UNL     1      23.457   7.498  49.406  1.00  0.00     0.010 C 
HETATM    7  C10 UNL     1      23.348   6.647  48.243  1.00  0.00    -0.003 C 
HETATM    8  C11 UNL     1      22.859   5.432  47.964  1.00  0.00    -0.026 C 
HETATM    9  C12 UNL     1      22.185   4.239  48.464  1.00  0.00     0.031 C 
HETATM   10  C13 UNL     1      23.015   2.974  48.405  1.00  0.00     0.039 C 
HETATM   11  C14 UNL     1      24.191   3.189  49.316  1.00  0.00    -0.060 C 
HETATM   12  C15 UNL     1      24.642   3.227  50.593  1.00  0.00    -0.020 C 
HETATM   13  C16 UNL     1      26.102   3.287  50.323  1.00  0.00     0.041 A 
HETATM   14  C17 UNL     1      26.824   4.163  49.498  1.00  0.00     0.016 A 
HETATM   15  C18 UNL     1      25.478   3.884  49.082  1.00  0.00     0.009 A 
ENDROOT
BRANCH   1  16
HETATM   16  C5  UNL     1      23.885   1.833  52.666  1.00  0.00     0.034 A 
HETATM   17  C4  UNL     1      22.656   1.125  52.963  1.00  0.00     0.037 A 
HETATM   18  C3  UNL     1      22.883   0.044  53.697  1.00  0.00     0.024 A 
HETATM   19  C2  UNL     1      24.329  -0.008  53.924  1.00  0.00     0.011 A 
HETATM   20 BR1  UNL     1      21.644  -1.248  54.372  1.00  0.00    -0.050 Br
HETATM   21  C1  UNL     1      24.960  -0.942  54.617  1.00  0.00     0.028 C 
HETATM   22  C19 UNL     1      24.847   1.158  53.235  1.00  0.00     0.139 A 
HETATM   23  F1  UNL     1      26.162   1.404  53.242  1.00  0.00    -0.204 F 
ENDBRANCH   1  16
TORSDOF 1
ENDMDL
MODEL 3
REMARK VINA RESULT:      -8.3      3.832      5.119
REMARK  1 active torsions:
REMARK  status: ('A' for Active; 'I' for Inactive)
REMARK    1  A    between atoms: C5_6  and  C6_7 
ROOT
HETATM    1  C6  UNL     1      24.299   3.514  49.808  1.00  0.00     0.073 C 
HETATM    2  N1  UNL     1      23.495   3.127  48.872  1.00  0.00    -0.263 NA
HETATM    3  C7  UNL     1      22.401   2.306  49.163  1.00  0.00     0.376 C 
HETATM    4  N2  UNL     1      21.106   2.155  48.959  1.00  0.00    -0.293 NA
HETATM    5  C8  UNL     1      20.499   1.014  49.582  1.00  0.00     0.051 C 
HETATM    6  C9  UNL     1      20.061   0.824  50.810  1.00  0.00     0.010 C 
HETATM    7  C10 UNL     1      20.013   1.660  51.988  1.00  0.00    -0.003 C 
HETATM    8  C11 UNL     1      20.351   2.915  52.309  1.00  0.00    -0.026 C 
HETATM    9  C12 UNL     1      20.905   4.187  51.859  1.00  0.00     0.031 C 
HETATM   10  C13 UNL     1      22.206   4.581  52.528  1.00  0.00     0.039 C 
HETATM   11  C14 UNL     1      23.218   3.538  52.145  1.00  0.00    -0.060 C 
HETATM   12  C15 UNL     1      24.047   3.064  51.185  1.00  0.00    -0.020 C 
HETATM   13  C16 UNL     1      24.811   2.083  51.999  1.00  0.00     0.041 A 
HETATM   14  C17 UNL     1      24.344   1.051  52.827  1.00  0.00     0.016 A 
HETATM   15  C18 UNL     1      23.485   2.197  52.716  1.00  0.00     0.009 A 
ENDROOT
BRANCH   1  16
HETATM   16  C5  UNL     1      25.378   4.359  49.350  1.00  0.00     0.034 A 
HETATM   17  C4  UNL     1      25.235   5.776  49.079  1.00  0.00     0.037 A 
HETATM   18  C3  UNL     1      26.381   6.312  48.682  1.00  0.00     0.024 A 
HETATM   19  C2  UNL     1      27.368   5.228  48.674  1.00  0.00     0.011 A 
HETATM   20 BR1  UNL     1      26.772   8.121  48.196  1.00  0.00    -0.050 Br
HETATM   21  C1  UNL     1      28.640   5.356  48.334  1.00  0.00     0.028 C 
HETATM   22  C19 UNL     1      26.626   4.060  49.108  1.00  0.00     0.139 A 
HETATM   23  F1  UNL     1      27.249   2.881  49.217  1.00  0.00    -0.204 F 
ENDBRANCH   1  16
TORSDOF 1
ENDMDL
MODEL 4
REMARK VINA RESULT:      -8.3      3.922      5.300
REMARK  1 active torsions:
REMARK  status: ('A' for Active; 'I' for Inactive)
REMARK    1  A    between atoms: C5_6  and  C6_7 
ROOT
HETATM    1  C6  UNL     1      24.804   3.718  49.663  1.00  0.00     0.073 C 
HETATM    2  N1  UNL     1      23.940   3.341  48.779  1.00  0.00    -0.263 NA
HETATM    3  C7  UNL     1      22.945   2.414  49.101  1.00  0.00     0.376 C 
HETATM    4  N2  UNL     1      21.650   2.174  49.009  1.00  0.00    -0.293 NA
HETATM    5  C8  UNL     1      21.195   0.943  49.587  1.00  0.00     0.051 C 
HETATM    6  C9  UNL     1      20.899   0.622  50.830  1.00  0.00     0.010 C 
HETATM    7  C10 UNL     1      20.910   1.357  52.074  1.00  0.00    -0.003 C 
HETATM    8  C11 UNL     1      21.186   2.607  52.468  1.00  0.00    -0.026 C 
HETATM    9  C12 UNL     1      21.597   3.950  52.079  1.00  0.00     0.031 C 
HETATM   10  C13 UNL     1      22.926   4.395  52.652  1.00  0.00     0.039 C 
HETATM   11  C14 UNL     1      23.968   3.471  52.087  1.00  0.00    -0.060 C 
HETATM   12  C15 UNL     1      24.728   3.143  51.014  1.00  0.00    -0.020 C 
HETATM   13  C16 UNL     1      25.640   2.168  51.665  1.00  0.00     0.041 A 
HETATM   14  C17 UNL     1      25.336   1.039  52.442  1.00  0.00     0.016 A 
HETATM   15  C18 UNL     1      24.389   2.117  52.512  1.00  0.00     0.009 A 
ENDROOT
BRANCH   1  16
HETATM   16  C5  UNL     1      25.767   4.682  49.179  1.00  0.00     0.034 A 
HETATM   17  C4  UNL     1      27.175   4.393  48.995  1.00  0.00     0.037 A 
HETATM   18  C3  UNL     1      27.830   5.448  48.530  1.00  0.00     0.024 A 
HETATM   19  C2  UNL     1      26.842   6.520  48.381  1.00  0.00     0.011 A 
HETATM   20 BR1  UNL     1      29.687   5.636  48.107  1.00  0.00    -0.050 Br
HETATM   21  C1  UNL     1      27.100   7.741  47.941  1.00  0.00     0.028 C 
HETATM   22  C19 UNL     1      25.593   5.924  48.816  1.00  0.00     0.139 A 
HETATM   23  F1  UNL     1      24.469   6.649  48.797  1.00  0.00    -0.204 F 
ENDBRANCH   1  16
TORSDOF 1
ENDMDL
MODEL 5
REMARK VINA RESULT:      -8.2      3.590      5.325
REMARK  1 active torsions:
REMARK  status: ('A' for Active; 'I' for Inactive)
REMARK    1  A    between atoms: C5_6  and  C6_7 
ROOT
HETATM    1  C6  UNL     1      22.298   2.682  51.846  1.00  0.00     0.073 C 
HETATM    2  N1  UNL     1      21.733   3.790  52.197  1.00  0.00    -0.263 NA
HETATM    3  C7  UNL     1      22.166   5.011  51.672  1.00  0.00     0.376 C 
HETATM    4  N2  UNL     1      21.746   6.136  51.124  1.00  0.00    -0.293 NA
HETATM    5  C8  UNL     1      22.765   7.081  50.768  1.00  0.00     0.051 C 
HETATM    6  C9  UNL     1      23.545   7.163  49.709  1.00  0.00     0.010 C 
HETATM    7  C10 UNL     1      23.685   6.362  48.515  1.00  0.00    -0.003 C 
HETATM    8  C11 UNL     1      23.101   5.274  47.994  1.00  0.00    -0.026 C 
HETATM    9  C12 UNL     1      22.083   4.241  48.145  1.00  0.00     0.031 C 
HETATM   10  C13 UNL     1      22.626   2.833  48.270  1.00  0.00     0.039 C 
HETATM   11  C14 UNL     1      23.434   2.795  49.537  1.00  0.00    -0.060 C 
HETATM   12  C15 UNL     1      23.415   2.731  50.890  1.00  0.00    -0.020 C 
HETATM   13  C16 UNL     1      24.861   2.493  51.132  1.00  0.00     0.041 A 
HETATM   14  C17 UNL     1      25.976   3.209  50.669  1.00  0.00     0.016 A 
HETATM   15  C18 UNL     1      24.829   3.215  49.804  1.00  0.00     0.009 A 
ENDROOT
BRANCH   1  16
HETATM   16  C5  UNL     1      21.739   1.506  52.473  1.00  0.00     0.034 A 
HETATM   17  C4  UNL     1      20.359   1.089  52.321  1.00  0.00     0.037 A 
HETATM   18  C3  UNL     1      20.112  -0.027  52.993  1.00  0.00     0.024 A 
HETATM   19  C2  UNL     1      21.369  -0.409  53.643  1.00  0.00     0.011 A 
HETATM   20 BR1  UNL     1      18.482  -1.017  53.147  1.00  0.00    -0.050 Br
HETATM   21  C1  UNL     1      21.539  -1.472  54.411  1.00  0.00     0.028 C 
HETATM   22  C19 UNL     1      22.309   0.622  53.246  1.00  0.00     0.139 A 
HETATM   23  F1  UNL     1      23.576   0.565  53.672  1.00  0.00    -0.204 F 
ENDBRANCH   1  16
TORSDOF 1
ENDMDL
MODEL 6
REMARK VINA RESULT:      -8.1      3.537      5.618
REMARK  1 active torsions:
REMARK  status: ('A' for Active; 'I' for Inactive)
REMARK    1  A    between atoms: C5_6  and  C6_7 
ROOT
HETATM    1  C6  UNL     1      23.077   1.518  51.274  1.00  0.00     0.073 C 
HETATM    2  N1  UNL     1      24.325   1.552  51.610  1.00  0.00    -0.263 NA
HETATM    3  C7  UNL     1      25.234   2.343  50.902  1.00  0.00     0.376 C 
HETATM    4  N2  UNL     1      26.207   3.225  51.045  1.00  0.00    -0.293 NA
HETATM    5  C8  UNL     1      26.798   3.712  49.832  1.00  0.00     0.051 C 
HETATM    6  C9  UNL     1      26.418   4.658  48.998  1.00  0.00     0.010 C 
HETATM    7  C10 UNL     1      25.289   5.561  48.968  1.00  0.00    -0.003 C 
HETATM    8  C11 UNL     1      24.226   5.821  49.739  1.00  0.00    -0.026 C 
HETATM    9  C12 UNL     1      23.492   5.506  50.959  1.00  0.00     0.031 C 
HETATM   10  C13 UNL     1      22.107   4.936  50.733  1.00  0.00     0.039 C 
HETATM   11  C14 UNL     1      22.293   3.626  50.019  1.00  0.00    -0.060 C 
HETATM   12  C15 UNL     1      22.634   2.319  50.123  1.00  0.00    -0.020 C 
HETATM   13  C16 UNL     1      22.212   1.860  48.775  1.00  0.00     0.041 A 
HETATM   14  C17 UNL     1      22.538   2.376  47.511  1.00  0.00     0.016 A 
HETATM   15  C18 UNL     1      22.504   3.331  48.583  1.00  0.00     0.009 A 
ENDROOT
BRANCH   1  16
HETATM   16  C5  UNL     1      22.264   0.656  52.101  1.00  0.00     0.034 A 
HETATM   17  C4  UNL     1      20.827   0.522  51.960  1.00  0.00     0.037 A 
HETATM   18  C3  UNL     1      20.331  -0.341  52.836  1.00  0.00     0.024 A 
HETATM   19  C2  UNL     1      21.465  -0.831  53.625  1.00  0.00     0.011 A 
HETATM   20 BR1  UNL     1      18.521  -0.899  53.100  1.00  0.00    -0.050 Br
HETATM   21  C1  UNL     1      21.387  -1.712  54.609  1.00  0.00     0.028 C 
HETATM   22  C19 UNL     1      22.615  -0.139  53.076  1.00  0.00     0.139 A 
HETATM   23  F1  UNL     1      23.833  -0.372  53.578  1.00  0.00    -0.204 F 
ENDBRANCH   1  16
TORSDOF 1
ENDMDL
MODEL 7
REMARK VINA RESULT:      -8.1      8.047     10.336
REMARK  1 active torsions:
REMARK  status: ('A' for Active; 'I' for Inactive)
REMARK    1  A    between atoms: C5_6  and  C6_7 
ROOT
HETATM    1  C6  UNL     1      28.870   5.993  48.002  1.00  0.00     0.073 C 
HETATM    2  N1  UNL     1      29.673   4.987  48.129  1.00  0.00    -0.263 NA
HETATM    3  C7  UNL     1      31.011   5.087  47.740  1.00  0.00     0.376 C 
HETATM    4  N2  UNL     1      32.249   4.839  48.128  1.00  0.00    -0.293 NA
HETATM    5  C8  UNL     1      33.283   5.202  47.203  1.00  0.00     0.051 C 
HETATM    6  C9  UNL     1      33.869   6.357  46.962  1.00  0.00     0.010 C 
HETATM    7  C10 UNL     1      33.714   7.683  47.516  1.00  0.00    -0.003 C 
HETATM    8  C11 UNL     1      32.972   8.264  48.468  1.00  0.00    -0.026 C 
HETATM    9  C12 UNL     1      31.954   8.097  49.498  1.00  0.00     0.031 C 
HETATM   10  C13 UNL     1      30.665   8.850  49.241  1.00  0.00     0.039 C 
HETATM   11  C14 UNL     1      30.073   8.270  47.987  1.00  0.00    -0.060 C 
HETATM   12  C15 UNL     1      29.391   7.243  47.427  1.00  0.00    -0.020 C 
HETATM   13  C16 UNL     1      29.114   7.843  46.097  1.00  0.00     0.041 A 
HETATM   14  C17 UNL     1      29.998   8.432  45.179  1.00  0.00     0.016 A 
HETATM   15  C18 UNL     1      30.366   8.552  46.562  1.00  0.00     0.009 A 
ENDROOT
BRANCH   1  16
HETATM   16  C5  UNL     1      27.521   5.735  48.450  1.00  0.00     0.034 A 
HETATM   17  C4  UNL     1      27.096   4.491  49.060  1.00  0.00     0.037 A 
HETATM   18  C3  UNL     1      25.812   4.524  49.386  1.00  0.00     0.024 A 
HETATM   19  C2  UNL     1      25.314   5.843  48.989  1.00  0.00     0.011 A 
HETATM   20 BR1  UNL     1      24.733   3.175  50.211  1.00  0.00    -0.050 Br
HETATM   21  C1  UNL     1      24.072   6.270  49.146  1.00  0.00     0.028 C 
HETATM   22  C19 UNL     1      26.469   6.508  48.417  1.00  0.00     0.139 A 
HETATM   23  F1  UNL     1      26.354   7.759  47.955  1.00  0.00    -0.204 F 
ENDBRANCH   1  16
TORSDOF 1
ENDMDL
MODEL 8
REMARK VINA RESULT:      -7.9      3.477      5.179
REMARK  1 active torsions:
REMARK  status: ('A' for Active; 'I' for Inactive)
REMARK    1  A    between atoms: C5_6  and  C6_7 
ROOT
HETATM    1  C6  UNL     1      24.993   3.233  50.455  1.00  0.00     0.073 C 
HETATM    2  N1  UNL     1      26.065   3.916  50.218  1.00  0.00    -0.263 NA
HETATM    3  C7  UNL     1      26.028   5.036  49.382  1.00  0.00     0.376 C 
HETATM    4  N2  UNL     1      26.408   6.296  49.283  1.00  0.00    -0.293 NA
HETATM    5  C8  UNL     1      26.032   6.974  48.076  1.00  0.00     0.051 C 
HETATM    6  C9  UNL     1      24.906   7.560  47.721  1.00  0.00     0.010 C 
HETATM    7  C10 UNL     1      23.636   7.752  48.383  1.00  0.00    -0.003 C 
HETATM    8  C11 UNL     1      23.101   7.457  49.575  1.00  0.00    -0.026 C 
HETATM    9  C12 UNL     1      23.295   6.853  50.888  1.00  0.00     0.031 C 
HETATM   10  C13 UNL     1      22.424   5.645  51.162  1.00  0.00     0.039 C 
HETATM   11  C14 UNL     1      22.825   4.592  50.167  1.00  0.00    -0.060 C 
HETATM   12  C15 UNL     1      23.735   3.651  49.820  1.00  0.00    -0.020 C 
HETATM   13  C16 UNL     1      22.982   2.992  48.721  1.00  0.00     0.041 A 
HETATM   14  C17 UNL     1      22.372   3.556  47.590  1.00  0.00     0.016 A 
HETATM   15  C18 UNL     1      22.422   4.396  48.755  1.00  0.00     0.009 A 
ENDROOT
BRANCH   1  16
HETATM   16  C5  UNL     1      25.192   2.106  51.339  1.00  0.00     0.034 A 
HETATM   17  C4  UNL     1      26.477   1.476  51.566  1.00  0.00     0.037 A 
HETATM   18  C3  UNL     1      26.380   0.473  52.429  1.00  0.00     0.024 A 
HETATM   19  C2  UNL     1      24.971   0.397  52.822  1.00  0.00     0.011 A 
HETATM   20 BR1  UNL     1      27.742  -0.697  53.089  1.00  0.00    -0.050 Br
HETATM   21  C1  UNL     1      24.462  -0.478  53.674  1.00  0.00     0.028 C 
HETATM   22  C19 UNL     1      24.329   1.464  52.078  1.00  0.00     0.139 A 
HETATM   23  F1  UNL     1      23.015   1.675  52.219  1.00  0.00    -0.204 F 
ENDBRANCH   1  16
TORSDOF 1
ENDMDL
MODEL 9
REMARK VINA RESULT:      -7.8      3.949      5.086
REMARK  1 active torsions:
REMARK  status: ('A' for Active; 'I' for Inactive)
REMARK    1  A    between atoms: C5_6  and  C6_7 
ROOT
HETATM    1  C6  UNL     1      24.405   4.049  49.976  1.00  0.00     0.073 C 
HETATM    2  N1  UNL     1      24.695   3.111  50.817  1.00  0.00    -0.263 NA
HETATM    3  C7  UNL     1      23.689   2.326  51.387  1.00  0.00     0.376 C 
HETATM    4  N2  UNL     1      23.340   1.081  51.654  1.00  0.00    -0.293 NA
HETATM    5  C8  UNL     1      22.076   0.908  52.310  1.00  0.00     0.051 C 
HETATM    6  C9  UNL     1      20.847   0.873  51.836  1.00  0.00     0.010 C 
HETATM    7  C10 UNL     1      20.293   0.989  50.506  1.00  0.00    -0.003 C 
HETATM    8  C11 UNL     1      20.763   1.147  49.262  1.00  0.00    -0.026 C 
HETATM    9  C12 UNL     1      21.934   1.293  48.405  1.00  0.00     0.031 C 
HETATM   10  C13 UNL     1      22.030   2.623  47.687  1.00  0.00     0.039 C 
HETATM   11  C14 UNL     1      22.171   3.676  48.751  1.00  0.00    -0.060 C 
HETATM   12  C15 UNL     1      22.993   4.283  49.640  1.00  0.00    -0.020 C 
HETATM   13  C16 UNL     1      22.119   5.420  50.026  1.00  0.00     0.041 A 
HETATM   14  C17 UNL     1      20.790   5.414  50.478  1.00  0.00     0.016 A 
HETATM   15  C18 UNL     1      21.148   4.350  49.583  1.00  0.00     0.009 A 
ENDROOT
BRANCH   1  16
HETATM   16  C5  UNL     1      25.553   4.771  49.474  1.00  0.00     0.034 A 
HETATM   17  C4  UNL     1      25.598   6.211  49.323  1.00  0.00     0.037 A 
HETATM   18  C3  UNL     1      26.770   6.614  48.852  1.00  0.00     0.024 A 
HETATM   19  C2  UNL     1      27.581   5.407  48.666  1.00  0.00     0.011 A 
HETATM   20 BR1  UNL     1      27.379   8.385  48.462  1.00  0.00    -0.050 Br
HETATM   21  C1  UNL     1      28.822   5.384  48.209  1.00  0.00     0.028 C 
HETATM   22  C19 UNL     1      26.716   4.322  49.086  1.00  0.00     0.139 A 
HETATM   23  F1  UNL     1      27.164   3.062  49.046  1.00  0.00    -0.204 F 
ENDBRANCH   1  16
TORSDOF 1
ENDMDL
