MODEL 1
REMARK VINA RESULT:      -8.3      0.000      0.000
REMARK  3 active torsions:
REMARK  status: ('A' for Active; 'I' for Inactive)
REMARK    1  A    between atoms: C3_3  and  S1_4 
REMARK    2  A    between atoms: C5_6  and  N1_7 
REMARK    3  A    between atoms: C16_19  and  O1_20 
ROOT
HETATM    1  N1  UNL     1      24.435   1.251  52.787  1.00  0.00    -0.362 N 
HETATM    2  C6  UNL     1      24.987   0.023  52.890  1.00  0.00     0.151 C 
HETATM    3  C7  UNL     1      25.565  -1.287  53.017  1.00  0.00    -0.010 C 
HETATM    4  C8  UNL     1      26.952  -1.102  53.014  1.00  0.00    -0.012 C 
HETATM    5  C9  UNL     1      27.733   0.214  52.922  1.00  0.00     0.031 A 
HETATM    6  C10 UNL     1      28.691  -0.079  53.800  1.00  0.00    -0.010 A 
HETATM    7  C11 UNL     1      29.257   1.171  54.251  1.00  0.00    -0.004 A 
HETATM    8  C12 UNL     1      28.703   2.404  53.703  1.00  0.00     0.005 A 
HETATM    9  C13 UNL     1      27.712   1.866  52.837  1.00  0.00     0.065 A 
HETATM   10  C14 UNL     1      26.939   0.952  52.166  1.00  0.00     0.046 A 
HETATM   11  N2  UNL     1      26.469   2.728  52.991  1.00  0.00    -0.392 N 
HETATM   12  C15 UNL     1      25.028   2.634  52.805  1.00  0.00     0.242 C 
HETATM   13  H15 UNL     1      26.578   3.760  53.309  1.00  0.00     0.156 HD
ENDROOT
BRANCH   1  14
HETATM   14  C5  UNL     1      23.027   1.172  52.514  1.00  0.00     0.044 C 
HETATM   15  C4  UNL     1      22.005   0.788  53.544  1.00  0.00     0.105 C 
HETATM   16  C3  UNL     1      20.769   0.300  52.877  1.00  0.00    -0.015 C 
HETATM   17  C2  UNL     1      20.297   0.646  51.691  1.00  0.00    -0.046 C 
HETATM   18  C1  UNL     1      19.018  -0.088  51.463  1.00  0.00     0.046 C 
HETATM   19  C17 UNL     1      21.108   1.623  50.887  1.00  0.00     0.170 C 
HETATM   20  C16 UNL     1      22.501   1.513  51.371  1.00  0.00     0.088 C 
HETATM   21 CL1  UNL     1      20.975   1.306  49.154  1.00  0.00    -0.113 Cl
BRANCH  16  22
HETATM   22  S1  UNL     1      19.709  -0.900  53.693  1.00  0.00    -0.147 SA
HETATM   23  H4  UNL     1      20.403  -2.122  53.909  1.00  0.00     0.107 HD
ENDBRANCH  16  22
BRANCH  20  24
HETATM   24  O1  UNL     1      23.459   1.865  50.380  1.00  0.00    -0.361 OA
HETATM   25  H18 UNL     1      23.782   1.146  49.748  1.00  0.00     0.217 HD
ENDBRANCH  20  24
ENDBRANCH   1  14
TORSDOF 3
ENDMDL
MODEL 2
REMARK VINA RESULT:      -8.2      3.117      6.664
REMARK  3 active torsions:
REMARK  status: ('A' for Active; 'I' for Inactive)
REMARK    1  A    between atoms: C3_3  and  S1_4 
REMARK    2  A    between atoms: C5_6  and  N1_7 
REMARK    3  A    between atoms: C16_19  and  O1_20 
ROOT
HETATM    1  N1  UNL     1      24.281   0.297  52.574  1.00  0.00    -0.362 N 
HETATM    2  C6  UNL     1      23.724  -0.369  53.608  1.00  0.00     0.151 C 
HETATM    3  C7  UNL     1      23.137  -1.096  54.700  1.00  0.00    -0.010 C 
HETATM    4  C8  UNL     1      21.788  -0.724  54.734  1.00  0.00    -0.012 C 
HETATM    5  C9  UNL     1      21.047   0.240  53.801  1.00  0.00     0.031 A 
HETATM    6  C10 UNL     1      19.910  -0.448  53.693  1.00  0.00    -0.010 A 
HETATM    7  C11 UNL     1      19.250  -0.000  52.489  1.00  0.00    -0.004 A 
HETATM    8  C12 UNL     1      19.913   1.027  51.693  1.00  0.00     0.005 A 
HETATM    9  C13 UNL     1      21.081   1.231  52.477  1.00  0.00     0.065 A 
HETATM   10  C14 UNL     1      21.993   1.110  53.495  1.00  0.00     0.046 A 
HETATM   11  N2  UNL     1      22.251   1.353  51.513  1.00  0.00    -0.392 N 
HETATM   12  C15 UNL     1      23.696   1.173  51.499  1.00  0.00     0.242 C 
HETATM   13  H15 UNL     1      22.067   1.698  50.500  1.00  0.00     0.156 HD
ENDROOT
BRANCH   1  14
HETATM   14  C5  UNL     1      25.714   0.201  52.598  1.00  0.00     0.044 C 
HETATM   15  C4  UNL     1      26.467  -1.040  52.221  1.00  0.00     0.105 C 
HETATM   16  C3  UNL     1      27.827  -1.014  52.822  1.00  0.00    -0.015 C 
HETATM   17  C2  UNL     1      28.563   0.046  53.116  1.00  0.00    -0.046 C 
HETATM   18  C1  UNL     1      29.862  -0.428  53.678  1.00  0.00     0.046 C 
HETATM   19  C17 UNL     1      27.959   1.396  52.853  1.00  0.00     0.170 C 
HETATM   20  C16 UNL     1      26.493   1.213  52.867  1.00  0.00     0.088 C 
HETATM   21 CL1  UNL     1      28.496   2.590  54.039  1.00  0.00    -0.113 Cl
BRANCH  16  22
HETATM   22  S1  UNL     1      28.670  -2.547  53.231  1.00  0.00    -0.147 SA
HETATM   23  H4  UNL     1      29.727  -2.803  52.314  1.00  0.00     0.107 HD
ENDBRANCH  16  22
BRANCH  20  24
HETATM   24  O1  UNL     1      25.792   2.393  53.242  1.00  0.00    -0.361 OA
HETATM   25  H18 UNL     1      25.036   2.710  52.652  1.00  0.00     0.217 HD
ENDBRANCH  20  24
ENDBRANCH   1  14
TORSDOF 3
ENDMDL
MODEL 3
REMARK VINA RESULT:      -8.1      2.949      3.946
REMARK  3 active torsions:
REMARK  status: ('A' for Active; 'I' for Inactive)
REMARK    1  A    between atoms: C3_3  and  S1_4 
REMARK    2  A    between atoms: C5_6  and  N1_7 
REMARK    3  A    between atoms: C16_19  and  O1_20 
ROOT
HETATM    1  N1  UNL     1      26.239   1.560  52.330  1.00  0.00    -0.362 N 
HETATM    2  C6  UNL     1      27.364   1.975  52.953  1.00  0.00     0.151 C 
HETATM    3  C7  UNL     1      28.567   2.424  53.598  1.00  0.00    -0.010 C 
HETATM    4  C8  UNL     1      29.178   1.279  54.122  1.00  0.00    -0.012 C 
HETATM    5  C9  UNL     1      28.706  -0.176  54.026  1.00  0.00     0.031 A 
HETATM    6  C10 UNL     1      29.895  -0.743  53.829  1.00  0.00    -0.010 A 
HETATM    7  C11 UNL     1      29.661  -2.032  53.221  1.00  0.00    -0.004 A 
HETATM    8  C12 UNL     1      28.279  -2.419  52.961  1.00  0.00     0.005 A 
HETATM    9  C13 UNL     1      27.604  -1.268  53.453  1.00  0.00     0.065 A 
HETATM   10  C14 UNL     1      27.391  -0.038  54.022  1.00  0.00     0.046 A 
HETATM   11  N2  UNL     1      26.493  -0.946  52.465  1.00  0.00    -0.392 N 
HETATM   12  C15 UNL     1      25.689   0.191  52.038  1.00  0.00     0.242 C 
HETATM   13  H15 UNL     1      26.081  -1.743  51.855  1.00  0.00     0.156 HD
ENDROOT
BRANCH   1  14
HETATM   14  C5  UNL     1      25.394   2.667  51.982  1.00  0.00     0.044 C 
HETATM   15  C4  UNL     1      24.154   3.033  52.743  1.00  0.00     0.105 C 
HETATM   16  C3  UNL     1      23.249   3.843  51.885  1.00  0.00    -0.015 C 
HETATM   17  C2  UNL     1      23.582   4.653  50.894  1.00  0.00    -0.046 C 
HETATM   18  C1  UNL     1      22.335   5.262  50.348  1.00  0.00     0.046 C 
HETATM   19  C17 UNL     1      25.042   4.757  50.553  1.00  0.00     0.170 C 
HETATM   20  C16 UNL     1      25.675   3.508  51.026  1.00  0.00     0.088 C 
HETATM   21 CL1  UNL     1      25.288   5.019  48.823  1.00  0.00    -0.113 Cl
BRANCH  16  22
HETATM   22  S1  UNL     1      21.471   3.798  52.142  1.00  0.00    -0.147 SA
HETATM   23  H4  UNL     1      21.155   3.190  53.388  1.00  0.00     0.107 HD
ENDBRANCH  16  22
BRANCH  20  24
HETATM   24  O1  UNL     1      26.841   3.166  50.284  1.00  0.00    -0.361 OA
HETATM   25  H18 UNL     1      27.558   2.619  50.742  1.00  0.00     0.217 HD
ENDBRANCH  20  24
ENDBRANCH   1  14
TORSDOF 3
ENDMDL
MODEL 4
REMARK VINA RESULT:      -8.0      3.737      5.227
REMARK  3 active torsions:
REMARK  status: ('A' for Active; 'I' for Inactive)
REMARK    1  A    between atoms: C3_3  and  S1_4 
REMARK    2  A    between atoms: C5_6  and  N1_7 
REMARK    3  A    between atoms: C16_19  and  O1_20 
ROOT
HETATM    1  N1  UNL     1      24.486   3.340  51.963  1.00  0.00    -0.362 N 
HETATM    2  C6  UNL     1      25.341   3.264  50.920  1.00  0.00     0.151 C 
HETATM    3  C7  UNL     1      26.266   3.177  49.824  1.00  0.00    -0.010 C 
HETATM    4  C8  UNL     1      26.246   4.429  49.197  1.00  0.00    -0.012 C 
HETATM    5  C9  UNL     1      25.435   5.670  49.587  1.00  0.00     0.031 A 
HETATM    6  C10 UNL     1      26.374   6.585  49.351  1.00  0.00    -0.010 A 
HETATM    7  C11 UNL     1      26.022   7.766  50.103  1.00  0.00    -0.004 A 
HETATM    8  C12 UNL     1      24.809   7.720  50.911  1.00  0.00     0.005 A 
HETATM    9  C13 UNL     1      24.376   6.395  50.629  1.00  0.00     0.065 A 
HETATM   10  C14 UNL     1      24.337   5.134  50.090  1.00  0.00     0.046 A 
HETATM   11  N2  UNL     1      23.898   5.793  51.942  1.00  0.00    -0.392 N 
HETATM   12  C15 UNL     1      23.711   4.485  52.555  1.00  0.00     0.242 C 
HETATM   13  H15 UNL     1      23.540   6.452  52.727  1.00  0.00     0.156 HD
ENDROOT
BRANCH   1  14
HETATM   14  C5  UNL     1      24.223   2.044  52.522  1.00  0.00     0.044 C 
HETATM   15  C4  UNL     1      22.952   1.284  52.285  1.00  0.00     0.105 C 
HETATM   16  C3  UNL     1      22.754   0.274  53.359  1.00  0.00    -0.015 C 
HETATM   17  C2  UNL     1      23.682  -0.350  54.066  1.00  0.00    -0.046 C 
HETATM   18  C1  UNL     1      23.003  -1.287  55.007  1.00  0.00     0.046 C 
HETATM   19  C17 UNL     1      25.114   0.012  53.791  1.00  0.00     0.170 C 
HETATM   20  C16 UNL     1      25.101   1.373  53.214  1.00  0.00     0.088 C 
HETATM   21 CL1  UNL     1      26.101  -0.085  55.253  1.00  0.00    -0.113 Cl
BRANCH  16  22
HETATM   22  S1  UNL     1      21.098  -0.238  53.832  1.00  0.00    -0.147 SA
HETATM   23  H4  UNL     1      20.554   0.645  54.804  1.00  0.00     0.107 HD
ENDBRANCH  16  22
BRANCH  20  24
HETATM   24  O1  UNL     1      26.307   2.088  53.459  1.00  0.00    -0.361 OA
HETATM   25  H18 UNL     1      26.327   3.079  53.258  1.00  0.00     0.217 HD
ENDBRANCH  20  24
ENDBRANCH   1  14
TORSDOF 3
ENDMDL
MODEL 5
REMARK VINA RESULT:      -7.7      4.967      6.098
REMARK  3 active torsions:
REMARK  status: ('A' for Active; 'I' for Inactive)
REMARK    1  A    between atoms: C3_3  and  S1_4 
REMARK    2  A    between atoms: C5_6  and  N1_7 
REMARK    3  A    between atoms: C16_19  and  O1_20 
ROOT
HETATM    1  N1  UNL     1      24.988   5.015  49.882  1.00  0.00    -0.362 N 
HETATM    2  C6  UNL     1      26.194   4.854  49.295  1.00  0.00     0.151 C 
HETATM    3  C7  UNL     1      27.483   4.672  48.688  1.00  0.00    -0.010 C 
HETATM    4  C8  UNL     1      27.941   5.953  48.358  1.00  0.00    -0.012 C 
HETATM    5  C9  UNL     1      27.249   7.299  48.600  1.00  0.00     0.031 A 
HETATM    6  C10 UNL     1      28.327   7.999  48.953  1.00  0.00    -0.010 A 
HETATM    7  C11 UNL     1      27.868   9.148  49.698  1.00  0.00    -0.004 A 
HETATM    8  C12 UNL     1      26.431   9.294  49.904  1.00  0.00     0.005 A 
HETATM    9  C13 UNL     1      25.966   8.135  49.224  1.00  0.00     0.065 A 
HETATM   10  C14 UNL     1      25.973   6.975  48.491  1.00  0.00     0.046 A 
HETATM   11  N2  UNL     1      24.866   7.527  50.081  1.00  0.00    -0.392 N 
HETATM   12  C15 UNL     1      24.221   6.240  50.303  1.00  0.00     0.242 C 
HETATM   13  H15 UNL     1      24.305   8.167  50.754  1.00  0.00     0.156 HD
ENDROOT
BRANCH   1  14
HETATM   14  C5  UNL     1      24.302   3.762  50.027  1.00  0.00     0.044 C 
HETATM   15  C4  UNL     1      23.514   3.118  48.924  1.00  0.00     0.105 C 
HETATM   16  C3  UNL     1      22.534   2.155  49.493  1.00  0.00    -0.015 C 
HETATM   17  C2  UNL     1      22.637   1.462  50.616  1.00  0.00    -0.046 C 
HETATM   18  C1  UNL     1      21.418   0.613  50.755  1.00  0.00     0.046 C 
HETATM   19  C17 UNL     1      23.867   1.684  51.450  1.00  0.00     0.170 C 
HETATM   20  C16 UNL     1      24.376   3.027  51.101  1.00  0.00     0.088 C 
HETATM   21 CL1  UNL     1      23.519   1.527  53.175  1.00  0.00    -0.113 Cl
BRANCH  16  22
HETATM   22  S1  UNL     1      20.995   1.809  48.634  1.00  0.00    -0.147 SA
HETATM   23  H4  UNL     1      20.103   1.082  49.469  1.00  0.00     0.107 HD
ENDBRANCH  16  22
BRANCH  20  24
HETATM   24  O1  UNL     1      25.108   3.632  52.161  1.00  0.00    -0.361 OA
HETATM   25  H18 UNL     1      25.667   3.039  52.759  1.00  0.00     0.217 HD
ENDBRANCH  20  24
ENDBRANCH   1  14
TORSDOF 3
ENDMDL
MODEL 6
REMARK VINA RESULT:      -7.6      3.831      5.581
REMARK  3 active torsions:
REMARK  status: ('A' for Active; 'I' for Inactive)
REMARK    1  A    between atoms: C3_3  and  S1_4 
REMARK    2  A    between atoms: C5_6  and  N1_7 
REMARK    3  A    between atoms: C16_19  and  O1_20 
ROOT
HETATM    1  N1  UNL     1      24.780   2.276  52.129  1.00  0.00    -0.362 N 
HETATM    2  C6  UNL     1      23.595   1.654  51.948  1.00  0.00     0.151 C 
HETATM    3  C7  UNL     1      22.324   1.010  51.762  1.00  0.00    -0.010 C 
HETATM    4  C8  UNL     1      22.364  -0.158  52.533  1.00  0.00    -0.012 C 
HETATM    5  C9  UNL     1      23.502  -0.667  53.425  1.00  0.00     0.031 A 
HETATM    6  C10 UNL     1      22.757  -1.116  54.434  1.00  0.00    -0.010 A 
HETATM    7  C11 UNL     1      23.609  -1.189  55.598  1.00  0.00    -0.004 A 
HETATM    8  C12 UNL     1      25.001  -0.779  55.446  1.00  0.00     0.005 A 
HETATM    9  C13 UNL     1      25.006  -0.427  54.069  1.00  0.00     0.065 A 
HETATM   10  C14 UNL     1      24.571  -0.229  52.783  1.00  0.00     0.046 A 
HETATM   11  N2  UNL     1      25.813   0.855  53.939  1.00  0.00    -0.392 N 
HETATM   12  C15 UNL     1      25.944   1.994  53.040  1.00  0.00     0.242 C 
HETATM   13  H15 UNL     1      26.574   1.079  54.681  1.00  0.00     0.156 HD
ENDROOT
BRANCH   1  14
HETATM   14  C5  UNL     1      24.961   3.346  51.188  1.00  0.00     0.044 C 
HETATM   15  C4  UNL     1      25.837   3.242  49.975  1.00  0.00     0.105 C 
HETATM   16  C3  UNL     1      26.226   4.600  49.509  1.00  0.00    -0.015 C 
HETATM   17  C2  UNL     1      25.547   5.727  49.641  1.00  0.00    -0.046 C 
HETATM   18  C1  UNL     1      26.328   6.822  48.996  1.00  0.00     0.046 C 
HETATM   19  C17 UNL     1      24.238   5.659  50.376  1.00  0.00     0.170 C 
HETATM   20  C16 UNL     1      24.310   4.474  51.256  1.00  0.00     0.088 C 
HETATM   21 CL1  UNL     1      23.921   7.145  51.277  1.00  0.00    -0.113 Cl
BRANCH  16  22
HETATM   22  S1  UNL     1      27.782   4.854  48.647  1.00  0.00    -0.147 SA
HETATM   23  H4  UNL     1      28.260   6.178  48.848  1.00  0.00     0.107 HD
ENDBRANCH  16  22
BRANCH  20  24
HETATM   24  O1  UNL     1      23.486   4.593  52.410  1.00  0.00    -0.361 OA
HETATM   25  H18 UNL     1      23.765   5.240  53.135  1.00  0.00     0.217 HD
ENDBRANCH  20  24
ENDBRANCH   1  14
TORSDOF 3
ENDMDL
MODEL 7
REMARK VINA RESULT:      -7.5      2.970      3.545
REMARK  3 active torsions:
REMARK  status: ('A' for Active; 'I' for Inactive)
REMARK    1  A    between atoms: C3_3  and  S1_4 
REMARK    2  A    between atoms: C5_6  and  N1_7 
REMARK    3  A    between atoms: C16_19  and  O1_20 
ROOT
HETATM    1  N1  UNL     1      24.527   2.468  51.539  1.00  0.00    -0.362 N 
HETATM    2  C6  UNL     1      24.149   1.412  52.290  1.00  0.00     0.151 C 
HETATM    3  C7  UNL     1      23.737   0.300  53.103  1.00  0.00    -0.010 C 
HETATM    4  C8  UNL     1      24.913  -0.328  53.528  1.00  0.00    -0.012 C 
HETATM    5  C9  UNL     1      26.363   0.071  53.230  1.00  0.00     0.031 A 
HETATM    6  C10 UNL     1      26.875  -0.182  54.433  1.00  0.00    -0.010 A 
HETATM    7  C11 UNL     1      28.101   0.573  54.546  1.00  0.00    -0.004 A 
HETATM    8  C12 UNL     1      28.495   1.401  53.412  1.00  0.00     0.005 A 
HETATM    9  C13 UNL     1      27.419   1.130  52.523  1.00  0.00     0.065 A 
HETATM   10  C14 UNL     1      26.260   0.594  52.020  1.00  0.00     0.046 A 
HETATM   11  N2  UNL     1      27.026   2.452  51.881  1.00  0.00    -0.392 N 
HETATM   12  C15 UNL     1      25.873   3.071  51.242  1.00  0.00     0.242 C 
HETATM   13  H15 UNL     1      27.767   3.241  51.799  1.00  0.00     0.156 HD
ENDROOT
BRANCH   1  14
HETATM   14  C5  UNL     1      23.413   3.034  50.832  1.00  0.00     0.044 C 
HETATM   15  C4  UNL     1      22.801   2.408  49.613  1.00  0.00     0.105 C 
HETATM   16  C3  UNL     1      22.057   3.432  48.833  1.00  0.00    -0.015 C 
HETATM   17  C2  UNL     1      21.461   4.522  49.287  1.00  0.00    -0.046 C 
HETATM   18  C1  UNL     1      20.827   5.224  48.134  1.00  0.00     0.046 C 
HETATM   19  C17 UNL     1      21.565   4.799  50.761  1.00  0.00     0.170 C 
HETATM   20  C16 UNL     1      22.776   4.098  51.237  1.00  0.00     0.088 C 
HETATM   21 CL1  UNL     1      21.621   6.533  51.094  1.00  0.00    -0.113 Cl
BRANCH  16  22
HETATM   22  S1  UNL     1      21.876   3.265  47.053  1.00  0.00    -0.147 SA
HETATM   23  H4  UNL     1      22.918   3.954  46.373  1.00  0.00     0.107 HD
ENDBRANCH  16  22
BRANCH  20  24
HETATM   24  O1  UNL     1      23.354   4.711  52.383  1.00  0.00    -0.361 OA
HETATM   25  H18 UNL     1      23.144   5.683  52.565  1.00  0.00     0.217 HD
ENDBRANCH  20  24
ENDBRANCH   1  14
TORSDOF 3
ENDMDL
MODEL 8
REMARK VINA RESULT:      -7.5      4.718      6.564
REMARK  3 active torsions:
REMARK  status: ('A' for Active; 'I' for Inactive)
REMARK    1  A    between atoms: C3_3  and  S1_4 
REMARK    2  A    between atoms: C5_6  and  N1_7 
REMARK    3  A    between atoms: C16_19  and  O1_20 
ROOT
HETATM    1  N1  UNL     1      25.279   3.437  50.744  1.00  0.00    -0.362 N 
HETATM    2  C6  UNL     1      26.210   2.843  51.521  1.00  0.00     0.151 C 
HETATM    3  C7  UNL     1      27.210   2.203  52.331  1.00  0.00    -0.010 C 
HETATM    4  C8  UNL     1      26.515   1.414  53.255  1.00  0.00    -0.012 C 
HETATM    5  C9  UNL     1      25.000   1.225  53.391  1.00  0.00     0.031 A 
HETATM    6  C10 UNL     1      25.000  -0.081  53.654  1.00  0.00    -0.010 A 
HETATM    7  C11 UNL     1      23.684  -0.583  53.334  1.00  0.00    -0.004 A 
HETATM    8  C12 UNL     1      22.701   0.366  52.822  1.00  0.00     0.005 A 
HETATM    9  C13 UNL     1      23.480   1.555  52.829  1.00  0.00     0.065 A 
HETATM   10  C14 UNL     1      24.541   2.405  53.011  1.00  0.00     0.046 A 
HETATM   11  N2  UNL     1      23.172   2.298  51.538  1.00  0.00    -0.392 N 
HETATM   12  C15 UNL     1      23.785   3.282  50.655  1.00  0.00     0.242 C 
HETATM   13  H15 UNL     1      22.216   2.138  51.051  1.00  0.00     0.156 HD
ENDROOT
BRANCH   1  14
HETATM   14  C5  UNL     1      25.855   4.471  49.932  1.00  0.00     0.044 C 
HETATM   15  C4  UNL     1      26.947   4.228  48.934  1.00  0.00     0.105 C 
HETATM   16  C3  UNL     1      27.669   5.496  48.647  1.00  0.00    -0.015 C 
HETATM   17  C2  UNL     1      27.191   6.729  48.697  1.00  0.00    -0.046 C 
HETATM   18  C1  UNL     1      28.280   7.669  48.304  1.00  0.00     0.046 C 
HETATM   19  C17 UNL     1      25.760   6.895  49.125  1.00  0.00     0.170 C 
HETATM   20  C16 UNL     1      25.419   5.701  49.926  1.00  0.00     0.088 C 
HETATM   21 CL1  UNL     1      25.522   8.396  50.026  1.00  0.00    -0.113 Cl
BRANCH  16  22
HETATM   22  S1  UNL     1      29.397   5.470  48.159  1.00  0.00    -0.147 SA
HETATM   23  H4  UNL     1      30.237   5.250  49.285  1.00  0.00     0.107 HD
ENDBRANCH  16  22
BRANCH  20  24
HETATM   24  O1  UNL     1      24.392   5.950  50.880  1.00  0.00    -0.361 OA
HETATM   25  H18 UNL     1      24.040   6.893  50.971  1.00  0.00     0.217 HD
ENDBRANCH  20  24
ENDBRANCH   1  14
TORSDOF 3
ENDMDL
MODEL 9
REMARK VINA RESULT:      -7.2      3.595      5.347
REMARK  3 active torsions:
REMARK  status: ('A' for Active; 'I' for Inactive)
REMARK    1  A    between atoms: C3_3  and  S1_4 
REMARK    2  A    between atoms: C5_6  and  N1_7 
REMARK    3  A    between atoms: C16_19  and  O1_20 
ROOT
HETATM    1  N1  UNL     1      22.985   2.400  52.089  1.00  0.00    -0.362 N 
HETATM    2  C6  UNL     1      21.826   1.921  52.592  1.00  0.00     0.151 C 
HETATM    3  C7  UNL     1      20.592   1.429  53.139  1.00  0.00    -0.010 C 
HETATM    4  C8  UNL     1      20.890   0.193  53.722  1.00  0.00    -0.012 C 
HETATM    5  C9  UNL     1      22.248  -0.514  53.804  1.00  0.00     0.031 A 
HETATM    6  C10 UNL     1      22.136  -0.985  55.045  1.00  0.00    -0.010 A 
HETATM    7  C11 UNL     1      23.471  -1.258  55.523  1.00  0.00    -0.004 A 
HETATM    8  C12 UNL     1      24.584  -0.977  54.624  1.00  0.00     0.005 A 
HETATM    9  C13 UNL     1      23.872  -0.492  53.493  1.00  0.00     0.065 A 
HETATM   10  C14 UNL     1      22.828  -0.124  52.683  1.00  0.00     0.046 A 
HETATM   11  N2  UNL     1      24.640   0.710  52.964  1.00  0.00    -0.392 N 
HETATM   12  C15 UNL     1      24.405   1.913  52.177  1.00  0.00     0.242 C 
HETATM   13  H15 UNL     1      25.706   0.780  53.153  1.00  0.00     0.156 HD
ENDROOT
BRANCH   1  14
HETATM   14  C5  UNL     1      22.759   3.534  51.239  1.00  0.00     0.044 C 
HETATM   15  C4  UNL     1      21.971   3.469  49.964  1.00  0.00     0.105 C 
HETATM   16  C3  UNL     1      22.337   4.606  49.079  1.00  0.00    -0.015 C 
HETATM   17  C2  UNL     1      22.765   5.806  49.436  1.00  0.00    -0.046 C 
HETATM   18  C1  UNL     1      22.979   6.614  48.201  1.00  0.00     0.046 C 
HETATM   19  C17 UNL     1      22.944   6.062  50.907  1.00  0.00     0.170 C 
HETATM   20  C16 UNL     1      23.143   4.743  51.543  1.00  0.00     0.088 C 
HETATM   21 CL1  UNL     1      24.289   7.165  51.215  1.00  0.00    -0.113 Cl
BRANCH  16  22
HETATM   22  S1  UNL     1      22.215   4.446  47.293  1.00  0.00    -0.147 SA
HETATM   23  H4  UNL     1      23.482   4.141  46.726  1.00  0.00     0.107 HD
ENDBRANCH  16  22
BRANCH  20  24
HETATM   24  O1  UNL     1      23.905   4.818  52.742  1.00  0.00    -0.361 OA
HETATM   25  H18 UNL     1      23.810   4.074  53.419  1.00  0.00     0.217 HD
ENDBRANCH  20  24
ENDBRANCH   1  14
TORSDOF 3
ENDMDL
