MODEL 1
REMARK VINA RESULT:      -7.0      0.000      0.000
REMARK  5 active torsions:
REMARK  status: ('A' for Active; 'I' for Inactive)
REMARK    1  A    between atoms: O1_2  and  C2_3 
REMARK    2  A    between atoms: C5_6  and  C6_7 
REMARK    3  A    between atoms: N1_8  and  C7_9 
REMARK    4  A    between atoms: N3_12  and  C9_13 
REMARK    5  A    between atoms: C9_13  and  C10_14 
ROOT
HETATM    1  C7  UNL     1      27.169   0.949  52.308  1.00  0.00     0.733 C 
HETATM    2  N2  UNL     1      28.155   0.902  53.148  1.00  0.00    -0.088 NA
HETATM    3  C8  UNL     1      28.119  -0.394  53.830  1.00  0.00     0.283 C 
HETATM    4  N3  UNL     1      26.748  -0.761  53.673  1.00  0.00    -0.190 NA
HETATM    5  N4  UNL     1      26.432  -0.276  52.374  1.00  0.00    -0.146 N 
HETATM    6  H14 UNL     1      25.878  -0.500  51.507  1.00  0.00     0.200 HD
ENDROOT
BRANCH   1   7
HETATM    7  N1  UNL     1      27.087   2.159  51.577  1.00  0.00    -0.074 NA
HETATM    8  C6  UNL     1      26.038   2.492  50.905  1.00  0.00     0.147 C 
BRANCH   8   9
HETATM    9  C5  UNL     1      26.046   3.765  50.179  1.00  0.00    -0.018 A 
HETATM   10  C4  UNL     1      25.026   4.713  50.311  1.00  0.00     0.015 A 
HETATM   11  C3  UNL     1      25.052   5.907  49.619  1.00  0.00     0.037 A 
HETATM   12  C2  UNL     1      26.088   6.209  48.768  1.00  0.00     0.068 A 
HETATM   13  C15 UNL     1      27.118   5.285  48.615  1.00  0.00     0.037 A 
HETATM   14  C14 UNL     1      27.089   4.084  49.314  1.00  0.00     0.015 A 
BRANCH  12  15
HETATM   15  O1  UNL     1      26.251   7.344  48.018  1.00  0.00    -0.356 OA
HETATM   16  C1  UNL     1      27.459   7.778  47.442  1.00  0.00     0.210 C 
ENDBRANCH  12  15
ENDBRANCH   8   9
ENDBRANCH   1   7
BRANCH   4  17
HETATM   17  C9  UNL     1      25.909  -0.096  54.636  1.00  0.00     0.181 C 
BRANCH  17  18
HETATM   18  C10 UNL     1      24.519  -0.572  54.537  1.00  0.00     0.067 A 
HETATM   19  C11 UNL     1      23.668  -1.275  55.362  1.00  0.00     0.036 A 
HETATM   20  C12 UNL     1      22.448  -1.456  54.763  1.00  0.00     0.027 A 
HETATM   21  C13 UNL     1      22.610  -0.824  53.535  1.00  0.00     0.142 A 
HETATM   22  O2  UNL     1      23.817  -0.331  53.450  1.00  0.00    -0.326 OA
ENDBRANCH  17  18
ENDBRANCH   4  17
TORSDOF 5
ENDMDL
MODEL 2
REMARK VINA RESULT:      -6.7      1.774      3.180
REMARK  5 active torsions:
REMARK  status: ('A' for Active; 'I' for Inactive)
REMARK    1  A    between atoms: O1_2  and  C2_3 
REMARK    2  A    between atoms: C5_6  and  C6_7 
REMARK    3  A    between atoms: N1_8  and  C7_9 
REMARK    4  A    between atoms: N3_12  and  C9_13 
REMARK    5  A    between atoms: C9_13  and  C10_14 
ROOT
HETATM    1  C7  UNL     1      24.698   1.774  52.644  1.00  0.00     0.733 C 
HETATM    2  N2  UNL     1      23.768   1.006  52.168  1.00  0.00    -0.088 NA
HETATM    3  C8  UNL     1      23.564  -0.104  53.101  1.00  0.00     0.283 C 
HETATM    4  N3  UNL     1      24.816  -0.135  53.786  1.00  0.00    -0.190 NA
HETATM    5  N4  UNL     1      25.161   1.241  53.890  1.00  0.00    -0.146 N 
HETATM    6  H14 UNL     1      25.610   1.947  54.528  1.00  0.00     0.200 HD
ENDROOT
BRANCH   1   7
HETATM    7  N1  UNL     1      24.996   2.896  51.833  1.00  0.00    -0.074 NA
HETATM    8  C6  UNL     1      25.693   2.802  50.751  1.00  0.00     0.147 C 
BRANCH   8   9
HETATM    9  C5  UNL     1      25.951   4.019  49.977  1.00  0.00    -0.018 A 
HETATM   10  C4  UNL     1      25.047   5.085  49.927  1.00  0.00     0.015 A 
HETATM   11  C3  UNL     1      25.308   6.224  49.192  1.00  0.00     0.037 A 
HETATM   12  C2  UNL     1      26.474   6.352  48.477  1.00  0.00     0.068 A 
HETATM   13  C15 UNL     1      27.394   5.308  48.507  1.00  0.00     0.037 A 
HETATM   14  C14 UNL     1      27.128   4.163  49.248  1.00  0.00     0.015 A 
BRANCH  12  15
HETATM   15  O1  UNL     1      26.871   7.414  47.706  1.00  0.00    -0.356 OA
HETATM   16  C1  UNL     1      26.708   8.772  48.037  1.00  0.00     0.210 C 
ENDBRANCH  12  15
ENDBRANCH   8   9
ENDBRANCH   1   7
BRANCH   4  17
HETATM   17  C9  UNL     1      25.825  -0.812  53.014  1.00  0.00     0.181 C 
BRANCH  17  18
HETATM   18  C10 UNL     1      27.173  -0.476  53.502  1.00  0.00     0.067 A 
HETATM   19  C11 UNL     1      28.412  -0.326  52.917  1.00  0.00     0.036 A 
HETATM   20  C12 UNL     1      29.358  -0.000  53.855  1.00  0.00     0.027 A 
HETATM   21  C13 UNL     1      28.621   0.038  55.035  1.00  0.00     0.142 A 
HETATM   22  O2  UNL     1      27.371  -0.242  54.781  1.00  0.00    -0.326 OA
ENDBRANCH  17  18
ENDBRANCH   4  17
TORSDOF 5
ENDMDL
MODEL 3
REMARK VINA RESULT:      -6.7      2.654      7.850
REMARK  5 active torsions:
REMARK  status: ('A' for Active; 'I' for Inactive)
REMARK    1  A    between atoms: O1_2  and  C2_3 
REMARK    2  A    between atoms: C5_6  and  C6_7 
REMARK    3  A    between atoms: N1_8  and  C7_9 
REMARK    4  A    between atoms: N3_12  and  C9_13 
REMARK    5  A    between atoms: C9_13  and  C10_14 
ROOT
HETATM    1  C7  UNL     1      25.186   1.519  52.841  1.00  0.00     0.733 C 
HETATM    2  N2  UNL     1      26.069   0.590  52.649  1.00  0.00    -0.088 NA
HETATM    3  C8  UNL     1      27.354   1.227  52.353  1.00  0.00     0.283 C 
HETATM    4  N3  UNL     1      26.935   2.505  51.875  1.00  0.00    -0.190 NA
HETATM    5  N4  UNL     1      25.808   2.801  52.689  1.00  0.00    -0.146 N 
HETATM    6  H14 UNL     1      25.313   3.588  53.182  1.00  0.00     0.200 HD
ENDROOT
BRANCH   1   7
HETATM    7  N1  UNL     1      23.889   1.036  53.137  1.00  0.00    -0.074 NA
HETATM    8  C6  UNL     1      23.064   0.659  52.220  1.00  0.00     0.147 C 
BRANCH   8   9
HETATM    9  C5  UNL     1      21.742   0.173  52.624  1.00  0.00    -0.018 A 
HETATM   10  C4  UNL     1      21.561  -0.722  53.683  1.00  0.00     0.015 A 
HETATM   11  C3  UNL     1      20.307  -1.169  54.049  1.00  0.00     0.037 A 
HETATM   12  C2  UNL     1      19.183  -0.746  53.381  1.00  0.00     0.068 A 
HETATM   13  C15 UNL     1      19.331   0.146  52.322  1.00  0.00     0.037 A 
HETATM   14  C14 UNL     1      20.595   0.593  51.957  1.00  0.00     0.015 A 
BRANCH  12  15
HETATM   15  O1  UNL     1      17.882  -1.098  53.627  1.00  0.00    -0.356 OA
HETATM   16  C1  UNL     1      16.945  -1.498  52.656  1.00  0.00     0.210 C 
ENDBRANCH  12  15
ENDBRANCH   8   9
ENDBRANCH   1   7
BRANCH   4  17
HETATM   17  C9  UNL     1      26.514   2.444  50.500  1.00  0.00     0.181 C 
BRANCH  17  18
HETATM   18  C10 UNL     1      26.504   3.785  49.893  1.00  0.00     0.067 A 
HETATM   19  C11 UNL     1      27.268   4.432  48.946  1.00  0.00     0.036 A 
HETATM   20  C12 UNL     1      26.816   5.712  48.747  1.00  0.00     0.027 A 
HETATM   21  C13 UNL     1      25.740   5.798  49.624  1.00  0.00     0.142 A 
HETATM   22  O2  UNL     1      25.600   4.667  50.261  1.00  0.00    -0.326 OA
ENDBRANCH  17  18
ENDBRANCH   4  17
TORSDOF 5
ENDMDL
MODEL 4
REMARK VINA RESULT:      -6.7      2.467      3.660
REMARK  5 active torsions:
REMARK  status: ('A' for Active; 'I' for Inactive)
REMARK    1  A    between atoms: O1_2  and  C2_3 
REMARK    2  A    between atoms: C5_6  and  C6_7 
REMARK    3  A    between atoms: N1_8  and  C7_9 
REMARK    4  A    between atoms: N3_12  and  C9_13 
REMARK    5  A    between atoms: C9_13  and  C10_14 
ROOT
HETATM    1  C7  UNL     1      25.087   3.152  51.371  1.00  0.00     0.733 C 
HETATM    2  N2  UNL     1      24.270   2.385  50.719  1.00  0.00    -0.088 NA
HETATM    3  C8  UNL     1      23.795   1.339  51.627  1.00  0.00     0.283 C 
HETATM    4  N3  UNL     1      24.838   1.312  52.602  1.00  0.00    -0.190 NA
HETATM    5  N4  UNL     1      25.206   2.681  52.718  1.00  0.00    -0.146 N 
HETATM    6  H14 UNL     1      25.514   3.411  53.411  1.00  0.00     0.200 HD
ENDROOT
BRANCH   1   7
HETATM    7  N1  UNL     1      25.624   4.214  50.604  1.00  0.00    -0.074 NA
HETATM    8  C6  UNL     1      26.402   4.014  49.594  1.00  0.00     0.147 C 
BRANCH   8   9
HETATM    9  C5  UNL     1      26.910   5.176  48.859  1.00  0.00    -0.018 A 
HETATM   10  C4  UNL     1      26.096   6.257  48.507  1.00  0.00     0.015 A 
HETATM   11  C3  UNL     1      26.593   7.343  47.815  1.00  0.00     0.037 A 
HETATM   12  C2  UNL     1      27.914   7.402  47.445  1.00  0.00     0.068 A 
HETATM   13  C15 UNL     1      28.750   6.340  47.782  1.00  0.00     0.037 A 
HETATM   14  C14 UNL     1      28.247   5.248  48.479  1.00  0.00     0.015 A 
BRANCH  12  15
HETATM   15  O1  UNL     1      28.548   8.406  46.761  1.00  0.00    -0.356 OA
HETATM   16  C1  UNL     1      29.636   8.238  45.884  1.00  0.00     0.210 C 
ENDBRANCH  12  15
ENDBRANCH   8   9
ENDBRANCH   1   7
BRANCH   4  17
HETATM   17  C9  UNL     1      25.975   0.561  52.140  1.00  0.00     0.181 C 
BRANCH  17  18
HETATM   18  C10 UNL     1      27.084   0.639  53.106  1.00  0.00     0.067 A 
HETATM   19  C11 UNL     1      27.444  -0.062  54.236  1.00  0.00     0.036 A 
HETATM   20  C12 UNL     1      28.601   0.441  54.774  1.00  0.00     0.027 A 
HETATM   21  C13 UNL     1      28.917   1.482  53.906  1.00  0.00     0.142 A 
HETATM   22  O2  UNL     1      28.016   1.558  52.964  1.00  0.00    -0.326 OA
ENDBRANCH  17  18
ENDBRANCH   4  17
TORSDOF 5
ENDMDL
MODEL 5
REMARK VINA RESULT:      -6.5      4.182      7.416
REMARK  5 active torsions:
REMARK  status: ('A' for Active; 'I' for Inactive)
REMARK    1  A    between atoms: O1_2  and  C2_3 
REMARK    2  A    between atoms: C5_6  and  C6_7 
REMARK    3  A    between atoms: N1_8  and  C7_9 
REMARK    4  A    between atoms: N3_12  and  C9_13 
REMARK    5  A    between atoms: C9_13  and  C10_14 
ROOT
HETATM    1  C7  UNL     1      24.463   0.964  52.628  1.00  0.00     0.733 C 
HETATM    2  N2  UNL     1      24.693   2.078  53.249  1.00  0.00    -0.088 NA
HETATM    3  C8  UNL     1      26.094   2.447  53.033  1.00  0.00     0.283 C 
HETATM    4  N3  UNL     1      26.678   1.181  52.728  1.00  0.00    -0.190 NA
HETATM    5  N4  UNL     1      25.662   0.529  51.976  1.00  0.00    -0.146 N 
HETATM    6  H14 UNL     1      25.507  -0.118  51.161  1.00  0.00     0.200 HD
ENDROOT
BRANCH   1   7
HETATM    7  N1  UNL     1      23.135   0.491  52.756  1.00  0.00    -0.074 NA
HETATM    8  C6  UNL     1      22.192   0.848  51.951  1.00  0.00     0.147 C 
BRANCH   8   9
HETATM    9  C5  UNL     1      20.847   0.305  52.163  1.00  0.00    -0.018 A 
HETATM   10  C4  UNL     1      19.817   0.461  51.230  1.00  0.00     0.015 A 
HETATM   11  C3  UNL     1      18.557  -0.059  51.448  1.00  0.00     0.037 A 
HETATM   12  C2  UNL     1      18.267  -0.753  52.597  1.00  0.00     0.068 A 
HETATM   13  C15 UNL     1      19.272  -0.925  53.545  1.00  0.00     0.037 A 
HETATM   14  C14 UNL     1      20.540  -0.401  53.323  1.00  0.00     0.015 A 
BRANCH  12  15
HETATM   15  O1  UNL     1      17.073  -1.323  52.952  1.00  0.00    -0.356 OA
HETATM   16  C1  UNL     1      15.837  -1.095  52.318  1.00  0.00     0.210 C 
ENDBRANCH  12  15
ENDBRANCH   8   9
ENDBRANCH   1   7
BRANCH   4  17
HETATM   17  C9  UNL     1      26.939   0.417  53.920  1.00  0.00     0.181 C 
BRANCH  17  18
HETATM   18  C10 UNL     1      27.917  -0.651  53.657  1.00  0.00     0.067 A 
HETATM   19  C11 UNL     1      29.284  -0.773  53.782  1.00  0.00     0.036 A 
HETATM   20  C12 UNL     1      29.701  -2.017  53.383  1.00  0.00     0.027 A 
HETATM   21  C13 UNL     1      28.511  -2.636  53.012  1.00  0.00     0.142 A 
HETATM   22  O2  UNL     1      27.514  -1.812  53.187  1.00  0.00    -0.326 OA
ENDBRANCH  17  18
ENDBRANCH   4  17
TORSDOF 5
ENDMDL
MODEL 6
REMARK VINA RESULT:      -6.5      2.558      3.784
REMARK  5 active torsions:
REMARK  status: ('A' for Active; 'I' for Inactive)
REMARK    1  A    between atoms: O1_2  and  C2_3 
REMARK    2  A    between atoms: C5_6  and  C6_7 
REMARK    3  A    between atoms: N1_8  and  C7_9 
REMARK    4  A    between atoms: N3_12  and  C9_13 
REMARK    5  A    between atoms: C9_13  and  C10_14 
ROOT
HETATM    1  C7  UNL     1      24.347   4.027  51.457  1.00  0.00     0.733 C 
HETATM    2  N2  UNL     1      23.171   3.783  50.970  1.00  0.00    -0.088 NA
HETATM    3  C8  UNL     1      22.465   2.888  51.889  1.00  0.00     0.283 C 
HETATM    4  N3  UNL     1      23.554   2.273  52.579  1.00  0.00    -0.190 NA
HETATM    5  N4  UNL     1      24.498   3.330  52.699  1.00  0.00    -0.146 N 
HETATM    6  H14 UNL     1      25.218   3.741  53.346  1.00  0.00     0.200 HD
ENDROOT
BRANCH   1   7
HETATM    7  N1  UNL     1      25.139   4.887  50.660  1.00  0.00    -0.074 NA
HETATM    8  C6  UNL     1      25.839   4.459  49.664  1.00  0.00     0.147 C 
BRANCH   8   9
HETATM    9  C5  UNL     1      26.629   5.425  48.895  1.00  0.00    -0.018 A 
HETATM   10  C4  UNL     1      26.091   6.622  48.413  1.00  0.00     0.015 A 
HETATM   11  C3  UNL     1      26.852   7.520  47.692  1.00  0.00     0.037 A 
HETATM   12  C2  UNL     1      28.174   7.268  47.419  1.00  0.00     0.068 A 
HETATM   13  C15 UNL     1      28.739   6.083  47.886  1.00  0.00     0.037 A 
HETATM   14  C14 UNL     1      27.970   5.182  48.613  1.00  0.00     0.015 A 
BRANCH  12  15
HETATM   15  O1  UNL     1      29.050   8.057  46.721  1.00  0.00    -0.356 OA
HETATM   16  C1  UNL     1      30.375   8.342  47.099  1.00  0.00     0.210 C 
ENDBRANCH  12  15
ENDBRANCH   8   9
ENDBRANCH   1   7
BRANCH   4  17
HETATM   17  C9  UNL     1      24.138   1.210  51.804  1.00  0.00     0.181 C 
BRANCH  17  18
HETATM   18  C10 UNL     1      25.327   0.661  52.478  1.00  0.00     0.067 A 
HETATM   19  C11 UNL     1      26.509   0.091  52.058  1.00  0.00     0.036 A 
HETATM   20  C12 UNL     1      27.290  -0.258  53.130  1.00  0.00     0.027 A 
HETATM   21  C13 UNL     1      26.514   0.134  54.216  1.00  0.00     0.142 A 
HETATM   22  O2  UNL     1      25.395   0.656  53.792  1.00  0.00    -0.326 OA
ENDBRANCH  17  18
ENDBRANCH   4  17
TORSDOF 5
ENDMDL
MODEL 7
REMARK VINA RESULT:      -6.4      3.215      4.587
REMARK  5 active torsions:
REMARK  status: ('A' for Active; 'I' for Inactive)
REMARK    1  A    between atoms: O1_2  and  C2_3 
REMARK    2  A    between atoms: C5_6  and  C6_7 
REMARK    3  A    between atoms: N1_8  and  C7_9 
REMARK    4  A    between atoms: N3_12  and  C9_13 
REMARK    5  A    between atoms: C9_13  and  C10_14 
ROOT
HETATM    1  C7  UNL     1      24.100   0.948  52.413  1.00  0.00     0.733 C 
HETATM    2  N2  UNL     1      23.458  -0.086  52.859  1.00  0.00    -0.088 NA
HETATM    3  C8  UNL     1      24.094  -0.524  54.103  1.00  0.00     0.283 C 
HETATM    4  N3  UNL     1      25.408   0.015  53.956  1.00  0.00    -0.190 NA
HETATM    5  N4  UNL     1      25.176   1.258  53.306  1.00  0.00    -0.146 N 
HETATM    6  H14 UNL     1      25.506   2.256  53.263  1.00  0.00     0.200 HD
ENDROOT
BRANCH   1   7
HETATM    7  N1  UNL     1      23.584   1.476  51.205  1.00  0.00    -0.074 NA
HETATM    8  C6  UNL     1      23.924   2.637  50.755  1.00  0.00     0.147 C 
BRANCH   8   9
HETATM    9  C5  UNL     1      23.337   3.098  49.494  1.00  0.00    -0.018 A 
HETATM   10  C4  UNL     1      22.663   2.241  48.620  1.00  0.00     0.015 A 
HETATM   11  C3  UNL     1      22.117   2.695  47.436  1.00  0.00     0.037 A 
HETATM   12  C2  UNL     1      22.216   4.016  47.073  1.00  0.00     0.068 A 
HETATM   13  C15 UNL     1      22.882   4.895  47.923  1.00  0.00     0.037 A 
HETATM   14  C14 UNL     1      23.430   4.434  49.114  1.00  0.00     0.015 A 
BRANCH  12  15
HETATM   15  O1  UNL     1      21.729   4.611  45.938  1.00  0.00    -0.356 OA
HETATM   16  C1  UNL     1      20.575   4.213  45.237  1.00  0.00     0.210 C 
ENDBRANCH  12  15
ENDBRANCH   8   9
ENDBRANCH   1   7
BRANCH   4  17
HETATM   17  C9  UNL     1      26.227  -0.811  53.107  1.00  0.00     0.181 C 
BRANCH  17  18
HETATM   18  C10 UNL     1      27.657  -0.551  53.343  1.00  0.00     0.067 A 
HETATM   19  C11 UNL     1      28.814  -1.291  53.227  1.00  0.00     0.036 A 
HETATM   20  C12 UNL     1      29.907  -0.546  53.587  1.00  0.00     0.027 A 
HETATM   21  C13 UNL     1      29.345   0.682  53.925  1.00  0.00     0.142 A 
HETATM   22  O2  UNL     1      28.050   0.630  53.770  1.00  0.00    -0.326 OA
ENDBRANCH  17  18
ENDBRANCH   4  17
TORSDOF 5
ENDMDL
MODEL 8
REMARK VINA RESULT:      -6.4      4.833      7.110
REMARK  5 active torsions:
REMARK  status: ('A' for Active; 'I' for Inactive)
REMARK    1  A    between atoms: O1_2  and  C2_3 
REMARK    2  A    between atoms: C5_6  and  C6_7 
REMARK    3  A    between atoms: N1_8  and  C7_9 
REMARK    4  A    between atoms: N3_12  and  C9_13 
REMARK    5  A    between atoms: C9_13  and  C10_14 
ROOT
HETATM    1  C7  UNL     1      20.929   2.490  51.737  1.00  0.00     0.733 C 
HETATM    2  N2  UNL     1      21.047   2.888  50.510  1.00  0.00    -0.088 NA
HETATM    3  C8  UNL     1      19.706   3.102  49.961  1.00  0.00     0.283 C 
HETATM    4  N3  UNL     1      18.915   2.268  50.809  1.00  0.00    -0.190 NA
HETATM    5  N4  UNL     1      19.540   2.414  52.078  1.00  0.00    -0.146 N 
HETATM    6  H14 UNL     1      19.338   2.480  53.109  1.00  0.00     0.200 HD
ENDROOT
BRANCH   1   7
HETATM    7  N1  UNL     1      22.161   2.245  52.390  1.00  0.00    -0.074 NA
HETATM    8  C6  UNL     1      22.796   1.127  52.274  1.00  0.00     0.147 C 
BRANCH   8   9
HETATM    9  C5  UNL     1      24.065   0.965  52.987  1.00  0.00    -0.018 A 
HETATM   10  C4  UNL     1      24.485  -0.263  53.506  1.00  0.00     0.015 A 
HETATM   11  C3  UNL     1      25.685  -0.396  54.175  1.00  0.00     0.037 A 
HETATM   12  C2  UNL     1      26.516   0.683  54.357  1.00  0.00     0.068 A 
HETATM   13  C15 UNL     1      26.126   1.920  53.852  1.00  0.00     0.037 A 
HETATM   14  C14 UNL     1      24.917   2.050  53.178  1.00  0.00     0.015 A 
BRANCH  12  15
HETATM   15  O1  UNL     1      27.729   0.707  54.996  1.00  0.00    -0.356 OA
HETATM   16  C1  UNL     1      28.986   0.718  54.364  1.00  0.00     0.210 C 
ENDBRANCH  12  15
ENDBRANCH   8   9
ENDBRANCH   1   7
BRANCH   4  17
HETATM   17  C9  UNL     1      18.988   0.887  50.409  1.00  0.00     0.181 C 
BRANCH  17  18
HETATM   18  C10 UNL     1      18.331   0.018  51.399  1.00  0.00     0.067 A 
HETATM   19  C11 UNL     1      17.070  -0.520  51.539  1.00  0.00     0.036 A 
HETATM   20  C12 UNL     1      16.987  -1.278  52.679  1.00  0.00     0.027 A 
HETATM   21  C13 UNL     1      18.266  -1.166  53.216  1.00  0.00     0.142 A 
HETATM   22  O2  UNL     1      19.002  -0.411  52.446  1.00  0.00    -0.326 OA
ENDBRANCH  17  18
ENDBRANCH   4  17
TORSDOF 5
ENDMDL
MODEL 9
REMARK VINA RESULT:      -6.4      5.397      8.917
REMARK  5 active torsions:
REMARK  status: ('A' for Active; 'I' for Inactive)
REMARK    1  A    between atoms: O1_2  and  C2_3 
REMARK    2  A    between atoms: C5_6  and  C6_7 
REMARK    3  A    between atoms: N1_8  and  C7_9 
REMARK    4  A    between atoms: N3_12  and  C9_13 
REMARK    5  A    between atoms: C9_13  and  C10_14 
ROOT
HETATM    1  C7  UNL     1      30.821   7.196  48.079  1.00  0.00     0.733 C 
HETATM    2  N2  UNL     1      31.326   8.145  48.803  1.00  0.00    -0.088 NA
HETATM    3  C8  UNL     1      32.707   8.371  48.372  1.00  0.00     0.283 C 
HETATM    4  N3  UNL     1      33.026   7.117  47.768  1.00  0.00    -0.190 NA
HETATM    5  N4  UNL     1      31.804   6.739  47.144  1.00  0.00    -0.146 N 
HETATM    6  H14 UNL     1      31.410   6.272  46.288  1.00  0.00     0.200 HD
ENDROOT
BRANCH   1   7
HETATM    7  N1  UNL     1      29.479   6.875  48.396  1.00  0.00    -0.074 NA
HETATM    8  C6  UNL     1      28.984   5.699  48.202  1.00  0.00     0.147 C 
BRANCH   8   9
HETATM    9  C5  UNL     1      27.583   5.461  48.562  1.00  0.00    -0.018 A 
HETATM   10  C4  UNL     1      26.590   6.431  48.401  1.00  0.00     0.015 A 
HETATM   11  C3  UNL     1      25.275   6.188  48.746  1.00  0.00     0.037 A 
HETATM   12  C2  UNL     1      24.893   4.974  49.263  1.00  0.00     0.068 A 
HETATM   13  C15 UNL     1      25.860   3.986  49.435  1.00  0.00     0.037 A 
HETATM   14  C14 UNL     1      27.182   4.235  49.086  1.00  0.00     0.015 A 
BRANCH  12  15
HETATM   15  O1  UNL     1      23.637   4.586  49.649  1.00  0.00    -0.356 OA
HETATM   16  C1  UNL     1      23.183   3.258  49.743  1.00  0.00     0.210 C 
ENDBRANCH  12  15
ENDBRANCH   8   9
ENDBRANCH   1   7
BRANCH   4  17
HETATM   17  C9  UNL     1      33.370   6.127  48.755  1.00  0.00     0.181 C 
BRANCH  17  18
HETATM   18  C10 UNL     1      33.607   4.817  48.125  1.00  0.00     0.067 A 
HETATM   19  C11 UNL     1      34.709   4.165  47.617  1.00  0.00     0.036 A 
HETATM   20  C12 UNL     1      34.364   2.930  47.133  1.00  0.00     0.027 A 
HETATM   21  C13 UNL     1      32.996   2.874  47.377  1.00  0.00     0.142 A 
HETATM   22  O2  UNL     1      32.606   3.982  47.948  1.00  0.00    -0.326 OA
ENDBRANCH  17  18
ENDBRANCH   4  17
TORSDOF 5
ENDMDL
