MODEL 1
REMARK VINA RESULT:      -9.3      0.000      0.000
REMARK  6 active torsions:
REMARK  status: ('A' for Active; 'I' for Inactive)
REMARK    1  A    between atoms: C2_2  and  C3_3 
REMARK       I    between atoms: C3_3  and  N1_5 
REMARK    2  A    between atoms: N1_5  and  C4_6 
REMARK    3  A    between atoms: C8_10  and  C9_11 
REMARK    4  A    between atoms: C10_12  and  C11_13 
REMARK    5  A    between atoms: C11_13  and  C12_14 
REMARK    6  A    between atoms: C18_21  and  C19_22 
ROOT
HETATM    1  C9  UNL     1      23.781   0.937  52.331  1.00  0.00    -0.016 C 
HETATM    2  C10 UNL     1      24.857   0.632  53.068  1.00  0.00     0.058 C 
HETATM    3  O2  UNL     1      24.465  -0.158  54.133  1.00  0.00    -0.349 OA
HETATM    4  C18 UNL     1      23.265  -0.782  53.785  1.00  0.00     0.132 C 
HETATM    5  C21 UNL     1      22.579   0.295  52.975  1.00  0.00     0.074 C 
ENDROOT
BRANCH   1   6
HETATM    6  C8  UNL     1      23.515   1.710  51.114  1.00  0.00    -0.025 A 
HETATM    7  C7  UNL     1      22.492   1.456  50.231  1.00  0.00     0.012 A 
HETATM    8  C6  UNL     1      22.255   2.178  49.083  1.00  0.00     0.003 A 
HETATM    9  C5  UNL     1      23.085   3.234  48.772  1.00  0.00     0.029 A 
HETATM   10  C4  UNL     1      24.126   3.530  49.624  1.00  0.00     0.035 A 
HETATM   11  C22 UNL     1      24.334   2.787  50.763  1.00  0.00     0.041 A 
BRANCH  10  12
HETATM   12  N1  UNL     1      24.940   4.631  49.242  1.00  0.00    -0.324 N 
HETATM   13  C3  UNL     1      26.362   4.604  49.153  1.00  0.00     0.244 C 
HETATM   14  O1  UNL     1      27.187   3.679  49.369  1.00  0.00    -0.268 OA
HETATM   15  H4  UNL     1      24.427   5.494  49.021  1.00  0.00     0.169 HD
BRANCH  13  16
HETATM   16  C2  UNL     1      27.020   5.841  48.744  1.00  0.00     0.064 C 
HETATM   17  C1  UNL     1      28.179   5.233  48.436  1.00  0.00     0.017 C 
ENDBRANCH  13  16
ENDBRANCH  10  12
ENDBRANCH   1   6
BRANCH   2  18
HETATM   18  C11 UNL     1      26.265   1.064  52.801  1.00  0.00     0.103 C 
BRANCH  18  19
HETATM   19  C12 UNL     1      27.144  -0.116  52.909  1.00  0.00    -0.052 A 
HETATM   20  C13 UNL     1      26.872  -1.414  52.567  1.00  0.00     0.007 A 
HETATM   21  C14 UNL     1      27.684  -2.516  52.658  1.00  0.00     0.001 A 
HETATM   22  C15 UNL     1      28.949  -2.230  53.177  1.00  0.00     0.000 A 
HETATM   23  C16 UNL     1      29.369  -0.968  53.568  1.00  0.00     0.001 A 
HETATM   24  C17 UNL     1      28.439   0.055  53.417  1.00  0.00     0.007 A 
ENDBRANCH  18  19
ENDBRANCH   2  18
BRANCH   4  25
HETATM   25  C19 UNL     1      22.423  -1.241  54.937  1.00  0.00     0.028 C 
HETATM   26  C20 UNL     1      20.991  -1.377  54.409  1.00  0.00     0.007 C 
ENDBRANCH   4  25
TORSDOF 6
ENDMDL
MODEL 2
REMARK VINA RESULT:      -9.2      2.643      5.990
REMARK  6 active torsions:
REMARK  status: ('A' for Active; 'I' for Inactive)
REMARK    1  A    between atoms: C2_2  and  C3_3 
REMARK       I    between atoms: C3_3  and  N1_5 
REMARK    2  A    between atoms: N1_5  and  C4_6 
REMARK    3  A    between atoms: C8_10  and  C9_11 
REMARK    4  A    between atoms: C10_12  and  C11_13 
REMARK    5  A    between atoms: C11_13  and  C12_14 
REMARK    6  A    between atoms: C18_21  and  C19_22 
ROOT
HETATM    1  C9  UNL     1      24.231   1.077  52.649  1.00  0.00    -0.016 C 
HETATM    2  C10 UNL     1      25.490   1.459  52.902  1.00  0.00     0.058 C 
HETATM    3  O2  UNL     1      25.931   2.270  51.873  1.00  0.00    -0.349 OA
HETATM    4  C18 UNL     1      24.809   2.826  51.254  1.00  0.00     0.132 C 
HETATM    5  C21 UNL     1      23.816   1.689  51.335  1.00  0.00     0.074 C 
ENDROOT
BRANCH   1   6
HETATM    6  C8  UNL     1      23.221   0.247  53.313  1.00  0.00    -0.025 A 
HETATM    7  C7  UNL     1      23.488  -0.682  54.290  1.00  0.00     0.012 A 
HETATM    8  C6  UNL     1      22.537  -1.467  54.901  1.00  0.00     0.003 A 
HETATM    9  C5  UNL     1      21.216  -1.333  54.528  1.00  0.00     0.029 A 
HETATM   10  C4  UNL     1      20.896  -0.415  53.553  1.00  0.00     0.035 A 
HETATM   11  C22 UNL     1      21.873   0.354  52.962  1.00  0.00     0.041 A 
BRANCH  10  12
HETATM   12  N1  UNL     1      19.517  -0.328  53.218  1.00  0.00    -0.324 N 
HETATM   13  C3  UNL     1      19.008   0.007  51.929  1.00  0.00     0.244 C 
HETATM   14  O1  UNL     1      19.597   0.286  50.854  1.00  0.00    -0.268 OA
HETATM   15  H4  UNL     1      18.869  -0.530  53.990  1.00  0.00     0.169 HD
BRANCH  13  16
HETATM   16  C2  UNL     1      17.555   0.046  51.785  1.00  0.00     0.064 C 
HETATM   17  C1  UNL     1      17.353  -1.002  52.603  1.00  0.00     0.017 C 
ENDBRANCH  13  16
ENDBRANCH  10  12
ENDBRANCH   1   6
BRANCH   2  18
HETATM   18  C11 UNL     1      26.306   1.082  54.099  1.00  0.00     0.103 C 
BRANCH  18  19
HETATM   19  C12 UNL     1      27.203  -0.027  53.721  1.00  0.00    -0.052 A 
HETATM   20  C13 UNL     1      26.894  -1.180  53.048  1.00  0.00     0.007 A 
HETATM   21  C14 UNL     1      27.722  -2.213  52.688  1.00  0.00     0.001 A 
HETATM   22  C15 UNL     1      29.049  -2.024  53.082  1.00  0.00     0.000 A 
HETATM   23  C16 UNL     1      29.511  -0.912  53.768  1.00  0.00     0.001 A 
HETATM   24  C17 UNL     1      28.559   0.057  54.066  1.00  0.00     0.007 A 
ENDBRANCH  18  19
ENDBRANCH   2  18
BRANCH   4  25
HETATM   25  C19 UNL     1      25.019   3.289  49.844  1.00  0.00     0.028 C 
HETATM   26  C20 UNL     1      26.534   3.326  49.613  1.00  0.00     0.007 C 
ENDBRANCH   4  25
TORSDOF 6
ENDMDL
MODEL 3
REMARK VINA RESULT:      -9.0      2.445      6.022
REMARK  6 active torsions:
REMARK  status: ('A' for Active; 'I' for Inactive)
REMARK    1  A    between atoms: C2_2  and  C3_3 
REMARK       I    between atoms: C3_3  and  N1_5 
REMARK    2  A    between atoms: N1_5  and  C4_6 
REMARK    3  A    between atoms: C8_10  and  C9_11 
REMARK    4  A    between atoms: C10_12  and  C11_13 
REMARK    5  A    between atoms: C11_13  and  C12_14 
REMARK    6  A    between atoms: C18_21  and  C19_22 
ROOT
HETATM    1  C9  UNL     1      22.651   1.131  52.090  1.00  0.00    -0.016 C 
HETATM    2  C10 UNL     1      22.786   2.391  51.656  1.00  0.00     0.058 C 
HETATM    3  O2  UNL     1      21.921   2.601  50.599  1.00  0.00    -0.349 OA
HETATM    4  C18 UNL     1      20.883   1.672  50.704  1.00  0.00     0.132 C 
HETATM    5  C21 UNL     1      21.608   0.456  51.236  1.00  0.00     0.074 C 
ENDROOT
BRANCH   1   6
HETATM    6  C8  UNL     1      23.248   0.301  53.141  1.00  0.00    -0.025 A 
HETATM    7  C7  UNL     1      22.542  -0.342  54.129  1.00  0.00     0.012 A 
HETATM    8  C6  UNL     1      23.110  -1.110  55.120  1.00  0.00     0.003 A 
HETATM    9  C5  UNL     1      24.480  -1.262  55.148  1.00  0.00     0.029 A 
HETATM   10  C4  UNL     1      25.234  -0.637  54.180  1.00  0.00     0.035 A 
HETATM   11  C22 UNL     1      24.633   0.124  53.203  1.00  0.00     0.041 A 
BRANCH  10  12
HETATM   12  N1  UNL     1      26.639  -0.837  54.268  1.00  0.00    -0.324 N 
HETATM   13  C3  UNL     1      27.603   0.199  54.436  1.00  0.00     0.244 C 
HETATM   14  O1  UNL     1      27.469   1.445  54.540  1.00  0.00    -0.268 OA
HETATM   15  H4  UNL     1      26.942  -1.817  54.203  1.00  0.00     0.169 HD
BRANCH  13  16
HETATM   16  C2  UNL     1      29.004  -0.210  54.503  1.00  0.00     0.064 C 
HETATM   17  C1  UNL     1      28.920  -1.007  53.423  1.00  0.00     0.017 C 
ENDBRANCH  13  16
ENDBRANCH  10  12
ENDBRANCH   1   6
BRANCH   2  18
HETATM   18  C11 UNL     1      23.718   3.423  52.212  1.00  0.00     0.103 C 
BRANCH  18  19
HETATM   19  C12 UNL     1      24.670   3.810  51.154  1.00  0.00    -0.052 A 
HETATM   20  C13 UNL     1      24.720   4.979  50.441  1.00  0.00     0.007 A 
HETATM   21  C14 UNL     1      25.605   5.350  49.459  1.00  0.00     0.001 A 
HETATM   22  C15 UNL     1      26.566   4.374  49.182  1.00  0.00     0.000 A 
HETATM   23  C16 UNL     1      26.642   3.146  49.819  1.00  0.00     0.001 A 
HETATM   24  C17 UNL     1      25.679   2.907  50.794  1.00  0.00     0.007 A 
ENDBRANCH  18  19
ENDBRANCH   2  18
BRANCH   4  25
HETATM   25  C19 UNL     1      20.155   1.378  49.427  1.00  0.00     0.028 C 
HETATM   26  C20 UNL     1      21.104   1.749  48.283  1.00  0.00     0.007 C 
ENDBRANCH   4  25
TORSDOF 6
ENDMDL
MODEL 4
REMARK VINA RESULT:      -8.9      2.387      6.163
REMARK  6 active torsions:
REMARK  status: ('A' for Active; 'I' for Inactive)
REMARK    1  A    between atoms: C2_2  and  C3_3 
REMARK       I    between atoms: C3_3  and  N1_5 
REMARK    2  A    between atoms: N1_5  and  C4_6 
REMARK    3  A    between atoms: C8_10  and  C9_11 
REMARK    4  A    between atoms: C10_12  and  C11_13 
REMARK    5  A    between atoms: C11_13  and  C12_14 
REMARK    6  A    between atoms: C18_21  and  C19_22 
ROOT
HETATM    1  C9  UNL     1      25.254  -0.056  53.539  1.00  0.00    -0.016 C 
HETATM    2  C10 UNL     1      26.023   1.031  53.401  1.00  0.00     0.058 C 
HETATM    3  O2  UNL     1      27.347   0.641  53.312  1.00  0.00    -0.349 OA
HETATM    4  C18 UNL     1      27.374  -0.682  52.865  1.00  0.00     0.132 C 
HETATM    5  C21 UNL     1      26.156  -1.265  53.546  1.00  0.00     0.074 C 
ENDROOT
BRANCH   1   6
HETATM    6  C8  UNL     1      23.820  -0.330  53.679  1.00  0.00    -0.025 A 
HETATM    7  C7  UNL     1      23.256  -1.050  54.705  1.00  0.00     0.012 A 
HETATM    8  C6  UNL     1      21.910  -1.314  54.824  1.00  0.00     0.003 A 
HETATM    9  C5  UNL     1      21.045  -0.836  53.862  1.00  0.00     0.029 A 
HETATM   10  C4  UNL     1      21.561  -0.109  52.813  1.00  0.00     0.035 A 
HETATM   11  C22 UNL     1      22.912   0.136  52.725  1.00  0.00     0.041 A 
BRANCH  10  12
HETATM   12  N1  UNL     1      20.613   0.353  51.859  1.00  0.00    -0.324 N 
HETATM   13  C3  UNL     1      19.922   1.597  51.932  1.00  0.00     0.244 C 
HETATM   14  O1  UNL     1      19.970   2.523  52.781  1.00  0.00    -0.268 OA
HETATM   15  H4  UNL     1      20.442  -0.286  51.073  1.00  0.00     0.169 HD
BRANCH  13  16
HETATM   16  C2  UNL     1      18.983   1.892  50.853  1.00  0.00     0.064 C 
HETATM   17  C1  UNL     1      18.656   0.602  50.659  1.00  0.00     0.017 C 
ENDBRANCH  13  16
ENDBRANCH  10  12
ENDBRANCH   1   6
BRANCH   2  18
HETATM   18  C11 UNL     1      25.549   2.450  53.350  1.00  0.00     0.103 C 
BRANCH  18  19
HETATM   19  C12 UNL     1      25.428   2.851  51.935  1.00  0.00    -0.052 A 
HETATM   20  C13 UNL     1      26.395   2.852  50.965  1.00  0.00     0.007 A 
HETATM   21  C14 UNL     1      26.291   3.218  49.647  1.00  0.00     0.001 A 
HETATM   22  C15 UNL     1      25.008   3.640  49.289  1.00  0.00     0.000 A 
HETATM   23  C16 UNL     1      23.930   3.694  50.159  1.00  0.00     0.001 A 
HETATM   24  C17 UNL     1      24.184   3.292  51.466  1.00  0.00     0.007 A 
ENDBRANCH  18  19
ENDBRANCH   2  18
BRANCH   4  25
HETATM   25  C19 UNL     1      28.621  -1.445  53.195  1.00  0.00     0.028 C 
HETATM   26  C20 UNL     1      29.667  -0.412  53.629  1.00  0.00     0.007 C 
ENDBRANCH   4  25
TORSDOF 6
ENDMDL
MODEL 5
REMARK VINA RESULT:      -8.7      1.755      2.282
REMARK  6 active torsions:
REMARK  status: ('A' for Active; 'I' for Inactive)
REMARK    1  A    between atoms: C2_2  and  C3_3 
REMARK       I    between atoms: C3_3  and  N1_5 
REMARK    2  A    between atoms: N1_5  and  C4_6 
REMARK    3  A    between atoms: C8_10  and  C9_11 
REMARK    4  A    between atoms: C10_12  and  C11_13 
REMARK    5  A    between atoms: C11_13  and  C12_14 
REMARK    6  A    between atoms: C18_21  and  C19_22 
ROOT
HETATM    1  C9  UNL     1      24.011   1.051  52.002  1.00  0.00    -0.016 C 
HETATM    2  C10 UNL     1      25.006   0.242  52.387  1.00  0.00     0.058 C 
HETATM    3  O2  UNL     1      24.596  -0.490  53.485  1.00  0.00    -0.349 OA
HETATM    4  C18 UNL     1      23.200  -0.539  53.469  1.00  0.00     0.132 C 
HETATM    5  C21 UNL     1      22.848   0.832  52.936  1.00  0.00     0.074 C 
ENDROOT
BRANCH   1   6
HETATM    6  C8  UNL     1      23.801   2.046  50.946  1.00  0.00    -0.025 A 
HETATM    7  C7  UNL     1      22.868   1.940  49.942  1.00  0.00     0.012 A 
HETATM    8  C6  UNL     1      22.685   2.872  48.946  1.00  0.00     0.003 A 
HETATM    9  C5  UNL     1      23.477   4.000  48.929  1.00  0.00     0.029 A 
HETATM   10  C4  UNL     1      24.428   4.154  49.913  1.00  0.00     0.035 A 
HETATM   11  C22 UNL     1      24.584   3.202  50.894  1.00  0.00     0.041 A 
BRANCH  10  12
HETATM   12  N1  UNL     1      25.208   5.340  49.835  1.00  0.00    -0.324 N 
HETATM   13  C3  UNL     1      24.946   6.539  50.559  1.00  0.00     0.244 C 
HETATM   14  O1  UNL     1      24.039   6.829  51.381  1.00  0.00    -0.268 OA
HETATM   15  H4  UNL     1      26.013   5.289  49.198  1.00  0.00     0.169 HD
BRANCH  13  16
HETATM   16  C2  UNL     1      25.865   7.654  50.342  1.00  0.00     0.064 C 
HETATM   17  C1  UNL     1      24.923   8.445  49.798  1.00  0.00     0.017 C 
ENDBRANCH  13  16
ENDBRANCH  10  12
ENDBRANCH   1   6
BRANCH   2  18
HETATM   18  C11 UNL     1      26.355   0.132  51.747  1.00  0.00     0.103 C 
BRANCH  18  19
HETATM   19  C12 UNL     1      27.360   0.678  52.678  1.00  0.00    -0.052 A 
HETATM   20  C13 UNL     1      27.753   1.981  52.838  1.00  0.00     0.007 A 
HETATM   21  C14 UNL     1      28.682   2.499  53.704  1.00  0.00     0.001 A 
HETATM   22  C15 UNL     1      29.286   1.532  54.512  1.00  0.00     0.000 A 
HETATM   23  C16 UNL     1      28.994   0.178  54.465  1.00  0.00     0.001 A 
HETATM   24  C17 UNL     1      28.030  -0.203  53.538  1.00  0.00     0.007 A 
ENDBRANCH  18  19
ENDBRANCH   2  18
BRANCH   4  25
HETATM   25  C19 UNL     1      22.553  -0.809  54.794  1.00  0.00     0.028 C 
HETATM   26  C20 UNL     1      21.193  -0.103  54.772  1.00  0.00     0.007 C 
ENDBRANCH   4  25
TORSDOF 6
ENDMDL
MODEL 6
REMARK VINA RESULT:      -8.6      2.515      6.734
REMARK  6 active torsions:
REMARK  status: ('A' for Active; 'I' for Inactive)
REMARK    1  A    between atoms: C2_2  and  C3_3 
REMARK       I    between atoms: C3_3  and  N1_5 
REMARK    2  A    between atoms: N1_5  and  C4_6 
REMARK    3  A    between atoms: C8_10  and  C9_11 
REMARK    4  A    between atoms: C10_12  and  C11_13 
REMARK    5  A    between atoms: C11_13  and  C12_14 
REMARK    6  A    between atoms: C18_21  and  C19_22 
ROOT
HETATM    1  C9  UNL     1      25.310   2.852  51.999  1.00  0.00    -0.016 C 
HETATM    2  C10 UNL     1      26.221   2.815  51.018  1.00  0.00     0.058 C 
HETATM    3  O2  UNL     1      27.451   2.487  51.556  1.00  0.00    -0.349 OA
HETATM    4  C18 UNL     1      27.227   1.807  52.755  1.00  0.00     0.132 C 
HETATM    5  C21 UNL     1      26.008   2.523  53.294  1.00  0.00     0.074 C 
ENDROOT
BRANCH   1   6
HETATM    6  C8  UNL     1      23.873   3.124  52.101  1.00  0.00    -0.025 A 
HETATM    7  C7  UNL     1      23.310   4.378  52.114  1.00  0.00     0.012 A 
HETATM    8  C6  UNL     1      21.961   4.626  52.223  1.00  0.00     0.003 A 
HETATM    9  C5  UNL     1      21.089   3.564  52.329  1.00  0.00     0.029 A 
HETATM   10  C4  UNL     1      21.603   2.286  52.321  1.00  0.00     0.035 A 
HETATM   11  C22 UNL     1      22.958   2.073  52.210  1.00  0.00     0.041 A 
BRANCH  10  12
HETATM   12  N1  UNL     1      20.648   1.238  52.432  1.00  0.00    -0.324 N 
HETATM   13  C3  UNL     1      20.548   0.335  53.530  1.00  0.00     0.244 C 
HETATM   14  O1  UNL     1      21.220   0.244  54.589  1.00  0.00    -0.268 OA
HETATM   15  H4  UNL     1      19.997   1.159  51.640  1.00  0.00     0.169 HD
BRANCH  13  16
HETATM   16  C2  UNL     1      19.499  -0.677  53.457  1.00  0.00     0.064 C 
HETATM   17  C1  UNL     1      19.046  -0.256  52.263  1.00  0.00     0.017 C 
ENDBRANCH  13  16
ENDBRANCH  10  12
ENDBRANCH   1   6
BRANCH   2  18
HETATM   18  C11 UNL     1      25.971   3.083  49.567  1.00  0.00     0.103 C 
BRANCH  18  19
HETATM   19  C12 UNL     1      26.533   4.405  49.232  1.00  0.00    -0.052 A 
HETATM   20  C13 UNL     1      27.741   4.695  48.655  1.00  0.00     0.007 A 
HETATM   21  C14 UNL     1      28.271   5.920  48.336  1.00  0.00     0.001 A 
HETATM   22  C15 UNL     1      27.431   6.988  48.662  1.00  0.00     0.000 A 
HETATM   23  C16 UNL     1      26.183   6.853  49.249  1.00  0.00     0.001 A 
HETATM   24  C17 UNL     1      25.775   5.550  49.515  1.00  0.00     0.007 A 
ENDBRANCH  18  19
ENDBRANCH   2  18
BRANCH   4  25
HETATM   25  C19 UNL     1      28.367   1.830  53.728  1.00  0.00     0.028 C 
HETATM   26  C20 UNL     1      28.626   0.376  54.136  1.00  0.00     0.007 C 
ENDBRANCH   4  25
TORSDOF 6
ENDMDL
MODEL 7
REMARK VINA RESULT:      -8.6      1.943      2.620
REMARK  6 active torsions:
REMARK  status: ('A' for Active; 'I' for Inactive)
REMARK    1  A    between atoms: C2_2  and  C3_3 
REMARK       I    between atoms: C3_3  and  N1_5 
REMARK    2  A    between atoms: N1_5  and  C4_6 
REMARK    3  A    between atoms: C8_10  and  C9_11 
REMARK    4  A    between atoms: C10_12  and  C11_13 
REMARK    5  A    between atoms: C11_13  and  C12_14 
REMARK    6  A    between atoms: C18_21  and  C19_22 
ROOT
HETATM    1  C9  UNL     1      24.665   1.506  52.405  1.00  0.00    -0.016 C 
HETATM    2  C10 UNL     1      25.184   0.887  53.474  1.00  0.00     0.058 C 
HETATM    3  O2  UNL     1      24.245   0.015  53.992  1.00  0.00    -0.349 OA
HETATM    4  C18 UNL     1      23.351  -0.309  52.969  1.00  0.00     0.132 C 
HETATM    5  C21 UNL     1      23.259   0.997  52.212  1.00  0.00     0.074 C 
ENDROOT
BRANCH   1   6
HETATM    6  C8  UNL     1      25.119   2.508  51.436  1.00  0.00    -0.025 A 
HETATM    7  C7  UNL     1      26.230   2.380  50.637  1.00  0.00     0.012 A 
HETATM    8  C6  UNL     1      26.657   3.331  49.738  1.00  0.00     0.003 A 
HETATM    9  C5  UNL     1      25.942   4.503  49.609  1.00  0.00     0.029 A 
HETATM   10  C4  UNL     1      24.820   4.680  50.389  1.00  0.00     0.035 A 
HETATM   11  C22 UNL     1      24.421   3.709  51.278  1.00  0.00     0.041 A 
BRANCH  10  12
HETATM   12  N1  UNL     1      24.131   5.910  50.204  1.00  0.00    -0.324 N 
HETATM   13  C3  UNL     1      23.022   6.101  49.329  1.00  0.00     0.244 C 
HETATM   14  O1  UNL     1      22.422   5.302  48.566  1.00  0.00    -0.268 OA
HETATM   15  H4  UNL     1      24.488   6.696  50.761  1.00  0.00     0.169 HD
BRANCH  13  16
HETATM   16  C2  UNL     1      22.449   7.444  49.277  1.00  0.00     0.064 C 
HETATM   17  C1  UNL     1      22.738   7.718  50.561  1.00  0.00     0.017 C 
ENDBRANCH  13  16
ENDBRANCH  10  12
ENDBRANCH   1   6
BRANCH   2  18
HETATM   18  C11 UNL     1      26.557   1.090  54.034  1.00  0.00     0.103 C 
BRANCH  18  19
HETATM   19  C12 UNL     1      27.386  -0.076  53.674  1.00  0.00    -0.052 A 
HETATM   20  C13 UNL     1      27.001  -1.233  53.050  1.00  0.00     0.007 A 
HETATM   21  C14 UNL     1      27.765  -2.320  52.706  1.00  0.00     0.001 A 
HETATM   22  C15 UNL     1      29.110  -2.186  53.061  1.00  0.00     0.000 A 
HETATM   23  C16 UNL     1      29.646  -1.077  53.696  1.00  0.00     0.001 A 
HETATM   24  C17 UNL     1      28.753  -0.051  53.983  1.00  0.00     0.007 A 
ENDBRANCH  18  19
ENDBRANCH   2  18
BRANCH   4  25
HETATM   25  C19 UNL     1      22.006  -0.791  53.422  1.00  0.00     0.028 C 
HETATM   26  C20 UNL     1      22.091  -0.969  54.941  1.00  0.00     0.007 C 
ENDBRANCH   4  25
TORSDOF 6
ENDMDL
MODEL 8
REMARK VINA RESULT:      -8.5      2.491      6.444
REMARK  6 active torsions:
REMARK  status: ('A' for Active; 'I' for Inactive)
REMARK    1  A    between atoms: C2_2  and  C3_3 
REMARK       I    between atoms: C3_3  and  N1_5 
REMARK    2  A    between atoms: N1_5  and  C4_6 
REMARK    3  A    between atoms: C8_10  and  C9_11 
REMARK    4  A    between atoms: C10_12  and  C11_13 
REMARK    5  A    between atoms: C11_13  and  C12_14 
REMARK    6  A    between atoms: C18_21  and  C19_22 
ROOT
HETATM    1  C9  UNL     1      25.519   1.705  52.273  1.00  0.00    -0.016 C 
HETATM    2  C10 UNL     1      26.129   2.420  51.319  1.00  0.00     0.058 C 
HETATM    3  O2  UNL     1      27.381   2.797  51.766  1.00  0.00    -0.349 OA
HETATM    4  C18 UNL     1      27.770   1.896  52.760  1.00  0.00     0.132 C 
HETATM    5  C21 UNL     1      26.455   1.611  53.451  1.00  0.00     0.074 C 
ENDROOT
BRANCH   1   6
HETATM    6  C8  UNL     1      24.226   1.033  52.431  1.00  0.00    -0.025 A 
HETATM    7  C7  UNL     1      24.021  -0.111  53.166  1.00  0.00     0.012 A 
HETATM    8  C6  UNL     1      22.806  -0.744  53.300  1.00  0.00     0.003 A 
HETATM    9  C5  UNL     1      21.701  -0.218  52.665  1.00  0.00     0.029 A 
HETATM   10  C4  UNL     1      21.854   0.928  51.916  1.00  0.00     0.035 A 
HETATM   11  C22 UNL     1      23.083   1.535  51.803  1.00  0.00     0.041 A 
BRANCH  10  12
HETATM   12  N1  UNL     1      20.674   1.416  51.290  1.00  0.00    -0.324 N 
HETATM   13  C3  UNL     1      19.887   2.504  51.766  1.00  0.00     0.244 C 
HETATM   14  O1  UNL     1      20.023   3.247  52.772  1.00  0.00    -0.268 OA
HETATM   15  H4  UNL     1      20.402   0.920  50.431  1.00  0.00     0.169 HD
BRANCH  13  16
HETATM   16  C2  UNL     1      18.706   2.855  50.982  1.00  0.00     0.064 C 
HETATM   17  C1  UNL     1      19.004   2.008  49.981  1.00  0.00     0.017 C 
ENDBRANCH  13  16
ENDBRANCH  10  12
ENDBRANCH   1   6
BRANCH   2  18
HETATM   18  C11 UNL     1      25.564   2.768  49.976  1.00  0.00     0.103 C 
BRANCH  18  19
HETATM   19  C12 UNL     1      26.112   4.074  49.564  1.00  0.00    -0.052 A 
HETATM   20  C13 UNL     1      27.259   4.332  48.861  1.00  0.00     0.007 A 
HETATM   21  C14 UNL     1      27.773   5.543  48.469  1.00  0.00     0.001 A 
HETATM   22  C15 UNL     1      26.990   6.631  48.861  1.00  0.00     0.000 A 
HETATM   23  C16 UNL     1      25.806   6.527  49.575  1.00  0.00     0.001 A 
HETATM   24  C17 UNL     1      25.407   5.237  49.904  1.00  0.00     0.007 A 
ENDBRANCH  18  19
ENDBRANCH   2  18
BRANCH   4  25
HETATM   25  C19 UNL     1      28.808   2.403  53.715  1.00  0.00     0.028 C 
HETATM   26  C20 UNL     1      29.313   1.188  54.502  1.00  0.00     0.007 C 
ENDBRANCH   4  25
TORSDOF 6
ENDMDL
MODEL 9
REMARK VINA RESULT:      -8.2      2.970      7.120
REMARK  6 active torsions:
REMARK  status: ('A' for Active; 'I' for Inactive)
REMARK    1  A    between atoms: C2_2  and  C3_3 
REMARK       I    between atoms: C3_3  and  N1_5 
REMARK    2  A    between atoms: N1_5  and  C4_6 
REMARK    3  A    between atoms: C8_10  and  C9_11 
REMARK    4  A    between atoms: C10_12  and  C11_13 
REMARK    5  A    between atoms: C11_13  and  C12_14 
REMARK    6  A    between atoms: C18_21  and  C19_22 
ROOT
HETATM    1  C9  UNL     1      22.901   2.141  52.045  1.00  0.00    -0.016 C 
HETATM    2  C10 UNL     1      22.099   2.118  50.973  1.00  0.00     0.058 C 
HETATM    3  O2  UNL     1      21.802   3.416  50.602  1.00  0.00    -0.349 OA
HETATM    4  C18 UNL     1      22.816   4.244  51.092  1.00  0.00     0.132 C 
HETATM    5  C21 UNL     1      23.145   3.583  52.411  1.00  0.00     0.074 C 
ENDROOT
BRANCH   1   6
HETATM    6  C8  UNL     1      23.557   1.147  52.900  1.00  0.00    -0.025 A 
HETATM    7  C7  UNL     1      22.923   0.081  53.493  1.00  0.00     0.012 A 
HETATM    8  C6  UNL     1      23.543  -0.842  54.304  1.00  0.00     0.003 A 
HETATM    9  C5  UNL     1      24.892  -0.714  54.557  1.00  0.00     0.029 A 
HETATM   10  C4  UNL     1      25.574   0.338  53.986  1.00  0.00     0.035 A 
HETATM   11  C22 UNL     1      24.923   1.243  53.180  1.00  0.00     0.041 A 
BRANCH  10  12
HETATM   12  N1  UNL     1      26.962   0.408  54.288  1.00  0.00    -0.324 N 
HETATM   13  C3  UNL     1      27.974  -0.381  53.669  1.00  0.00     0.244 C 
HETATM   14  O1  UNL     1      27.905  -1.263  52.775  1.00  0.00    -0.268 OA
HETATM   15  H4  UNL     1      27.214   1.093  55.013  1.00  0.00     0.169 HD
BRANCH  13  16
HETATM   16  C2  UNL     1      29.346  -0.163  54.118  1.00  0.00     0.064 C 
HETATM   17  C1  UNL     1      29.810  -1.291  53.552  1.00  0.00     0.017 C 
ENDBRANCH  13  16
ENDBRANCH  10  12
ENDBRANCH   1   6
BRANCH   2  18
HETATM   18  C11 UNL     1      21.594   0.896  50.271  1.00  0.00     0.103 C 
BRANCH  18  19
HETATM   19  C12 UNL     1      20.207   0.647  50.708  1.00  0.00    -0.052 A 
HETATM   20  C13 UNL     1      19.773   0.032  51.853  1.00  0.00     0.007 A 
HETATM   21  C14 UNL     1      18.487  -0.200  52.270  1.00  0.00     0.001 A 
HETATM   22  C15 UNL     1      17.521   0.270  51.376  1.00  0.00     0.000 A 
HETATM   23  C16 UNL     1      17.806   0.910  50.181  1.00  0.00     0.001 A 
HETATM   24  C17 UNL     1      19.155   1.077  49.888  1.00  0.00     0.007 A 
ENDBRANCH  18  19
ENDBRANCH   2  18
BRANCH   4  25
HETATM   25  C19 UNL     1      22.440   5.685  51.263  1.00  0.00     0.028 C 
HETATM   26  C20 UNL     1      23.745   6.488  51.224  1.00  0.00     0.007 C 
ENDBRANCH   4  25
TORSDOF 6
ENDMDL
