MODEL 1
REMARK VINA RESULT:      -7.2      0.000      0.000
REMARK  6 active torsions:
REMARK  status: ('A' for Active; 'I' for Inactive)
REMARK    1  A    between atoms: C2_2  and  C3_3 
REMARK    2  A    between atoms: C3_3  and  C4_4 
REMARK    3  A    between atoms: C3_3  and  C7_10 
REMARK    4  A    between atoms: C5_5  and  C6_6 
REMARK    5  A    between atoms: C8_12  and  N2_13 
REMARK    6  A    between atoms: C14_19  and  O1_20 
ROOT
HETATM    1  C7  UNL     1      24.452   1.152  52.954  1.00  0.00     0.060 A 
HETATM    2  N1  UNL     1      24.452  -0.103  53.341  1.00  0.00    -0.251 NA
HETATM    3  C8  UNL     1      23.172  -0.700  53.451  1.00  0.00     0.390 A 
HETATM    4  C9  UNL     1      22.252   0.387  53.070  1.00  0.00     0.072 A 
HETATM    5  C10 UNL     1      23.021   1.410  52.798  1.00  0.00     0.022 A 
HETATM    6  C11 UNL     1      22.648   2.765  52.321  1.00  0.00    -0.045 C 
HETATM    7  C12 UNL     1      23.642   3.786  52.708  1.00  0.00     0.049 C 
HETATM    8  C13 UNL     1      21.574   3.195  51.621  1.00  0.00     0.044 C 
HETATM    9  C14 UNL     1      20.380   2.575  51.057  1.00  0.00     0.064 C 
HETATM   10  C15 UNL     1      19.694   1.573  51.575  1.00  0.00     0.029 C 
HETATM   11  C16 UNL     1      19.634   0.655  52.707  1.00  0.00     0.149 C 
HETATM   12  N3  UNL     1      20.876   0.047  53.097  1.00  0.00    -0.386 N 
HETATM   13  H18 UNL     1      20.699  -0.914  53.515  1.00  0.00     0.159 HD
ENDROOT
BRANCH   1  14
HETATM   14  C3  UNL     1      25.583   2.080  52.738  1.00  0.00     0.117 C 
BRANCH  14  15
HETATM   15  C2  UNL     1      25.981   1.660  51.281  1.00  0.00     0.019 C 
HETATM   16  C1  UNL     1      26.418   2.857  50.499  1.00  0.00     0.006 C 
ENDBRANCH  14  15
BRANCH  14  17
HETATM   17  C4  UNL     1      26.857   1.715  53.338  1.00  0.00    -0.087 C 
HETATM   18  C5  UNL     1      27.936   1.395  53.827  1.00  0.00     0.009 C 
BRANCH  18  19
HETATM   19  C6  UNL     1      29.214   0.990  54.417  1.00  0.00     0.459 C 
HETATM   20  F1  UNL     1      29.966   0.441  53.396  1.00  0.00    -0.159 F 
HETATM   21  F2  UNL     1      28.986  -0.008  55.332  1.00  0.00    -0.159 F 
HETATM   22  F3  UNL     1      29.792   2.108  54.958  1.00  0.00    -0.159 F 
ENDBRANCH  18  19
ENDBRANCH  14  17
ENDBRANCH   1  14
BRANCH   3  23
HETATM   23  N2  UNL     1      22.880  -1.246  54.757  1.00  0.00     0.109 N 
HETATM   24  H8  UNL     1      23.053  -0.467  55.434  1.00  0.00     0.316 HD
HETATM   25  H9  UNL     1      23.494  -2.030  55.029  1.00  0.00     0.316 HD
ENDBRANCH   3  23
BRANCH   9  26
HETATM   26  O1  UNL     1      19.998   3.158  49.859  1.00  0.00    -0.361 OA
HETATM   27  H14 UNL     1      20.638   3.768  49.366  1.00  0.00     0.217 HD
ENDBRANCH   9  26
TORSDOF 6
ENDMDL
MODEL 2
REMARK VINA RESULT:      -7.1      3.662      4.901
REMARK  6 active torsions:
REMARK  status: ('A' for Active; 'I' for Inactive)
REMARK    1  A    between atoms: C2_2  and  C3_3 
REMARK    2  A    between atoms: C3_3  and  C4_4 
REMARK    3  A    between atoms: C3_3  and  C7_10 
REMARK    4  A    between atoms: C5_5  and  C6_6 
REMARK    5  A    between atoms: C8_12  and  N2_13 
REMARK    6  A    between atoms: C14_19  and  O1_20 
ROOT
HETATM    1  C7  UNL     1      23.677   1.847  51.493  1.00  0.00     0.060 A 
HETATM    2  N1  UNL     1      24.884   1.326  51.502  1.00  0.00    -0.251 NA
HETATM    3  C8  UNL     1      25.106   0.337  52.491  1.00  0.00     0.390 A 
HETATM    4  C9  UNL     1      23.814   0.258  53.196  1.00  0.00     0.072 A 
HETATM    5  C10 UNL     1      23.041   1.128  52.596  1.00  0.00     0.022 A 
HETATM    6  C11 UNL     1      21.616   1.451  52.853  1.00  0.00    -0.045 C 
HETATM    7  C12 UNL     1      21.275   2.830  52.449  1.00  0.00     0.049 C 
HETATM    8  C13 UNL     1      20.619   0.709  53.388  1.00  0.00     0.044 C 
HETATM    9  C14 UNL     1      20.497  -0.644  53.919  1.00  0.00     0.064 C 
HETATM   10  C15 UNL     1      21.413  -1.310  54.596  1.00  0.00     0.029 C 
HETATM   11  C16 UNL     1      22.765  -1.223  55.135  1.00  0.00     0.149 C 
HETATM   12  N3  UNL     1      23.765  -0.679  54.258  1.00  0.00    -0.386 N 
HETATM   13  H18 UNL     1      24.714  -1.102  54.477  1.00  0.00     0.159 HD
ENDROOT
BRANCH   1  14
HETATM   14  C3  UNL     1      23.098   2.890  50.619  1.00  0.00     0.117 C 
BRANCH  14  15
HETATM   15  C2  UNL     1      22.977   2.067  49.289  1.00  0.00     0.019 C 
HETATM   16  C1  UNL     1      21.582   1.558  49.123  1.00  0.00     0.006 C 
ENDBRANCH  14  15
BRANCH  14  17
HETATM   17  C4  UNL     1      24.017   3.883  50.083  1.00  0.00    -0.087 C 
HETATM   18  C5  UNL     1      24.795   4.707  49.614  1.00  0.00     0.009 C 
BRANCH  18  19
HETATM   19  C6  UNL     1      25.743   5.677  49.063  1.00  0.00     0.459 C 
HETATM   20  F1  UNL     1      25.086   6.341  48.045  1.00  0.00    -0.159 F 
HETATM   21  F2  UNL     1      26.792   4.999  48.491  1.00  0.00    -0.159 F 
HETATM   22  F3  UNL     1      26.121   6.512  50.081  1.00  0.00    -0.159 F 
ENDBRANCH  18  19
ENDBRANCH  14  17
ENDBRANCH   1  14
BRANCH   3  23
HETATM   23  N2  UNL     1      26.210   0.622  53.379  1.00  0.00     0.109 N 
HETATM   24  H8  UNL     1      26.632  -0.307  53.612  1.00  0.00     0.316 HD
HETATM   25  H9  UNL     1      25.927   1.062  54.269  1.00  0.00     0.316 HD
ENDBRANCH   3  23
BRANCH   9  26
HETATM   26  O1  UNL     1      19.262  -1.210  53.639  1.00  0.00    -0.361 OA
HETATM   27  H14 UNL     1      18.808  -1.024  52.755  1.00  0.00     0.217 HD
ENDBRANCH   9  26
TORSDOF 6
ENDMDL
MODEL 3
REMARK VINA RESULT:      -7.1      4.008      5.521
REMARK  6 active torsions:
REMARK  status: ('A' for Active; 'I' for Inactive)
REMARK    1  A    between atoms: C2_2  and  C3_3 
REMARK    2  A    between atoms: C3_3  and  C4_4 
REMARK    3  A    between atoms: C3_3  and  C7_10 
REMARK    4  A    between atoms: C5_5  and  C6_6 
REMARK    5  A    between atoms: C8_12  and  N2_13 
REMARK    6  A    between atoms: C14_19  and  O1_20 
ROOT
HETATM    1  C7  UNL     1      25.623   2.921  51.319  1.00  0.00     0.060 A 
HETATM    2  N1  UNL     1      26.906   2.635  51.309  1.00  0.00    -0.251 NA
HETATM    3  C8  UNL     1      27.310   1.645  52.239  1.00  0.00     0.390 A 
HETATM    4  C9  UNL     1      26.055   1.285  52.925  1.00  0.00     0.072 A 
HETATM    5  C10 UNL     1      25.133   2.030  52.370  1.00  0.00     0.022 A 
HETATM    6  C11 UNL     1      23.673   2.066  52.630  1.00  0.00    -0.045 C 
HETATM    7  C12 UNL     1      23.080   3.380  52.307  1.00  0.00     0.049 C 
HETATM    8  C13 UNL     1      22.832   1.121  53.109  1.00  0.00     0.044 C 
HETATM    9  C14 UNL     1      22.965  -0.262  53.556  1.00  0.00     0.064 C 
HETATM   10  C15 UNL     1      23.990  -0.786  54.201  1.00  0.00     0.029 C 
HETATM   11  C16 UNL     1      25.302  -0.482  54.759  1.00  0.00     0.149 C 
HETATM   12  N3  UNL     1      26.182   0.291  53.927  1.00  0.00    -0.386 N 
HETATM   13  H18 UNL     1      27.194   0.040  54.130  1.00  0.00     0.159 HD
ENDROOT
BRANCH   1  14
HETATM   14  C3  UNL     1      24.860   3.890  50.504  1.00  0.00     0.117 C 
BRANCH  14  15
HETATM   15  C2  UNL     1      24.558   2.989  49.256  1.00  0.00     0.019 C 
HETATM   16  C1  UNL     1      23.182   3.264  48.741  1.00  0.00     0.006 C 
ENDBRANCH  14  15
BRANCH  14  17
HETATM   17  C4  UNL     1      25.629   4.884  49.771  1.00  0.00    -0.087 C 
HETATM   18  C5  UNL     1      26.290   5.707  49.147  1.00  0.00     0.009 C 
BRANCH  18  19
HETATM   19  C6  UNL     1      27.098   6.688  48.419  1.00  0.00     0.459 C 
HETATM   20  F1  UNL     1      26.298   7.193  47.412  1.00  0.00    -0.159 F 
HETATM   21  F2  UNL     1      28.148   6.040  47.814  1.00  0.00    -0.159 F 
HETATM   22  F3  UNL     1      27.490   7.647  49.314  1.00  0.00    -0.159 F 
ENDBRANCH  18  19
ENDBRANCH  14  17
ENDBRANCH   1  14
BRANCH   3  23
HETATM   23  N2  UNL     1      28.342   2.076  53.155  1.00  0.00     0.109 N 
HETATM   24  H8  UNL     1      29.207   2.183  52.576  1.00  0.00     0.316 HD
HETATM   25  H9  UNL     1      28.553   1.390  53.897  1.00  0.00     0.316 HD
ENDBRANCH   3  23
BRANCH   9  26
HETATM   26  O1  UNL     1      21.857  -1.030  53.229  1.00  0.00    -0.361 OA
HETATM   27  H14 UNL     1      21.765  -1.968  53.594  1.00  0.00     0.217 HD
ENDBRANCH   9  26
TORSDOF 6
ENDMDL
MODEL 4
REMARK VINA RESULT:      -7.0      5.369      7.560
REMARK  6 active torsions:
REMARK  status: ('A' for Active; 'I' for Inactive)
REMARK    1  A    between atoms: C2_2  and  C3_3 
REMARK    2  A    between atoms: C3_3  and  C4_4 
REMARK    3  A    between atoms: C3_3  and  C7_10 
REMARK    4  A    between atoms: C5_5  and  C6_6 
REMARK    5  A    between atoms: C8_12  and  N2_13 
REMARK    6  A    between atoms: C14_19  and  O1_20 
ROOT
HETATM    1  C7  UNL     1      24.459   5.031  49.614  1.00  0.00     0.060 A 
HETATM    2  N1  UNL     1      23.568   5.879  50.078  1.00  0.00    -0.251 NA
HETATM    3  C8  UNL     1      24.054   7.185  50.332  1.00  0.00     0.390 A 
HETATM    4  C9  UNL     1      25.479   7.100  49.963  1.00  0.00     0.072 A 
HETATM    5  C10 UNL     1      25.658   5.866  49.564  1.00  0.00     0.022 A 
HETATM    6  C11 UNL     1      26.885   5.219  49.036  1.00  0.00    -0.045 C 
HETATM    7  C12 UNL     1      26.893   3.762  49.273  1.00  0.00     0.049 C 
HETATM    8  C13 UNL     1      27.962   5.739  48.404  1.00  0.00     0.044 C 
HETATM    9  C14 UNL     1      28.380   7.072  47.982  1.00  0.00     0.064 C 
HETATM   10  C15 UNL     1      28.153   8.206  48.618  1.00  0.00     0.029 C 
HETATM   11  C16 UNL     1      27.531   8.779  49.806  1.00  0.00     0.149 C 
HETATM   12  N3  UNL     1      26.214   8.300  50.127  1.00  0.00    -0.386 N 
HETATM   13  H18 UNL     1      25.657   9.060  50.617  1.00  0.00     0.159 HD
ENDROOT
BRANCH   1  14
HETATM   14  C3  UNL     1      24.314   3.606  49.246  1.00  0.00     0.117 C 
BRANCH  14  15
HETATM   15  C2  UNL     1      22.899   3.661  48.572  1.00  0.00     0.019 C 
HETATM   16  C1  UNL     1      22.690   2.457  47.712  1.00  0.00     0.006 C 
ENDBRANCH  14  15
BRANCH  14  17
HETATM   17  C4  UNL     1      23.925   2.689  50.307  1.00  0.00    -0.087 C 
HETATM   18  C5  UNL     1      23.602   1.900  51.188  1.00  0.00     0.009 C 
BRANCH  18  19
HETATM   19  C6  UNL     1      23.195   0.952  52.228  1.00  0.00     0.459 C 
HETATM   20  F1  UNL     1      22.154   0.210  51.704  1.00  0.00    -0.159 F 
HETATM   21  F2  UNL     1      22.692   1.653  53.297  1.00  0.00    -0.159 F 
HETATM   22  F3  UNL     1      24.286   0.186  52.540  1.00  0.00    -0.159 F 
ENDBRANCH  18  19
ENDBRANCH  14  17
ENDBRANCH   1  14
BRANCH   3  23
HETATM   23  N2  UNL     1      23.855   7.639  51.690  1.00  0.00     0.109 N 
HETATM   24  H8  UNL     1      23.267   6.906  52.150  1.00  0.00     0.316 HD
HETATM   25  H9  UNL     1      23.343   8.533  51.760  1.00  0.00     0.316 HD
ENDBRANCH   3  23
BRANCH   9  26
HETATM   26  O1  UNL     1      29.081   7.050  46.786  1.00  0.00    -0.361 OA
HETATM   27  H14 UNL     1      28.583   7.078  45.906  1.00  0.00     0.217 HD
ENDBRANCH   9  26
TORSDOF 6
ENDMDL
MODEL 5
REMARK VINA RESULT:      -6.8      5.182      6.983
REMARK  6 active torsions:
REMARK  status: ('A' for Active; 'I' for Inactive)
REMARK    1  A    between atoms: C2_2  and  C3_3 
REMARK    2  A    between atoms: C3_3  and  C4_4 
REMARK    3  A    between atoms: C3_3  and  C7_10 
REMARK    4  A    between atoms: C5_5  and  C6_6 
REMARK    5  A    between atoms: C8_12  and  N2_13 
REMARK    6  A    between atoms: C14_19  and  O1_20 
ROOT
HETATM    1  C7  UNL     1      23.700   2.837  50.864  1.00  0.00     0.060 A 
HETATM    2  N1  UNL     1      22.574   2.346  51.330  1.00  0.00    -0.251 NA
HETATM    3  C8  UNL     1      22.716   1.354  52.331  1.00  0.00     0.390 A 
HETATM    4  C9  UNL     1      24.177   1.226  52.484  1.00  0.00     0.072 A 
HETATM    5  C10 UNL     1      24.688   2.083  51.636  1.00  0.00     0.022 A 
HETATM    6  C11 UNL     1      26.111   2.418  51.383  1.00  0.00    -0.045 C 
HETATM    7  C12 UNL     1      26.331   2.921  50.012  1.00  0.00     0.049 C 
HETATM    8  C13 UNL     1      27.200   2.330  52.181  1.00  0.00     0.044 C 
HETATM    9  C14 UNL     1      27.456   1.897  53.551  1.00  0.00     0.064 C 
HETATM   10  C15 UNL     1      26.855   0.912  54.190  1.00  0.00     0.029 C 
HETATM   11  C16 UNL     1      25.838  -0.125  54.056  1.00  0.00     0.149 C 
HETATM   12  N3  UNL     1      24.599   0.277  53.446  1.00  0.00    -0.386 N 
HETATM   13  H18 UNL     1      23.797  -0.303  53.832  1.00  0.00     0.159 HD
ENDROOT
BRANCH   1  14
HETATM   14  C3  UNL     1      23.933   3.866  49.828  1.00  0.00     0.117 C 
BRANCH  14  15
HETATM   15  C2  UNL     1      23.189   5.072  50.498  1.00  0.00     0.019 C 
HETATM   16  C1  UNL     1      24.178   6.015  51.106  1.00  0.00     0.006 C 
ENDBRANCH  14  15
BRANCH  14  17
HETATM   17  C4  UNL     1      23.081   3.817  48.650  1.00  0.00    -0.087 C 
HETATM   18  C5  UNL     1      22.370   3.796  47.651  1.00  0.00     0.009 C 
BRANCH  18  19
HETATM   19  C6  UNL     1      21.505   3.786  46.469  1.00  0.00     0.459 C 
HETATM   20  F1  UNL     1      22.248   3.248  45.436  1.00  0.00    -0.159 F 
HETATM   21  F2  UNL     1      21.210   5.082  46.122  1.00  0.00    -0.159 F 
HETATM   22  F3  UNL     1      20.399   3.035  46.771  1.00  0.00    -0.159 F 
ENDBRANCH  18  19
ENDBRANCH  14  17
ENDBRANCH   1  14
BRANCH   3  23
HETATM   23  N2  UNL     1      22.076   0.097  52.018  1.00  0.00     0.109 N 
HETATM   24  H8  UNL     1      21.555   0.260  51.125  1.00  0.00     0.316 HD
HETATM   25  H9  UNL     1      21.387  -0.208  52.723  1.00  0.00     0.316 HD
ENDBRANCH   3  23
BRANCH   9  26
HETATM   26  O1  UNL     1      28.445   2.651  54.165  1.00  0.00    -0.361 OA
HETATM   27  H14 UNL     1      29.104   2.208  54.791  1.00  0.00     0.217 HD
ENDBRANCH   9  26
TORSDOF 6
ENDMDL
MODEL 6
REMARK VINA RESULT:      -6.8      3.980      6.138
REMARK  6 active torsions:
REMARK  status: ('A' for Active; 'I' for Inactive)
REMARK    1  A    between atoms: C2_2  and  C3_3 
REMARK    2  A    between atoms: C3_3  and  C4_4 
REMARK    3  A    between atoms: C3_3  and  C7_10 
REMARK    4  A    between atoms: C5_5  and  C6_6 
REMARK    5  A    between atoms: C8_12  and  N2_13 
REMARK    6  A    between atoms: C14_19  and  O1_20 
ROOT
HETATM    1  C7  UNL     1      23.637   2.149  51.479  1.00  0.00     0.060 A 
HETATM    2  N1  UNL     1      24.587   1.855  52.338  1.00  0.00    -0.251 NA
HETATM    3  C8  UNL     1      25.858   2.407  52.044  1.00  0.00     0.390 A 
HETATM    4  C9  UNL     1      25.628   3.152  50.793  1.00  0.00     0.072 A 
HETATM    5  C10 UNL     1      24.361   2.977  50.516  1.00  0.00     0.022 A 
HETATM    6  C11 UNL     1      23.560   3.529  49.395  1.00  0.00    -0.045 C 
HETATM    7  C12 UNL     1      22.407   2.670  49.057  1.00  0.00     0.049 C 
HETATM    8  C13 UNL     1      23.720   4.650  48.656  1.00  0.00     0.044 C 
HETATM    9  C14 UNL     1      24.681   5.748  48.623  1.00  0.00     0.064 C 
HETATM   10  C15 UNL     1      25.977   5.667  48.860  1.00  0.00     0.029 C 
HETATM   11  C16 UNL     1      27.049   4.743  49.209  1.00  0.00     0.149 C 
HETATM   12  N3  UNL     1      26.766   3.815  50.270  1.00  0.00    -0.386 N 
HETATM   13  H18 UNL     1      27.659   3.571  50.791  1.00  0.00     0.159 HD
ENDROOT
BRANCH   1  14
HETATM   14  C3  UNL     1      22.213   1.750  51.464  1.00  0.00     0.117 C 
BRANCH  14  15
HETATM   15  C2  UNL     1      21.617   2.906  52.341  1.00  0.00     0.019 C 
HETATM   16  C1  UNL     1      20.179   3.125  51.997  1.00  0.00     0.006 C 
ENDBRANCH  14  15
BRANCH  14  17
HETATM   17  C4  UNL     1      21.820   0.678  52.365  1.00  0.00    -0.087 C 
HETATM   18  C5  UNL     1      21.499  -0.216  53.141  1.00  0.00     0.009 C 
BRANCH  18  19
HETATM   19  C6  UNL     1      21.139  -1.293  54.067  1.00  0.00     0.459 C 
HETATM   20  F1  UNL     1      21.884  -2.397  53.700  1.00  0.00    -0.159 F 
HETATM   21  F2  UNL     1      19.817  -1.616  53.881  1.00  0.00    -0.159 F 
HETATM   22  F3  UNL     1      21.424  -0.861  55.335  1.00  0.00    -0.159 F 
ENDBRANCH  18  19
ENDBRANCH  14  17
ENDBRANCH   1  14
BRANCH   3  23
HETATM   23  N2  UNL     1      26.918   1.431  51.925  1.00  0.00     0.109 N 
HETATM   24  H8  UNL     1      27.571   1.626  52.718  1.00  0.00     0.316 HD
HETATM   25  H9  UNL     1      27.463   1.511  51.052  1.00  0.00     0.316 HD
ENDBRANCH   3  23
BRANCH   9  26
HETATM   26  O1  UNL     1      24.087   6.959  48.301  1.00  0.00    -0.361 OA
HETATM   27  H14 UNL     1      23.106   6.993  48.058  1.00  0.00     0.217 HD
ENDBRANCH   9  26
TORSDOF 6
ENDMDL
MODEL 7
REMARK VINA RESULT:      -6.7      4.928      7.145
REMARK  6 active torsions:
REMARK  status: ('A' for Active; 'I' for Inactive)
REMARK    1  A    between atoms: C2_2  and  C3_3 
REMARK    2  A    between atoms: C3_3  and  C4_4 
REMARK    3  A    between atoms: C3_3  and  C7_10 
REMARK    4  A    between atoms: C5_5  and  C6_6 
REMARK    5  A    between atoms: C8_12  and  N2_13 
REMARK    6  A    between atoms: C14_19  and  O1_20 
ROOT
HETATM    1  C7  UNL     1      21.937   1.245  51.996  1.00  0.00     0.060 A 
HETATM    2  N1  UNL     1      22.090   0.571  53.113  1.00  0.00    -0.251 NA
HETATM    3  C8  UNL     1      23.432   0.335  53.497  1.00  0.00     0.390 A 
HETATM    4  C9  UNL     1      24.215   0.971  52.422  1.00  0.00     0.072 A 
HETATM    5  C10 UNL     1      23.327   1.471  51.600  1.00  0.00     0.022 A 
HETATM    6  C11 UNL     1      23.535   2.259  50.360  1.00  0.00    -0.045 C 
HETATM    7  C12 UNL     1      22.410   2.116  49.413  1.00  0.00     0.049 C 
HETATM    8  C13 UNL     1      24.560   3.051  49.972  1.00  0.00     0.044 C 
HETATM    9  C14 UNL     1      25.836   3.463  50.549  1.00  0.00     0.064 C 
HETATM   10  C15 UNL     1      26.632   2.728  51.303  1.00  0.00     0.029 C 
HETATM   11  C16 UNL     1      26.784   1.412  51.912  1.00  0.00     0.149 C 
HETATM   12  N3  UNL     1      25.621   0.877  52.566  1.00  0.00    -0.386 N 
HETATM   13  H18 UNL     1      25.911   0.245  53.369  1.00  0.00     0.159 HD
ENDROOT
BRANCH   1  14
HETATM   14  C3  UNL     1      20.703   1.664  51.299  1.00  0.00     0.117 C 
BRANCH  14  15
HETATM   15  C2  UNL     1      20.236   2.801  52.272  1.00  0.00     0.019 C 
HETATM   16  C1  UNL     1      20.243   4.120  51.567  1.00  0.00     0.006 C 
ENDBRANCH  14  15
BRANCH  14  17
HETATM   17  C4  UNL     1      19.525   0.830  51.488  1.00  0.00    -0.087 C 
HETATM   18  C5  UNL     1      18.524   0.144  51.658  1.00  0.00     0.009 C 
BRANCH  18  19
HETATM   19  C6  UNL     1      17.335  -0.681  51.885  1.00  0.00     0.459 C 
HETATM   20  F1  UNL     1      16.499   0.046  52.711  1.00  0.00    -0.159 F 
HETATM   21  F2  UNL     1      17.701  -1.811  52.575  1.00  0.00    -0.159 F 
HETATM   22  F3  UNL     1      16.773  -0.943  50.664  1.00  0.00    -0.159 F 
ENDBRANCH  18  19
ENDBRANCH  14  17
ENDBRANCH   1  14
BRANCH   3  23
HETATM   23  N2  UNL     1      23.763  -1.061  53.677  1.00  0.00     0.109 N 
HETATM   24  H8  UNL     1      24.796  -1.128  53.522  1.00  0.00     0.316 HD
HETATM   25  H9  UNL     1      23.309  -1.688  52.995  1.00  0.00     0.316 HD
ENDBRANCH   3  23
BRANCH   9  26
HETATM   26  O1  UNL     1      26.165   4.769  50.221  1.00  0.00    -0.361 OA
HETATM   27  H14 UNL     1      25.449   5.482  50.198  1.00  0.00     0.217 HD
ENDBRANCH   9  26
TORSDOF 6
ENDMDL
MODEL 8
REMARK VINA RESULT:      -6.7      2.767      4.098
REMARK  6 active torsions:
REMARK  status: ('A' for Active; 'I' for Inactive)
REMARK    1  A    between atoms: C2_2  and  C3_3 
REMARK    2  A    between atoms: C3_3  and  C4_4 
REMARK    3  A    between atoms: C3_3  and  C7_10 
REMARK    4  A    between atoms: C5_5  and  C6_6 
REMARK    5  A    between atoms: C8_12  and  N2_13 
REMARK    6  A    between atoms: C14_19  and  O1_20 
ROOT
HETATM    1  C7  UNL     1      23.164   2.797  51.870  1.00  0.00     0.060 A 
HETATM    2  N1  UNL     1      23.627   3.702  52.702  1.00  0.00    -0.251 NA
HETATM    3  C8  UNL     1      23.126   5.013  52.507  1.00  0.00     0.390 A 
HETATM    4  C9  UNL     1      22.214   4.866  51.358  1.00  0.00     0.072 A 
HETATM    5  C10 UNL     1      22.269   3.599  51.035  1.00  0.00     0.022 A 
HETATM    6  C11 UNL     1      21.528   2.865  49.979  1.00  0.00    -0.045 C 
HETATM    7  C12 UNL     1      22.259   1.671  49.510  1.00  0.00     0.049 C 
HETATM    8  C13 UNL     1      20.334   3.117  49.395  1.00  0.00     0.044 C 
HETATM    9  C14 UNL     1      19.306   4.145  49.523  1.00  0.00     0.064 C 
HETATM   10  C15 UNL     1      19.502   5.426  49.773  1.00  0.00     0.029 C 
HETATM   11  C16 UNL     1      20.532   6.428  50.022  1.00  0.00     0.149 C 
HETATM   12  N3  UNL     1      21.567   6.057  50.948  1.00  0.00    -0.386 N 
HETATM   13  H18 UNL     1      21.933   6.918  51.451  1.00  0.00     0.159 HD
ENDROOT
BRANCH   1  14
HETATM   14  C3  UNL     1      23.462   1.352  51.775  1.00  0.00     0.117 C 
BRANCH  14  15
HETATM   15  C2  UNL     1      22.707   0.853  53.055  1.00  0.00     0.019 C 
HETATM   16  C1  UNL     1      21.742  -0.231  52.695  1.00  0.00     0.006 C 
ENDBRANCH  14  15
BRANCH  14  17
HETATM   17  C4  UNL     1      24.780   0.922  52.217  1.00  0.00    -0.087 C 
HETATM   18  C5  UNL     1      25.882   0.541  52.596  1.00  0.00     0.009 C 
BRANCH  18  19
HETATM   19  C6  UNL     1      27.192   0.090  53.073  1.00  0.00     0.459 C 
HETATM   20  F1  UNL     1      27.449  -1.115  52.448  1.00  0.00    -0.159 F 
HETATM   21  F2  UNL     1      27.113  -0.162  54.421  1.00  0.00    -0.159 F 
HETATM   22  F3  UNL     1      28.106   1.058  52.750  1.00  0.00    -0.159 F 
ENDBRANCH  18  19
ENDBRANCH  14  17
ENDBRANCH   1  14
BRANCH   3  23
HETATM   23  N2  UNL     1      24.147   6.012  52.284  1.00  0.00     0.109 N 
HETATM   24  H8  UNL     1      24.720   6.031  53.159  1.00  0.00     0.316 HD
HETATM   25  H9  UNL     1      23.774   6.965  52.141  1.00  0.00     0.316 HD
ENDBRANCH   3  23
BRANCH   9  26
HETATM   26  O1  UNL     1      18.028   3.637  49.348  1.00  0.00    -0.361 OA
HETATM   27  H14 UNL     1      17.276   4.246  49.053  1.00  0.00     0.217 HD
ENDBRANCH   9  26
TORSDOF 6
ENDMDL
MODEL 9
REMARK VINA RESULT:      -6.6      5.275      7.293
REMARK  6 active torsions:
REMARK  status: ('A' for Active; 'I' for Inactive)
REMARK    1  A    between atoms: C2_2  and  C3_3 
REMARK    2  A    between atoms: C3_3  and  C4_4 
REMARK    3  A    between atoms: C3_3  and  C7_10 
REMARK    4  A    between atoms: C5_5  and  C6_6 
REMARK    5  A    between atoms: C8_12  and  N2_13 
REMARK    6  A    between atoms: C14_19  and  O1_20 
ROOT
HETATM    1  C7  UNL     1      21.574   0.914  52.611  1.00  0.00     0.060 A 
HETATM    2  N1  UNL     1      20.935   0.160  53.477  1.00  0.00    -0.251 NA
HETATM    3  C8  UNL     1      21.760  -0.580  54.359  1.00  0.00     0.390 A 
HETATM    4  C9  UNL     1      23.126  -0.208  53.945  1.00  0.00     0.072 A 
HETATM    5  C10 UNL     1      22.968   0.636  52.957  1.00  0.00     0.022 A 
HETATM    6  C11 UNL     1      23.994   1.371  52.177  1.00  0.00    -0.045 C 
HETATM    7  C12 UNL     1      23.524   1.716  50.821  1.00  0.00     0.049 C 
HETATM    8  C13 UNL     1      25.251   1.753  52.501  1.00  0.00     0.044 C 
HETATM    9  C14 UNL     1      26.109   1.627  53.675  1.00  0.00     0.064 C 
HETATM   10  C15 UNL     1      26.161   0.603  54.506  1.00  0.00     0.029 C 
HETATM   11  C16 UNL     1      25.596  -0.714  54.780  1.00  0.00     0.149 C 
HETATM   12  N3  UNL     1      24.166  -0.823  54.684  1.00  0.00    -0.386 N 
HETATM   13  H18 UNL     1      23.810  -1.569  55.352  1.00  0.00     0.159 HD
ENDROOT
BRANCH   1  14
HETATM   14  C3  UNL     1      21.048   1.803  51.554  1.00  0.00     0.117 C 
BRANCH  14  15
HETATM   15  C2  UNL     1      20.523   2.978  52.450  1.00  0.00     0.019 C 
HETATM   16  C1  UNL     1      21.361   4.199  52.242  1.00  0.00     0.006 C 
ENDBRANCH  14  15
BRANCH  14  17
HETATM   17  C4  UNL     1      19.747   1.464  50.997  1.00  0.00    -0.087 C 
HETATM   18  C5  UNL     1      18.642   1.192  50.541  1.00  0.00     0.009 C 
BRANCH  18  19
HETATM   19  C6  UNL     1      17.317   0.851  50.017  1.00  0.00     0.459 C 
HETATM   20  F1  UNL     1      17.362  -0.483  49.660  1.00  0.00    -0.159 F 
HETATM   21  F2  UNL     1      17.095   1.570  48.867  1.00  0.00    -0.159 F 
HETATM   22  F3  UNL     1      16.403   1.103  51.006  1.00  0.00    -0.159 F 
ENDBRANCH  18  19
ENDBRANCH  14  17
ENDBRANCH   1  14
BRANCH   3  23
HETATM   23  N2  UNL     1      21.537  -2.007  54.327  1.00  0.00     0.109 N 
HETATM   24  H8  UNL     1      22.430  -2.425  53.977  1.00  0.00     0.316 HD
HETATM   25  H9  UNL     1      20.788  -2.298  53.679  1.00  0.00     0.316 HD
ENDBRANCH   3  23
BRANCH   9  26
HETATM   26  O1  UNL     1      26.919   2.738  53.857  1.00  0.00    -0.361 OA
HETATM   27  H14 UNL     1      26.815   3.310  54.685  1.00  0.00     0.217 HD
ENDBRANCH   9  26
TORSDOF 6
ENDMDL
