MODEL 1
REMARK VINA RESULT:      -9.0      0.000      0.000
REMARK  6 active torsions:
REMARK  status: ('A' for Active; 'I' for Inactive)
REMARK    1  A    between atoms: C3_3  and  C4_4 
REMARK    2  A    between atoms: C4_4  and  C5_5 
REMARK    3  A    between atoms: N4_18  and  C14_19 
REMARK    4  A    between atoms: C14_19  and  C15_20 
REMARK    5  A    between atoms: C15_20  and  C16_21 
REMARK    6  A    between atoms: C19_24  and  O1_25 
ROOT
HETATM    1  C1  UNL     1      20.561   1.386  52.131  1.00  0.00     0.078 C 
HETATM    2  C2  UNL     1      21.556   0.651  52.905  1.00  0.00     0.070 C 
HETATM    3  C3  UNL     1      22.860   0.851  52.996  1.00  0.00     0.068 C 
HETATM    4  N4  UNL     1      23.713   0.019  53.821  1.00  0.00    -0.314 N 
HETATM    5  C20 UNL     1      23.134  -1.051  54.556  1.00  0.00     0.248 C 
HETATM    6  O2  UNL     1      23.677  -1.391  55.634  1.00  0.00    -0.271 OA
HETATM    7  C21 UNL     1      21.920  -1.585  53.848  1.00  0.00     0.278 C 
HETATM    8  O3  UNL     1      21.103  -0.417  53.665  1.00  0.00    -0.344 OA
ENDROOT
BRANCH   3   9
HETATM    9  C4  UNL     1      23.392   1.938  52.233  1.00  0.00     0.061 C 
BRANCH   9  10
HETATM   10  C5  UNL     1      23.738   3.003  51.530  1.00  0.00     0.063 C 
HETATM   11  N1  UNL     1      24.863   3.632  50.865  1.00  0.00    -0.244 NA
HETATM   12  C6  UNL     1      25.598   3.102  49.990  1.00  0.00     0.232 C 
HETATM   13  N2  UNL     1      26.685   3.868  49.419  1.00  0.00    -0.254 NA
HETATM   14  C7  UNL     1      26.449   5.112  49.055  1.00  0.00     0.126 C 
HETATM   15  C8  UNL     1      25.012   5.355  49.379  1.00  0.00    -0.021 C 
HETATM   16  C9  UNL     1      24.977   6.294  50.353  1.00  0.00     0.029 C 
HETATM   17  C13 UNL     1      23.832   4.716  48.785  1.00  0.00     0.119 C 
HETATM   18  C10 UNL     1      23.989   6.291  51.460  1.00  0.00     0.112 C 
HETATM   19  N3  UNL     1      23.144   5.377  51.838  1.00  0.00    -0.290 NA
HETATM   20  C11 UNL     1      22.869   4.154  51.104  1.00  0.00     0.161 C 
HETATM   21  C12 UNL     1      22.738   4.284  49.635  1.00  0.00     0.058 C 
HETATM   22 CL1  UNL     1      23.198   5.858  47.535  1.00  0.00    -0.120 Cl
ENDBRANCH   9  10
ENDBRANCH   3   9
BRANCH   4  23
HETATM   23  C14 UNL     1      25.144   0.254  53.917  1.00  0.00     0.134 C 
BRANCH  23  24
HETATM   24  C15 UNL     1      25.950  -0.512  52.910  1.00  0.00     0.056 C 
BRANCH  24  25
HETATM   25  C16 UNL     1      27.249   0.181  52.558  1.00  0.00     0.225 C 
HETATM   26  C17 UNL     1      28.322  -0.479  53.420  1.00  0.00     0.040 C 
HETATM   27  C18 UNL     1      29.344   0.621  53.538  1.00  0.00     0.066 C 
HETATM   28  C19 UNL     1      28.474   1.850  53.631  1.00  0.00     0.354 C 
HETATM   29  N5  UNL     1      27.278   1.572  52.880  1.00  0.00     0.116 N 
HETATM   30  H24 UNL     1      27.182   2.214  52.075  1.00  0.00     0.319 HD
BRANCH  28  31
HETATM   31  O1  UNL     1      29.148   2.895  53.038  1.00  0.00    -0.368 OA
HETATM   32  H23 UNL     1      30.020   2.587  52.716  1.00  0.00     0.212 HD
ENDBRANCH  28  31
ENDBRANCH  24  25
ENDBRANCH  23  24
ENDBRANCH   4  23
TORSDOF 6
ENDMDL
MODEL 2
REMARK VINA RESULT:      -9.0      1.600      1.793
REMARK  6 active torsions:
REMARK  status: ('A' for Active; 'I' for Inactive)
REMARK    1  A    between atoms: C3_3  and  C4_4 
REMARK    2  A    between atoms: C4_4  and  C5_5 
REMARK    3  A    between atoms: N4_18  and  C14_19 
REMARK    4  A    between atoms: C14_19  and  C15_20 
REMARK    5  A    between atoms: C15_20  and  C16_21 
REMARK    6  A    between atoms: C19_24  and  O1_25 
ROOT
HETATM    1  C1  UNL     1      21.208   2.428  52.495  1.00  0.00     0.078 C 
HETATM    2  C2  UNL     1      22.254   1.476  52.855  1.00  0.00     0.070 C 
HETATM    3  C3  UNL     1      23.536   1.480  52.533  1.00  0.00     0.068 C 
HETATM    4  N4  UNL     1      24.447   0.447  52.980  1.00  0.00    -0.314 N 
HETATM    5  C20 UNL     1      23.952  -0.611  53.790  1.00  0.00     0.248 C 
HETATM    6  O2  UNL     1      24.735  -1.147  54.609  1.00  0.00    -0.271 OA
HETATM    7  C21 UNL     1      22.506  -0.884  53.478  1.00  0.00     0.278 C 
HETATM    8  O3  UNL     1      21.883   0.400  53.648  1.00  0.00    -0.344 OA
ENDROOT
BRANCH   3   9
HETATM    9  C4  UNL     1      23.982   2.565  51.714  1.00  0.00     0.061 C 
BRANCH   9  10
HETATM   10  C5  UNL     1      24.336   3.662  51.066  1.00  0.00     0.063 C 
HETATM   11  N1  UNL     1      25.454   4.298  50.396  1.00  0.00    -0.244 NA
HETATM   12  C6  UNL     1      26.135   3.804  49.458  1.00  0.00     0.232 C 
HETATM   13  N2  UNL     1      27.223   4.571  48.892  1.00  0.00    -0.254 NA
HETATM   14  C7  UNL     1      27.014   5.844  48.618  1.00  0.00     0.126 C 
HETATM   15  C8  UNL     1      25.600   6.109  49.017  1.00  0.00    -0.021 C 
HETATM   16  C9  UNL     1      25.635   6.983  50.050  1.00  0.00     0.029 C 
HETATM   17  C13 UNL     1      24.377   5.546  48.434  1.00  0.00     0.119 C 
HETATM   18  C10 UNL     1      24.693   6.938  51.195  1.00  0.00     0.112 C 
HETATM   19  N3  UNL     1      23.834   6.028  51.549  1.00  0.00    -0.290 NA
HETATM   20  C11 UNL     1      23.489   4.864  50.751  1.00  0.00     0.161 C 
HETATM   21  C12 UNL     1      23.304   5.094  49.300  1.00  0.00     0.058 C 
HETATM   22 CL1  UNL     1      23.731   6.785  47.287  1.00  0.00    -0.120 Cl
ENDBRANCH   9  10
ENDBRANCH   3   9
BRANCH   4  23
HETATM   23  C14 UNL     1      25.857   0.467  52.625  1.00  0.00     0.134 C 
BRANCH  23  24
HETATM   24  C15 UNL     1      26.746   0.995  53.713  1.00  0.00     0.056 C 
BRANCH  24  25
HETATM   25  C16 UNL     1      27.755  -0.029  54.185  1.00  0.00     0.225 C 
HETATM   26  C17 UNL     1      29.115   0.474  53.708  1.00  0.00     0.040 C 
HETATM   27  C18 UNL     1      29.897  -0.808  53.594  1.00  0.00     0.066 C 
HETATM   28  C19 UNL     1      28.850  -1.770  53.087  1.00  0.00     0.354 C 
HETATM   29  N5  UNL     1      27.587  -1.327  53.613  1.00  0.00     0.116 N 
HETATM   30  H24 UNL     1      27.172  -2.036  54.241  1.00  0.00     0.319 HD
BRANCH  28  31
HETATM   31  O1  UNL     1      29.139  -3.019  53.593  1.00  0.00    -0.368 OA
HETATM   32  H23 UNL     1      29.219  -2.972  54.567  1.00  0.00     0.212 HD
ENDBRANCH  28  31
ENDBRANCH  24  25
ENDBRANCH  23  24
ENDBRANCH   4  23
TORSDOF 6
ENDMDL
MODEL 3
REMARK VINA RESULT:      -8.9      1.930      2.561
REMARK  6 active torsions:
REMARK  status: ('A' for Active; 'I' for Inactive)
REMARK    1  A    between atoms: C3_3  and  C4_4 
REMARK    2  A    between atoms: C4_4  and  C5_5 
REMARK    3  A    between atoms: N4_18  and  C14_19 
REMARK    4  A    between atoms: C14_19  and  C15_20 
REMARK    5  A    between atoms: C15_20  and  C16_21 
REMARK    6  A    between atoms: C19_24  and  O1_25 
ROOT
HETATM    1  C1  UNL     1      20.092   0.876  51.872  1.00  0.00     0.078 C 
HETATM    2  C2  UNL     1      21.219   0.369  52.650  1.00  0.00     0.070 C 
HETATM    3  C3  UNL     1      22.486   0.746  52.629  1.00  0.00     0.068 C 
HETATM    4  N4  UNL     1      23.487   0.131  53.477  1.00  0.00    -0.314 N 
HETATM    5  C20 UNL     1      23.100  -0.913  54.361  1.00  0.00     0.248 C 
HETATM    6  O2  UNL     1      23.742  -1.054  55.428  1.00  0.00    -0.271 OA
HETATM    7  C21 UNL     1      21.934  -1.677  53.799  1.00  0.00     0.278 C 
HETATM    8  O3  UNL     1      20.956  -0.654  53.549  1.00  0.00    -0.344 OA
ENDROOT
BRANCH   3   9
HETATM    9  C4  UNL     1      22.823   1.797  51.719  1.00  0.00     0.061 C 
BRANCH   9  10
HETATM   10  C5  UNL     1      23.217   2.831  50.996  1.00  0.00     0.063 C 
HETATM   11  N1  UNL     1      23.278   4.281  50.991  1.00  0.00    -0.244 NA
HETATM   12  C6  UNL     1      23.793   5.004  51.885  1.00  0.00     0.232 C 
HETATM   13  N2  UNL     1      23.774   6.443  51.729  1.00  0.00    -0.254 NA
HETATM   14  C7  UNL     1      24.099   6.949  50.556  1.00  0.00     0.126 C 
HETATM   15  C8  UNL     1      24.406   5.774  49.688  1.00  0.00    -0.021 C 
HETATM   16  C9  UNL     1      23.467   5.743  48.714  1.00  0.00     0.029 C 
HETATM   17  C13 UNL     1      25.501   4.807  49.830  1.00  0.00     0.119 C 
HETATM   18  C10 UNL     1      22.897   4.489  48.163  1.00  0.00     0.112 C 
HETATM   19  N3  UNL     1      22.997   3.260  48.577  1.00  0.00    -0.290 NA
HETATM   20  C11 UNL     1      23.878   2.819  49.645  1.00  0.00     0.161 C 
HETATM   21  C12 UNL     1      25.243   3.390  49.650  1.00  0.00     0.058 C 
HETATM   22 CL1  UNL     1      26.802   5.324  48.686  1.00  0.00    -0.120 Cl
ENDBRANCH   9  10
ENDBRANCH   3   9
BRANCH   4  23
HETATM   23  C14 UNL     1      24.877   0.559  53.449  1.00  0.00     0.134 C 
BRANCH  23  24
HETATM   24  C15 UNL     1      25.761  -0.320  52.614  1.00  0.00     0.056 C 
BRANCH  24  25
HETATM   25  C16 UNL     1      26.833  -1.007  53.430  1.00  0.00     0.225 C 
HETATM   26  C17 UNL     1      28.098  -0.173  53.247  1.00  0.00     0.040 C 
HETATM   27  C18 UNL     1      29.180  -1.197  53.473  1.00  0.00     0.066 C 
HETATM   28  C19 UNL     1      28.584  -2.429  52.837  1.00  0.00     0.354 C 
HETATM   29  N5  UNL     1      27.157  -2.325  52.984  1.00  0.00     0.116 N 
HETATM   30  H24 UNL     1      26.783  -3.093  53.568  1.00  0.00     0.319 HD
BRANCH  28  31
HETATM   31  O1  UNL     1      29.034  -3.528  53.535  1.00  0.00    -0.368 OA
HETATM   32  H23 UNL     1      29.957  -3.380  53.828  1.00  0.00     0.212 HD
ENDBRANCH  28  31
ENDBRANCH  24  25
ENDBRANCH  23  24
ENDBRANCH   4  23
TORSDOF 6
ENDMDL
MODEL 4
REMARK VINA RESULT:      -8.8      1.340      2.043
REMARK  6 active torsions:
REMARK  status: ('A' for Active; 'I' for Inactive)
REMARK    1  A    between atoms: C3_3  and  C4_4 
REMARK    2  A    between atoms: C4_4  and  C5_5 
REMARK    3  A    between atoms: N4_18  and  C14_19 
REMARK    4  A    between atoms: C14_19  and  C15_20 
REMARK    5  A    between atoms: C15_20  and  C16_21 
REMARK    6  A    between atoms: C19_24  and  O1_25 
ROOT
HETATM    1  C1  UNL     1      19.892   1.306  52.452  1.00  0.00     0.078 C 
HETATM    2  C2  UNL     1      20.902   0.543  53.179  1.00  0.00     0.070 C 
HETATM    3  C3  UNL     1      22.213   0.715  53.218  1.00  0.00     0.068 C 
HETATM    4  N4  UNL     1      23.080  -0.142  54.000  1.00  0.00    -0.314 N 
HETATM    5  C20 UNL     1      22.509  -1.207  54.750  1.00  0.00     0.248 C 
HETATM    6  O2  UNL     1      23.088  -1.568  55.801  1.00  0.00    -0.271 OA
HETATM    7  C21 UNL     1      21.256  -1.708  54.087  1.00  0.00     0.278 C 
HETATM    8  O3  UNL     1      20.457  -0.522  53.948  1.00  0.00    -0.344 OA
ENDROOT
BRANCH   3   9
HETATM    9  C4  UNL     1      22.736   1.798  52.443  1.00  0.00     0.061 C 
BRANCH   9  10
HETATM   10  C5  UNL     1      23.091   2.785  51.639  1.00  0.00     0.063 C 
HETATM   11  N1  UNL     1      22.832   3.361  50.333  1.00  0.00    -0.244 NA
HETATM   12  C6  UNL     1      21.707   3.712  49.888  1.00  0.00     0.232 C 
HETATM   13  N2  UNL     1      21.616   4.275  48.558  1.00  0.00    -0.254 NA
HETATM   14  C7  UNL     1      22.498   5.187  48.204  1.00  0.00     0.126 C 
HETATM   15  C8  UNL     1      23.387   5.362  49.390  1.00  0.00    -0.021 C 
HETATM   16  C9  UNL     1      24.619   4.932  49.030  1.00  0.00     0.029 C 
HETATM   17  C13 UNL     1      23.035   5.887  50.714  1.00  0.00     0.119 C 
HETATM   18  C10 UNL     1      25.537   4.210  49.946  1.00  0.00     0.112 C 
HETATM   19  N3  UNL     1      25.325   3.691  51.120  1.00  0.00    -0.290 NA
HETATM   20  C11 UNL     1      24.107   3.865  51.891  1.00  0.00     0.161 C 
HETATM   21  C12 UNL     1      23.529   5.228  51.909  1.00  0.00     0.058 C 
HETATM   22 CL1  UNL     1      23.546   7.621  50.738  1.00  0.00    -0.120 Cl
ENDBRANCH   9  10
ENDBRANCH   3   9
BRANCH   4  23
HETATM   23  C14 UNL     1      24.519   0.061  54.041  1.00  0.00     0.134 C 
BRANCH  23  24
HETATM   24  C15 UNL     1      25.274  -0.776  53.051  1.00  0.00     0.056 C 
BRANCH  24  25
HETATM   25  C16 UNL     1      26.513  -0.080  52.528  1.00  0.00     0.225 C 
HETATM   26  C17 UNL     1      27.643  -0.470  53.475  1.00  0.00     0.040 C 
HETATM   27  C18 UNL     1      28.582   0.700  53.337  1.00  0.00     0.066 C 
HETATM   28  C19 UNL     1      27.623   1.857  53.201  1.00  0.00     0.354 C 
HETATM   29  N5  UNL     1      26.441   1.346  52.558  1.00  0.00     0.116 N 
HETATM   30  H24 UNL     1      26.287   1.800  51.641  1.00  0.00     0.319 HD
BRANCH  28  31
HETATM   31  O1  UNL     1      28.209   2.803  52.389  1.00  0.00    -0.368 OA
HETATM   32  H23 UNL     1      29.110   2.512  52.138  1.00  0.00     0.212 HD
ENDBRANCH  28  31
ENDBRANCH  24  25
ENDBRANCH  23  24
ENDBRANCH   4  23
TORSDOF 6
ENDMDL
MODEL 5
REMARK VINA RESULT:      -8.6      2.435      5.637
REMARK  6 active torsions:
REMARK  status: ('A' for Active; 'I' for Inactive)
REMARK    1  A    between atoms: C3_3  and  C4_4 
REMARK    2  A    between atoms: C4_4  and  C5_5 
REMARK    3  A    between atoms: N4_18  and  C14_19 
REMARK    4  A    between atoms: C14_19  and  C15_20 
REMARK    5  A    between atoms: C15_20  and  C16_21 
REMARK    6  A    between atoms: C19_24  and  O1_25 
ROOT
HETATM    1  C1  UNL     1      24.659  -1.224  55.031  1.00  0.00     0.078 C 
HETATM    2  C2  UNL     1      25.627  -0.248  54.539  1.00  0.00     0.070 C 
HETATM    3  C3  UNL     1      25.447   0.759  53.701  1.00  0.00     0.068 C 
HETATM    4  N4  UNL     1      26.528   1.643  53.313  1.00  0.00    -0.314 N 
HETATM    5  C20 UNL     1      27.827   1.423  53.847  1.00  0.00     0.248 C 
HETATM    6  O2  UNL     1      28.582   2.412  53.993  1.00  0.00    -0.271 OA
HETATM    7  C21 UNL     1      28.038  -0.036  54.142  1.00  0.00     0.278 C 
HETATM    8  O3  UNL     1      26.931  -0.366  54.996  1.00  0.00    -0.344 OA
ENDROOT
BRANCH   3   9
HETATM    9  C4  UNL     1      24.122   0.933  53.190  1.00  0.00     0.061 C 
BRANCH   9  10
HETATM   10  C5  UNL     1      22.948   1.021  52.589  1.00  0.00     0.063 C 
HETATM   11  N1  UNL     1      21.649   0.383  52.493  1.00  0.00    -0.244 NA
HETATM   12  C6  UNL     1      20.877   0.123  53.455  1.00  0.00     0.232 C 
HETATM   13  N2  UNL     1      19.607  -0.518  53.190  1.00  0.00    -0.254 NA
HETATM   14  C7  UNL     1      18.876  -0.069  52.190  1.00  0.00     0.126 C 
HETATM   15  C8  UNL     1      19.661   1.053  51.596  1.00  0.00    -0.021 C 
HETATM   16  C9  UNL     1      20.015   0.674  50.346  1.00  0.00     0.029 C 
HETATM   17  C13 UNL     1      20.013   2.336  52.216  1.00  0.00     0.119 C 
HETATM   18  C10 UNL     1      21.317   1.016  49.722  1.00  0.00     0.112 C 
HETATM   19  N3  UNL     1      22.395   1.528  50.240  1.00  0.00    -0.290 NA
HETATM   20  C11 UNL     1      22.493   2.051  51.591  1.00  0.00     0.161 C 
HETATM   21  C12 UNL     1      21.354   2.870  52.064  1.00  0.00     0.058 C 
HETATM   22 CL1  UNL     1      18.819   3.550  51.608  1.00  0.00    -0.120 Cl
ENDBRANCH   9  10
ENDBRANCH   3   9
BRANCH   4  23
HETATM   23  C14 UNL     1      26.315   2.751  52.396  1.00  0.00     0.134 C 
BRANCH  23  24
HETATM   24  C15 UNL     1      26.550   2.395  50.957  1.00  0.00     0.056 C 
BRANCH  24  25
HETATM   25  C16 UNL     1      25.865   3.352  50.005  1.00  0.00     0.225 C 
HETATM   26  C17 UNL     1      26.984   4.056  49.243  1.00  0.00     0.040 C 
HETATM   27  C18 UNL     1      26.332   5.362  48.872  1.00  0.00     0.066 C 
HETATM   28  C19 UNL     1      25.494   5.652  50.093  1.00  0.00     0.354 C 
HETATM   29  N5  UNL     1      25.111   4.380  50.647  1.00  0.00     0.116 N 
HETATM   30  H24 UNL     1      24.084   4.255  50.625  1.00  0.00     0.319 HD
BRANCH  28  31
HETATM   31  O1  UNL     1      24.365   6.326  49.683  1.00  0.00    -0.368 OA
HETATM   32  H23 UNL     1      23.612   5.704  49.617  1.00  0.00     0.212 HD
ENDBRANCH  28  31
ENDBRANCH  24  25
ENDBRANCH  23  24
ENDBRANCH   4  23
TORSDOF 6
ENDMDL
MODEL 6
REMARK VINA RESULT:      -8.5      1.668      4.600
REMARK  6 active torsions:
REMARK  status: ('A' for Active; 'I' for Inactive)
REMARK    1  A    between atoms: C3_3  and  C4_4 
REMARK    2  A    between atoms: C4_4  and  C5_5 
REMARK    3  A    between atoms: N4_18  and  C14_19 
REMARK    4  A    between atoms: C14_19  and  C15_20 
REMARK    5  A    between atoms: C15_20  and  C16_21 
REMARK    6  A    between atoms: C19_24  and  O1_25 
ROOT
HETATM    1  C1  UNL     1      26.953   0.018  53.319  1.00  0.00     0.078 C 
HETATM    2  C2  UNL     1      25.611  -0.289  53.802  1.00  0.00     0.070 C 
HETATM    3  C3  UNL     1      24.459   0.279  53.489  1.00  0.00     0.068 C 
HETATM    4  N4  UNL     1      23.203  -0.154  54.067  1.00  0.00    -0.314 N 
HETATM    5  C20 UNL     1      23.203  -1.223  55.004  1.00  0.00     0.248 C 
HETATM    6  O2  UNL     1      22.185  -1.951  55.073  1.00  0.00    -0.271 OA
HETATM    7  C21 UNL     1      24.501  -1.261  55.762  1.00  0.00     0.278 C 
HETATM    8  O3  UNL     1      25.491  -1.320  54.722  1.00  0.00    -0.344 OA
ENDROOT
BRANCH   3   9
HETATM    9  C4  UNL     1      24.514   1.353  52.544  1.00  0.00     0.061 C 
BRANCH   9  10
HETATM   10  C5  UNL     1      24.515   2.437  51.788  1.00  0.00     0.063 C 
HETATM   11  N1  UNL     1      25.384   3.312  51.025  1.00  0.00    -0.244 NA
HETATM   12  C6  UNL     1      26.179   2.958  50.114  1.00  0.00     0.232 C 
HETATM   13  N2  UNL     1      26.980   3.959  49.443  1.00  0.00    -0.254 NA
HETATM   14  C7  UNL     1      26.394   5.076  49.063  1.00  0.00     0.126 C 
HETATM   15  C8  UNL     1      24.968   4.940  49.483  1.00  0.00    -0.021 C 
HETATM   16  C9  UNL     1      24.742   5.880  50.430  1.00  0.00     0.029 C 
HETATM   17  C13 UNL     1      23.970   3.981  48.996  1.00  0.00     0.119 C 
HETATM   18  C10 UNL     1      23.863   5.665  51.606  1.00  0.00     0.112 C 
HETATM   19  N3  UNL     1      23.322   4.577  52.071  1.00  0.00    -0.290 NA
HETATM   20  C11 UNL     1      23.342   3.291  51.394  1.00  0.00     0.161 C 
HETATM   21  C12 UNL     1      23.089   3.313  49.935  1.00  0.00     0.058 C 
HETATM   22 CL1  UNL     1      22.973   4.851  47.763  1.00  0.00    -0.120 Cl
ENDBRANCH   9  10
ENDBRANCH   3   9
BRANCH   4  23
HETATM   23  C14 UNL     1      21.941   0.475  53.709  1.00  0.00     0.134 C 
BRANCH  23  24
HETATM   24  C15 UNL     1      21.378  -0.003  52.403  1.00  0.00     0.056 C 
BRANCH  24  25
HETATM   25  C16 UNL     1      20.103   0.717  52.023  1.00  0.00     0.225 C 
HETATM   26  C17 UNL     1      20.183   0.946  50.517  1.00  0.00     0.040 C 
HETATM   27  C18 UNL     1      19.320   2.167  50.341  1.00  0.00     0.066 C 
HETATM   28  C19 UNL     1      19.642   2.961  51.584  1.00  0.00     0.354 C 
HETATM   29  N5  UNL     1      19.959   2.009  52.616  1.00  0.00     0.116 N 
HETATM   30  H24 UNL     1      19.284   2.065  53.398  1.00  0.00     0.319 HD
BRANCH  28  31
HETATM   31  O1  UNL     1      18.514   3.663  51.945  1.00  0.00    -0.368 OA
HETATM   32  H23 UNL     1      18.756   4.389  52.555  1.00  0.00     0.212 HD
ENDBRANCH  28  31
ENDBRANCH  24  25
ENDBRANCH  23  24
ENDBRANCH   4  23
TORSDOF 6
ENDMDL
MODEL 7
REMARK VINA RESULT:      -8.3      1.692      4.989
REMARK  6 active torsions:
REMARK  status: ('A' for Active; 'I' for Inactive)
REMARK    1  A    between atoms: C3_3  and  C4_4 
REMARK    2  A    between atoms: C4_4  and  C5_5 
REMARK    3  A    between atoms: N4_18  and  C14_19 
REMARK    4  A    between atoms: C14_19  and  C15_20 
REMARK    5  A    between atoms: C15_20  and  C16_21 
REMARK    6  A    between atoms: C19_24  and  O1_25 
ROOT
HETATM    1  C1  UNL     1      26.813  -0.039  53.299  1.00  0.00     0.078 C 
HETATM    2  C2  UNL     1      25.456  -0.295  53.770  1.00  0.00     0.070 C 
HETATM    3  C3  UNL     1      24.331   0.327  53.461  1.00  0.00     0.068 C 
HETATM    4  N4  UNL     1      23.054  -0.060  54.025  1.00  0.00    -0.314 N 
HETATM    5  C20 UNL     1      23.003  -1.143  54.944  1.00  0.00     0.248 C 
HETATM    6  O2  UNL     1      21.954  -1.827  54.996  1.00  0.00    -0.271 OA
HETATM    7  C21 UNL     1      24.294  -1.250  55.708  1.00  0.00     0.278 C 
HETATM    8  O3  UNL     1      25.286  -1.335  54.673  1.00  0.00    -0.344 OA
ENDROOT
BRANCH   3   9
HETATM    9  C4  UNL     1      24.439   1.413  52.534  1.00  0.00     0.061 C 
BRANCH   9  10
HETATM   10  C5  UNL     1      24.463   2.502  51.786  1.00  0.00     0.063 C 
HETATM   11  N1  UNL     1      25.349   3.359  51.022  1.00  0.00    -0.244 NA
HETATM   12  C6  UNL     1      26.128   2.991  50.103  1.00  0.00     0.232 C 
HETATM   13  N2  UNL     1      26.951   3.975  49.434  1.00  0.00    -0.254 NA
HETATM   14  C7  UNL     1      26.391   5.110  49.065  1.00  0.00     0.126 C 
HETATM   15  C8  UNL     1      24.965   5.008  49.494  1.00  0.00    -0.021 C 
HETATM   16  C9  UNL     1      24.770   5.947  50.449  1.00  0.00     0.029 C 
HETATM   17  C13 UNL     1      23.939   4.079  49.008  1.00  0.00     0.119 C 
HETATM   18  C10 UNL     1      23.894   5.747  51.630  1.00  0.00     0.112 C 
HETATM   19  N3  UNL     1      23.328   4.670  52.091  1.00  0.00    -0.290 NA
HETATM   20  C11 UNL     1      23.310   3.390  51.405  1.00  0.00     0.161 C 
HETATM   21  C12 UNL     1      23.048   3.427  49.949  1.00  0.00     0.058 C 
HETATM   22 CL1  UNL     1      22.957   4.983  47.788  1.00  0.00    -0.120 Cl
ENDBRANCH   9  10
ENDBRANCH   3   9
BRANCH   4  23
HETATM   23  C14 UNL     1      21.824   0.629  53.671  1.00  0.00     0.134 C 
BRANCH  23  24
HETATM   24  C15 UNL     1      21.351   0.341  52.276  1.00  0.00     0.056 C 
BRANCH  24  25
HETATM   25  C16 UNL     1      20.187  -0.626  52.247  1.00  0.00     0.225 C 
HETATM   26  C17 UNL     1      19.094   0.060  51.433  1.00  0.00     0.040 C 
HETATM   27  C18 UNL     1      17.847  -0.574  51.991  1.00  0.00     0.066 C 
HETATM   28  C19 UNL     1      18.193  -0.713  53.453  1.00  0.00     0.354 C 
HETATM   29  N5  UNL     1      19.618  -0.899  53.528  1.00  0.00     0.116 N 
HETATM   30  H24 UNL     1      19.856  -1.823  53.930  1.00  0.00     0.319 HD
BRANCH  28  31
HETATM   31  O1  UNL     1      17.562  -1.840  53.934  1.00  0.00    -0.368 OA
HETATM   32  H23 UNL     1      18.126  -2.275  54.606  1.00  0.00     0.212 HD
ENDBRANCH  28  31
ENDBRANCH  24  25
ENDBRANCH  23  24
ENDBRANCH   4  23
TORSDOF 6
ENDMDL
MODEL 8
REMARK VINA RESULT:      -8.2      3.060      7.216
REMARK  6 active torsions:
REMARK  status: ('A' for Active; 'I' for Inactive)
REMARK    1  A    between atoms: C3_3  and  C4_4 
REMARK    2  A    between atoms: C4_4  and  C5_5 
REMARK    3  A    between atoms: N4_18  and  C14_19 
REMARK    4  A    between atoms: C14_19  and  C15_20 
REMARK    5  A    between atoms: C15_20  and  C16_21 
REMARK    6  A    between atoms: C19_24  and  O1_25 
ROOT
HETATM    1  C1  UNL     1      26.791   3.943  49.377  1.00  0.00     0.078 C 
HETATM    2  C2  UNL     1      25.591   4.660  49.798  1.00  0.00     0.070 C 
HETATM    3  C3  UNL     1      24.737   4.366  50.764  1.00  0.00     0.068 C 
HETATM    4  N4  UNL     1      23.584   5.195  51.053  1.00  0.00    -0.314 N 
HETATM    5  C20 UNL     1      23.358   6.362  50.274  1.00  0.00     0.248 C 
HETATM    6  O2  UNL     1      22.771   7.330  50.814  1.00  0.00    -0.271 OA
HETATM    7  C21 UNL     1      23.901   6.184  48.883  1.00  0.00     0.278 C 
HETATM    8  O3  UNL     1      25.272   5.819  49.107  1.00  0.00    -0.344 OA
ENDROOT
BRANCH   3   9
HETATM    9  C4  UNL     1      25.009   3.178  51.515  1.00  0.00     0.061 C 
BRANCH   9  10
HETATM   10  C5  UNL     1      25.380   2.160  52.271  1.00  0.00     0.063 C 
HETATM   11  N1  UNL     1      24.886   1.201  53.240  1.00  0.00    -0.244 NA
HETATM   12  C6  UNL     1      23.905   0.426  53.083  1.00  0.00     0.232 C 
HETATM   13  N2  UNL     1      23.538  -0.479  54.151  1.00  0.00    -0.254 NA
HETATM   14  C7  UNL     1      24.496  -1.151  54.757  1.00  0.00     0.126 C 
HETATM   15  C8  UNL     1      25.763  -0.725  54.091  1.00  0.00    -0.021 C 
HETATM   16  C9  UNL     1      26.497  -0.066  55.018  1.00  0.00     0.029 C 
HETATM   17  C13 UNL     1      26.172  -0.949  52.700  1.00  0.00     0.119 C 
HETATM   18  C10 UNL     1      27.341   1.115  54.709  1.00  0.00     0.112 C 
HETATM   19  N3  UNL     1      27.410   1.847  53.636  1.00  0.00    -0.290 NA
HETATM   20  C11 UNL     1      26.746   1.539  52.382  1.00  0.00     0.161 C 
HETATM   21  C12 UNL     1      26.789   0.125  51.945  1.00  0.00     0.058 C 
HETATM   22 CL1  UNL     1      27.277  -2.380  52.708  1.00  0.00    -0.120 Cl
ENDBRANCH   9  10
ENDBRANCH   3   9
BRANCH   4  23
HETATM   23  C14 UNL     1      22.656   4.864  52.122  1.00  0.00     0.134 C 
BRANCH  23  24
HETATM   24  C15 UNL     1      21.439   4.121  51.656  1.00  0.00     0.056 C 
BRANCH  24  25
HETATM   25  C16 UNL     1      21.521   2.637  51.942  1.00  0.00     0.225 C 
HETATM   26  C17 UNL     1      21.463   1.946  50.583  1.00  0.00     0.040 C 
HETATM   27  C18 UNL     1      20.883   0.603  50.943  1.00  0.00     0.066 C 
HETATM   28  C19 UNL     1      19.896   0.967  52.025  1.00  0.00     0.354 C 
HETATM   29  N5  UNL     1      20.423   2.124  52.698  1.00  0.00     0.116 N 
HETATM   30  H24 UNL     1      20.629   1.919  53.691  1.00  0.00     0.319 HD
BRANCH  28  31
HETATM   31  O1  UNL     1      19.832  -0.085  52.912  1.00  0.00    -0.368 OA
HETATM   32  H23 UNL     1      20.736  -0.393  53.129  1.00  0.00     0.212 HD
ENDBRANCH  28  31
ENDBRANCH  24  25
ENDBRANCH  23  24
ENDBRANCH   4  23
TORSDOF 6
ENDMDL
MODEL 9
REMARK VINA RESULT:      -7.8      2.273      5.657
REMARK  6 active torsions:
REMARK  status: ('A' for Active; 'I' for Inactive)
REMARK    1  A    between atoms: C3_3  and  C4_4 
REMARK    2  A    between atoms: C4_4  and  C5_5 
REMARK    3  A    between atoms: N4_18  and  C14_19 
REMARK    4  A    between atoms: C14_19  and  C15_20 
REMARK    5  A    between atoms: C15_20  and  C16_21 
REMARK    6  A    between atoms: C19_24  and  O1_25 
ROOT
HETATM    1  C1  UNL     1      25.768   0.322  52.781  1.00  0.00     0.078 C 
HETATM    2  C2  UNL     1      24.508  -0.044  53.422  1.00  0.00     0.070 C 
HETATM    3  C3  UNL     1      23.326   0.541  53.335  1.00  0.00     0.068 C 
HETATM    4  N4  UNL     1      22.165   0.042  54.044  1.00  0.00    -0.314 N 
HETATM    5  C20 UNL     1      22.297  -1.112  54.864  1.00  0.00     0.248 C 
HETATM    6  O2  UNL     1      21.296  -1.853  55.010  1.00  0.00    -0.271 OA
HETATM    7  C21 UNL     1      23.691  -1.210  55.419  1.00  0.00     0.278 C 
HETATM    8  O3  UNL     1      24.519  -1.159  54.246  1.00  0.00    -0.344 OA
ENDROOT
BRANCH   3   9
HETATM    9  C4  UNL     1      23.248   1.700  52.500  1.00  0.00     0.061 C 
BRANCH   9  10
HETATM   10  C5  UNL     1      23.298   2.711  51.651  1.00  0.00     0.063 C 
HETATM   11  N1  UNL     1      22.691   3.235  50.442  1.00  0.00    -0.244 NA
HETATM   12  C6  UNL     1      21.462   3.446  50.261  1.00  0.00     0.232 C 
HETATM   13  N2  UNL     1      21.013   3.977  48.992  1.00  0.00    -0.254 NA
HETATM   14  C7  UNL     1      21.682   4.982  48.463  1.00  0.00     0.126 C 
HETATM   15  C8  UNL     1      22.785   5.275  49.426  1.00  0.00    -0.021 C 
HETATM   16  C9  UNL     1      23.948   4.988  48.797  1.00  0.00     0.029 C 
HETATM   17  C13 UNL     1      22.675   5.773  50.802  1.00  0.00     0.119 C 
HETATM   18  C10 UNL     1      25.124   4.392  49.478  1.00  0.00     0.112 C 
HETATM   19  N3  UNL     1      25.240   3.867  50.663  1.00  0.00    -0.290 NA
HETATM   20  C11 UNL     1      24.211   3.907  51.687  1.00  0.00     0.161 C 
HETATM   21  C12 UNL     1      23.494   5.193  51.849  1.00  0.00     0.058 C 
HETATM   22 CL1  UNL     1      22.972   7.555  50.735  1.00  0.00    -0.120 Cl
ENDBRANCH   9  10
ENDBRANCH   3   9
BRANCH   4  23
HETATM   23  C14 UNL     1      20.868   0.690  53.936  1.00  0.00     0.134 C 
BRANCH  23  24
HETATM   24  C15 UNL     1      20.302   0.676  52.546  1.00  0.00     0.056 C 
BRANCH  24  25
HETATM   25  C16 UNL     1      19.385  -0.504  52.306  1.00  0.00     0.225 C 
HETATM   26  C17 UNL     1      18.170   0.053  51.569  1.00  0.00     0.040 C 
HETATM   27  C18 UNL     1      17.094  -0.926  51.959  1.00  0.00     0.066 C 
HETATM   28  C19 UNL     1      17.454  -1.234  53.392  1.00  0.00     0.354 C 
HETATM   29  N5  UNL     1      18.884  -1.111  53.498  1.00  0.00     0.116 N 
HETATM   30  H24 UNL     1      19.321  -2.014  53.752  1.00  0.00     0.319 HD
BRANCH  28  31
HETATM   31  O1  UNL     1      17.090  -2.536  53.652  1.00  0.00    -0.368 OA
HETATM   32  H23 UNL     1      17.151  -2.713  54.613  1.00  0.00     0.212 HD
ENDBRANCH  28  31
ENDBRANCH  24  25
ENDBRANCH  23  24
ENDBRANCH   4  23
TORSDOF 6
ENDMDL
