MODEL 1
REMARK VINA RESULT:      -8.0      0.000      0.000
REMARK  4 active torsions:
REMARK  status: ('A' for Active; 'I' for Inactive)
REMARK    1  A    between atoms: O1_2  and  C2_3 
REMARK    2  A    between atoms: C4_5  and  N1_6 
REMARK       I    between atoms: N2_9  and  C7_10 
REMARK    3  A    between atoms: C13_17  and  N3_18 
REMARK    4  A    between atoms: C16_23  and  S1_24 
ROOT
HETATM    1  C2  UNL     1      20.872   0.717  51.194  1.00  0.00     0.098 A 
HETATM    2  C3  UNL     1      22.207   0.764  51.535  1.00  0.00     0.068 A 
HETATM    3  C4  UNL     1      22.663   0.552  52.817  1.00  0.00     0.033 A 
HETATM    4  C11 UNL     1      21.714   0.282  53.778  1.00  0.00     0.032 A 
HETATM    5  C12 UNL     1      20.369   0.236  53.417  1.00  0.00     0.036 A 
HETATM    6  C13 UNL     1      19.901   0.447  52.135  1.00  0.00     0.086 A 
ENDROOT
BRANCH   6   7
HETATM    7  N3  UNL     1      18.485   0.349  51.909  1.00  0.00    -0.270 N 
HETATM    8  C14 UNL     1      17.911  -0.851  52.419  1.00  0.00     0.299 C 
HETATM    9  N4  UNL     1      16.522  -0.923  52.596  1.00  0.00    -0.257 NA
HETATM   10  C15 UNL     1      15.470  -0.240  52.786  1.00  0.00     0.255 C 
HETATM   11  O3  UNL     1      15.287   1.153  52.915  1.00  0.00    -0.296 OA
HETATM   12  C16 UNL     1      15.716   2.227  52.103  1.00  0.00     0.130 C 
HETATM   13  C18 UNL     1      16.845   2.342  51.387  1.00  0.00     0.152 C 
HETATM   14  N5  UNL     1      17.954   1.452  51.213  1.00  0.00    -0.304 N 
HETATM   15  H25 UNL     1      18.545   1.647  50.344  1.00  0.00     0.186 HD
BRANCH  12  16
HETATM   16  S1  UNL     1      14.700   3.682  51.926  1.00  0.00    -0.108 SA
HETATM   17  C17 UNL     1      14.503   4.397  53.581  1.00  0.00     0.097 C 
ENDBRANCH  12  16
ENDBRANCH   6   7
BRANCH   1  18
HETATM   18  O1  UNL     1      20.461   0.939  49.892  1.00  0.00    -0.354 OA
HETATM   19  C1  UNL     1      21.443   1.093  48.890  1.00  0.00     0.210 C 
ENDBRANCH   1  18
BRANCH   3  20
HETATM   20  N1  UNL     1      24.040   0.613  53.126  1.00  0.00    -0.378 N 
HETATM   21  C5  UNL     1      24.791  -0.504  53.611  1.00  0.00     0.143 C 
HETATM   22  C6  UNL     1      26.209  -0.448  53.044  1.00  0.00     0.145 C 
HETATM   23  N2  UNL     1      26.869   0.678  53.677  1.00  0.00    -0.349 N 
HETATM   24  C7  UNL     1      28.198   0.829  54.198  1.00  0.00     0.215 C 
HETATM   25  C9  UNL     1      26.055   1.850  53.808  1.00  0.00     0.145 C 
HETATM   26  C8  UNL     1      29.043  -0.404  54.057  1.00  0.00     0.117 C 
HETATM   27  O2  UNL     1      28.727   1.831  54.740  1.00  0.00    -0.274 OA
HETATM   28  C10 UNL     1      24.797   1.832  52.972  1.00  0.00     0.143 C 
ENDBRANCH   3  20
TORSDOF 4
ENDMDL
MODEL 2
REMARK VINA RESULT:      -7.4      2.669      3.934
REMARK  4 active torsions:
REMARK  status: ('A' for Active; 'I' for Inactive)
REMARK    1  A    between atoms: O1_2  and  C2_3 
REMARK    2  A    between atoms: C4_5  and  N1_6 
REMARK       I    between atoms: N2_9  and  C7_10 
REMARK    3  A    between atoms: C13_17  and  N3_18 
REMARK    4  A    between atoms: C16_23  and  S1_24 
ROOT
HETATM    1  C2  UNL     1      21.950   1.849  51.508  1.00  0.00     0.098 A 
HETATM    2  C3  UNL     1      23.063   1.133  51.890  1.00  0.00     0.068 A 
HETATM    3  C4  UNL     1      24.338   1.652  51.860  1.00  0.00     0.033 A 
HETATM    4  C11 UNL     1      24.470   2.951  51.422  1.00  0.00     0.032 A 
HETATM    5  C12 UNL     1      23.335   3.664  51.041  1.00  0.00     0.036 A 
HETATM    6  C13 UNL     1      22.052   3.152  51.068  1.00  0.00     0.086 A 
ENDROOT
BRANCH   6   7
HETATM    7  N3  UNL     1      20.975   4.013  50.662  1.00  0.00    -0.270 N 
HETATM    8  C14 UNL     1      21.258   4.760  49.483  1.00  0.00     0.299 C 
HETATM    9  N4  UNL     1      20.200   5.351  48.777  1.00  0.00    -0.257 NA
HETATM   10  C15 UNL     1      18.956   5.285  48.537  1.00  0.00     0.255 C 
HETATM   11  O3  UNL     1      17.975   4.384  49.005  1.00  0.00    -0.296 OA
HETATM   12  C16 UNL     1      17.642   3.969  50.313  1.00  0.00     0.130 C 
HETATM   13  C18 UNL     1      18.449   3.792  51.371  1.00  0.00     0.152 C 
HETATM   14  N5  UNL     1      19.864   3.958  51.525  1.00  0.00    -0.304 N 
HETATM   15  H25 UNL     1      20.188   4.073  52.538  1.00  0.00     0.186 HD
BRANCH  12  16
HETATM   16  S1  UNL     1      15.949   3.600  50.736  1.00  0.00    -0.108 SA
HETATM   17  C17 UNL     1      15.698   4.147  52.447  1.00  0.00     0.097 C 
ENDBRANCH  12  16
ENDBRANCH   6   7
BRANCH   1  18
HETATM   18  O1  UNL     1      20.688   1.284  51.553  1.00  0.00    -0.354 OA
HETATM   19  C1  UNL     1      20.312   0.562  52.706  1.00  0.00     0.210 C 
ENDBRANCH   1  18
BRANCH   3  20
HETATM   20  N1  UNL     1      25.454   0.882  52.256  1.00  0.00    -0.378 N 
HETATM   21  C5  UNL     1      26.808   1.244  51.965  1.00  0.00     0.143 C 
HETATM   22  C6  UNL     1      27.705   0.833  53.132  1.00  0.00     0.145 C 
HETATM   23  N2  UNL     1      27.757  -0.616  53.130  1.00  0.00    -0.349 N 
HETATM   24  C7  UNL     1      28.846  -1.528  53.341  1.00  0.00     0.215 C 
HETATM   25  C9  UNL     1      26.501  -1.258  52.875  1.00  0.00     0.145 C 
HETATM   26  C8  UNL     1      30.157  -0.847  53.608  1.00  0.00     0.117 C 
HETATM   27  O2  UNL     1      28.841  -2.784  53.330  1.00  0.00    -0.274 OA
HETATM   28  C10 UNL     1      25.300  -0.349  52.994  1.00  0.00     0.143 C 
ENDBRANCH   3  20
TORSDOF 4
ENDMDL
MODEL 3
REMARK VINA RESULT:      -7.3      6.126      8.441
REMARK  4 active torsions:
REMARK  status: ('A' for Active; 'I' for Inactive)
REMARK    1  A    between atoms: O1_2  and  C2_3 
REMARK    2  A    between atoms: C4_5  and  N1_6 
REMARK       I    between atoms: N2_9  and  C7_10 
REMARK    3  A    between atoms: C13_17  and  N3_18 
REMARK    4  A    between atoms: C16_23  and  S1_24 
ROOT
HETATM    1  C2  UNL     1      24.382   3.991  51.466  1.00  0.00     0.098 A 
HETATM    2  C3  UNL     1      24.564   5.242  50.915  1.00  0.00     0.068 A 
HETATM    3  C4  UNL     1      25.513   5.509  49.953  1.00  0.00     0.033 A 
HETATM    4  C11 UNL     1      26.299   4.453  49.546  1.00  0.00     0.032 A 
HETATM    5  C12 UNL     1      26.102   3.195  50.110  1.00  0.00     0.036 A 
HETATM    6  C13 UNL     1      25.153   2.917  51.075  1.00  0.00     0.086 A 
ENDROOT
BRANCH   6   7
HETATM    7  N3  UNL     1      25.053   1.564  51.551  1.00  0.00    -0.270 N 
HETATM    8  C14 UNL     1      26.315   0.961  51.817  1.00  0.00     0.299 C 
HETATM    9  N4  UNL     1      26.367  -0.194  52.610  1.00  0.00    -0.257 NA
HETATM   10  C15 UNL     1      25.769  -0.852  53.515  1.00  0.00     0.255 C 
HETATM   11  O3  UNL     1      24.561  -0.590  54.197  1.00  0.00    -0.296 OA
HETATM   12  C16 UNL     1      23.271  -0.272  53.716  1.00  0.00     0.130 C 
HETATM   13  C18 UNL     1      22.930   0.444  52.634  1.00  0.00     0.152 C 
HETATM   14  N5  UNL     1      23.726   1.103  51.641  1.00  0.00    -0.304 N 
HETATM   15  H25 UNL     1      23.210   1.308  50.726  1.00  0.00     0.186 HD
BRANCH  12  16
HETATM   16  S1  UNL     1      21.822  -0.847  54.582  1.00  0.00    -0.108 SA
HETATM   17  C17 UNL     1      20.383  -0.124  53.748  1.00  0.00     0.097 C 
ENDBRANCH  12  16
ENDBRANCH   6   7
BRANCH   1  18
HETATM   18  O1  UNL     1      23.417   3.772  52.432  1.00  0.00    -0.354 OA
HETATM   19  C1  UNL     1      22.145   4.360  52.262  1.00  0.00     0.210 C 
ENDBRANCH   1  18
BRANCH   3  20
HETATM   20  N1  UNL     1      25.670   6.806  49.417  1.00  0.00    -0.378 N 
HETATM   21  C5  UNL     1      26.401   7.082  48.218  1.00  0.00     0.143 C 
HETATM   22  C6  UNL     1      25.723   8.225  47.463  1.00  0.00     0.145 C 
HETATM   23  N2  UNL     1      25.932   9.427  48.246  1.00  0.00    -0.349 N 
HETATM   24  C7  UNL     1      26.268  10.768  47.857  1.00  0.00     0.215 C 
HETATM   25  C9  UNL     1      25.777   9.252  49.660  1.00  0.00     0.145 C 
HETATM   26  C8  UNL     1      26.430  10.940  46.374  1.00  0.00     0.117 C 
HETATM   27  O2  UNL     1      26.440  11.782  48.577  1.00  0.00    -0.274 OA
HETATM   28  C10 UNL     1      25.096   7.964  50.059  1.00  0.00     0.143 C 
ENDBRANCH   3  20
TORSDOF 4
ENDMDL
MODEL 4
REMARK VINA RESULT:      -7.3      8.213     11.808
REMARK  4 active torsions:
REMARK  status: ('A' for Active; 'I' for Inactive)
REMARK    1  A    between atoms: O1_2  and  C2_3 
REMARK    2  A    between atoms: C4_5  and  N1_6 
REMARK       I    between atoms: N2_9  and  C7_10 
REMARK    3  A    between atoms: C13_17  and  N3_18 
REMARK    4  A    between atoms: C16_23  and  S1_24 
ROOT
HETATM    1  C2  UNL     1      26.769   7.114  48.912  1.00  0.00     0.098 A 
HETATM    2  C3  UNL     1      25.805   6.194  49.266  1.00  0.00     0.068 A 
HETATM    3  C4  UNL     1      26.022   4.835  49.251  1.00  0.00     0.033 A 
HETATM    4  C11 UNL     1      27.272   4.409  48.860  1.00  0.00     0.032 A 
HETATM    5  C12 UNL     1      28.237   5.350  48.507  1.00  0.00     0.036 A 
HETATM    6  C13 UNL     1      28.029   6.715  48.518  1.00  0.00     0.086 A 
ENDROOT
BRANCH   6   7
HETATM    7  N3  UNL     1      29.126   7.566  48.146  1.00  0.00    -0.270 N 
HETATM    8  C14 UNL     1      29.649   7.286  46.851  1.00  0.00     0.299 C 
HETATM    9  N4  UNL     1      30.456   8.241  46.218  1.00  0.00    -0.257 NA
HETATM   10  C15 UNL     1      30.733   9.477  46.153  1.00  0.00     0.255 C 
HETATM   11  O3  UNL     1      30.203  10.579  46.859  1.00  0.00    -0.296 OA
HETATM   12  C16 UNL     1      30.022  10.795  48.244  1.00  0.00     0.130 C 
HETATM   13  C18 UNL     1      29.714   9.906  49.201  1.00  0.00     0.152 C 
HETATM   14  N5  UNL     1      29.474   8.495  49.146  1.00  0.00    -0.304 N 
HETATM   15  H25 UNL     1      29.581   7.991  50.084  1.00  0.00     0.186 HD
BRANCH  12  16
HETATM   16  S1  UNL     1      30.201  12.432  48.929  1.00  0.00    -0.108 SA
HETATM   17  C17 UNL     1      28.547  13.176  48.968  1.00  0.00     0.097 C 
ENDBRANCH  12  16
ENDBRANCH   6   7
BRANCH   1  18
HETATM   18  O1  UNL     1      26.504   8.471  48.940  1.00  0.00    -0.354 OA
HETATM   19  C1  UNL     1      25.632   8.969  49.931  1.00  0.00     0.210 C 
ENDBRANCH   1  18
BRANCH   3  20
HETATM   20  N1  UNL     1      25.006   3.925  49.618  1.00  0.00    -0.378 N 
HETATM   21  C5  UNL     1      25.183   2.893  50.593  1.00  0.00     0.143 C 
HETATM   22  C6  UNL     1      23.883   2.702  51.373  1.00  0.00     0.145 C 
HETATM   23  N2  UNL     1      22.926   2.113  50.456  1.00  0.00    -0.349 N 
HETATM   24  C7  UNL     1      21.958   1.068  50.636  1.00  0.00     0.215 C 
HETATM   25  C9  UNL     1      22.946   2.668  49.135  1.00  0.00     0.145 C 
HETATM   26  C8  UNL     1      21.946   0.492  52.023  1.00  0.00     0.117 C 
HETATM   27  O2  UNL     1      21.146   0.589  49.807  1.00  0.00    -0.274 OA
HETATM   28  C10 UNL     1      23.694   3.975  49.019  1.00  0.00     0.143 C 
ENDBRANCH   3  20
TORSDOF 4
ENDMDL
MODEL 5
REMARK VINA RESULT:      -7.1      2.431      3.695
REMARK  4 active torsions:
REMARK  status: ('A' for Active; 'I' for Inactive)
REMARK    1  A    between atoms: O1_2  and  C2_3 
REMARK    2  A    between atoms: C4_5  and  N1_6 
REMARK       I    between atoms: N2_9  and  C7_10 
REMARK    3  A    between atoms: C13_17  and  N3_18 
REMARK    4  A    between atoms: C16_23  and  S1_24 
ROOT
HETATM    1  C2  UNL     1      17.604   0.435  51.846  1.00  0.00     0.098 A 
HETATM    2  C3  UNL     1      18.968   0.470  52.037  1.00  0.00     0.068 A 
HETATM    3  C4  UNL     1      19.631  -0.389  52.885  1.00  0.00     0.033 A 
HETATM    4  C11 UNL     1      18.863  -1.314  53.557  1.00  0.00     0.032 A 
HETATM    5  C12 UNL     1      17.485  -1.339  53.353  1.00  0.00     0.036 A 
HETATM    6  C13 UNL     1      16.811  -0.481  52.505  1.00  0.00     0.086 A 
ENDROOT
BRANCH   6   7
HETATM    7  N3  UNL     1      15.388  -0.638  52.381  1.00  0.00    -0.270 N 
HETATM    8  C14 UNL     1      14.998  -1.911  51.876  1.00  0.00     0.299 C 
HETATM    9  N4  UNL     1      13.672  -2.335  52.039  1.00  0.00    -0.257 NA
HETATM   10  C15 UNL     1      12.626  -2.202  52.744  1.00  0.00     0.255 C 
HETATM   11  O3  UNL     1      12.374  -1.394  53.874  1.00  0.00    -0.296 OA
HETATM   12  C16 UNL     1      12.575  -0.013  54.094  1.00  0.00     0.130 C 
HETATM   13  C18 UNL     1      13.548   0.781  53.620  1.00  0.00     0.152 C 
HETATM   14  N5  UNL     1      14.666   0.508  52.767  1.00  0.00    -0.304 N 
HETATM   15  H25 UNL     1      15.077   1.371  52.287  1.00  0.00     0.186 HD
BRANCH  12  16
HETATM   16  S1  UNL     1      11.446   0.908  55.123  1.00  0.00    -0.108 SA
HETATM   17  C17 UNL     1      11.657   2.660  54.706  1.00  0.00     0.097 C 
ENDBRANCH  12  16
ENDBRANCH   6   7
BRANCH   1  18
HETATM   18  O1  UNL     1      16.982   1.321  50.985  1.00  0.00    -0.354 OA
HETATM   19  C1  UNL     1      17.152   2.705  51.201  1.00  0.00     0.210 C 
ENDBRANCH   1  18
BRANCH   3  20
HETATM   20  N1  UNL     1      21.031  -0.318  53.055  1.00  0.00    -0.378 N 
HETATM   21  C5  UNL     1      21.944  -0.044  51.988  1.00  0.00     0.143 C 
HETATM   22  C6  UNL     1      23.109   0.791  52.518  1.00  0.00     0.145 C 
HETATM   23  N2  UNL     1      23.885  -0.074  53.385  1.00  0.00    -0.349 N 
HETATM   24  C7  UNL     1      25.303  -0.237  53.541  1.00  0.00     0.215 C 
HETATM   25  C9  UNL     1      23.103  -0.918  54.240  1.00  0.00     0.145 C 
HETATM   26  C8  UNL     1      26.113   0.650  52.641  1.00  0.00     0.117 C 
HETATM   27  O2  UNL     1      25.932  -1.005  54.311  1.00  0.00    -0.274 OA
HETATM   28  C10 UNL     1      21.648  -0.525  54.343  1.00  0.00     0.143 C 
ENDBRANCH   3  20
TORSDOF 4
ENDMDL
MODEL 6
REMARK VINA RESULT:      -7.1      6.583      8.303
REMARK  4 active torsions:
REMARK  status: ('A' for Active; 'I' for Inactive)
REMARK    1  A    between atoms: O1_2  and  C2_3 
REMARK    2  A    between atoms: C4_5  and  N1_6 
REMARK       I    between atoms: N2_9  and  C7_10 
REMARK    3  A    between atoms: C13_17  and  N3_18 
REMARK    4  A    between atoms: C16_23  and  S1_24 
ROOT
HETATM    1  C2  UNL     1      25.863   3.750  49.612  1.00  0.00     0.098 A 
HETATM    2  C3  UNL     1      26.969   4.510  49.300  1.00  0.00     0.068 A 
HETATM    3  C4  UNL     1      26.886   5.760  48.727  1.00  0.00     0.033 A 
HETATM    4  C11 UNL     1      25.621   6.242  48.469  1.00  0.00     0.032 A 
HETATM    5  C12 UNL     1      24.512   5.463  48.791  1.00  0.00     0.036 A 
HETATM    6  C13 UNL     1      24.586   4.208  49.366  1.00  0.00     0.086 A 
ENDROOT
BRANCH   6   7
HETATM    7  N3  UNL     1      23.354   3.529  49.660  1.00  0.00    -0.270 N 
HETATM    8  C14 UNL     1      22.552   3.282  48.509  1.00  0.00     0.299 C 
HETATM    9  N4  UNL     1      21.523   2.332  48.583  1.00  0.00    -0.257 NA
HETATM   10  C15 UNL     1      21.121   1.293  49.190  1.00  0.00     0.255 C 
HETATM   11  O3  UNL     1      21.702   0.560  50.246  1.00  0.00    -0.296 OA
HETATM   12  C16 UNL     1      22.204   0.974  51.500  1.00  0.00     0.130 C 
HETATM   13  C18 UNL     1      22.827   2.119  51.820  1.00  0.00     0.152 C 
HETATM   14  N5  UNL     1      23.180   3.262  51.032  1.00  0.00    -0.304 N 
HETATM   15  H25 UNL     1      23.361   4.151  51.598  1.00  0.00     0.186 HD
BRANCH  12  16
HETATM   16  S1  UNL     1      22.045  -0.085  52.926  1.00  0.00    -0.108 SA
HETATM   17  C17 UNL     1      23.724  -0.455  53.503  1.00  0.00     0.097 C 
ENDBRANCH  12  16
ENDBRANCH   6   7
BRANCH   1  18
HETATM   18  O1  UNL     1      25.997   2.498  50.184  1.00  0.00    -0.354 OA
HETATM   19  C1  UNL     1      26.688   2.385  51.409  1.00  0.00     0.210 C 
ENDBRANCH   1  18
BRANCH   3  20
HETATM   20  N1  UNL     1      28.045   6.505  48.419  1.00  0.00    -0.378 N 
HETATM   21  C5  UNL     1      28.056   7.930  48.288  1.00  0.00     0.143 C 
HETATM   22  C6  UNL     1      29.381   8.479  48.818  1.00  0.00     0.145 C 
HETATM   23  N2  UNL     1      30.409   8.065  47.883  1.00  0.00    -0.349 N 
HETATM   24  C7  UNL     1      31.541   8.766  47.345  1.00  0.00     0.215 C 
HETATM   25  C9  UNL     1      30.279   6.719  47.409  1.00  0.00     0.145 C 
HETATM   26  C8  UNL     1      31.669  10.176  47.847  1.00  0.00     0.117 C 
HETATM   27  O2  UNL     1      32.410   8.363  46.533  1.00  0.00    -0.274 OA
HETATM   28  C10 UNL     1      29.322   5.866  48.208  1.00  0.00     0.143 C 
ENDBRANCH   3  20
TORSDOF 4
ENDMDL
MODEL 7
REMARK VINA RESULT:      -7.0      7.934      9.743
REMARK  4 active torsions:
REMARK  status: ('A' for Active; 'I' for Inactive)
REMARK    1  A    between atoms: O1_2  and  C2_3 
REMARK    2  A    between atoms: C4_5  and  N1_6 
REMARK       I    between atoms: N2_9  and  C7_10 
REMARK    3  A    between atoms: C13_17  and  N3_18 
REMARK    4  A    between atoms: C16_23  and  S1_24 
ROOT
HETATM    1  C2  UNL     1      25.898   6.971  49.764  1.00  0.00     0.098 A 
HETATM    2  C3  UNL     1      27.007   7.643  49.296  1.00  0.00     0.068 A 
HETATM    3  C4  UNL     1      28.024   7.024  48.605  1.00  0.00     0.033 A 
HETATM    4  C11 UNL     1      27.895   5.670  48.389  1.00  0.00     0.032 A 
HETATM    5  C12 UNL     1      26.768   5.005  48.867  1.00  0.00     0.036 A 
HETATM    6  C13 UNL     1      25.742   5.616  49.561  1.00  0.00     0.086 A 
ENDROOT
BRANCH   6   7
HETATM    7  N3  UNL     1      24.631   4.804  49.975  1.00  0.00    -0.270 N 
HETATM    8  C14 UNL     1      23.679   4.573  48.942  1.00  0.00     0.299 C 
HETATM    9  N4  UNL     1      22.755   3.529  49.083  1.00  0.00    -0.257 NA
HETATM   10  C15 UNL     1      22.539   2.412  49.645  1.00  0.00     0.255 C 
HETATM   11  O3  UNL     1      23.339   1.655  50.528  1.00  0.00    -0.296 OA
HETATM   12  C16 UNL     1      23.999   2.015  51.724  1.00  0.00     0.130 C 
HETATM   13  C18 UNL     1      24.571   3.185  52.051  1.00  0.00     0.152 C 
HETATM   14  N5  UNL     1      24.701   4.414  51.326  1.00  0.00    -0.304 N 
HETATM   15  H25 UNL     1      24.898   5.269  51.938  1.00  0.00     0.186 HD
BRANCH  12  16
HETATM   16  S1  UNL     1      24.155   0.837  53.054  1.00  0.00    -0.108 SA
HETATM   17  C17 UNL     1      22.688  -0.227  52.997  1.00  0.00     0.097 C 
ENDBRANCH  12  16
ENDBRANCH   6   7
BRANCH   1  18
HETATM   18  O1  UNL     1      24.902   7.636  50.456  1.00  0.00    -0.354 OA
HETATM   19  C1  UNL     1      23.939   8.362  49.723  1.00  0.00     0.210 C 
ENDBRANCH   1  18
BRANCH   3  20
HETATM   20  N1  UNL     1      29.146   7.749  48.145  1.00  0.00    -0.378 N 
HETATM   21  C5  UNL     1      29.174   9.175  48.034  1.00  0.00     0.143 C 
HETATM   22  C6  UNL     1      30.574   9.684  48.377  1.00  0.00     0.145 C 
HETATM   23  N2  UNL     1      31.448   9.264  47.300  1.00  0.00    -0.349 N 
HETATM   24  C7  UNL     1      32.509   9.949  46.616  1.00  0.00     0.215 C 
HETATM   25  C9  UNL     1      31.219   7.930  46.831  1.00  0.00     0.145 C 
HETATM   26  C8  UNL     1      32.742  11.346  47.114  1.00  0.00     0.117 C 
HETATM   27  O2  UNL     1      33.244   9.540  45.683  1.00  0.00    -0.274 OA
HETATM   28  C10 UNL     1      30.364   7.085  47.746  1.00  0.00     0.143 C 
ENDBRANCH   3  20
TORSDOF 4
ENDMDL
MODEL 8
REMARK VINA RESULT:      -6.9      7.558      9.212
REMARK  4 active torsions:
REMARK  status: ('A' for Active; 'I' for Inactive)
REMARK    1  A    between atoms: O1_2  and  C2_3 
REMARK    2  A    between atoms: C4_5  and  N1_6 
REMARK       I    between atoms: N2_9  and  C7_10 
REMARK    3  A    between atoms: C13_17  and  N3_18 
REMARK    4  A    between atoms: C16_23  and  S1_24 
ROOT
HETATM    1  C2  UNL     1      25.585   5.495  49.622  1.00  0.00     0.098 A 
HETATM    2  C3  UNL     1      26.582   6.231  49.019  1.00  0.00     0.068 A 
HETATM    3  C4  UNL     1      26.793   7.567  49.280  1.00  0.00     0.033 A 
HETATM    4  C11 UNL     1      25.951   8.162  50.193  1.00  0.00     0.032 A 
HETATM    5  C12 UNL     1      24.949   7.404  50.796  1.00  0.00     0.036 A 
HETATM    6  C13 UNL     1      24.729   6.065  50.540  1.00  0.00     0.086 A 
ENDROOT
BRANCH   6   7
HETATM    7  N3  UNL     1      23.668   5.408  51.253  1.00  0.00    -0.270 N 
HETATM    8  C14 UNL     1      22.369   5.851  50.872  1.00  0.00     0.299 C 
HETATM    9  N4  UNL     1      21.255   5.068  51.205  1.00  0.00    -0.257 NA
HETATM   10  C15 UNL     1      20.865   3.892  51.478  1.00  0.00     0.255 C 
HETATM   11  O3  UNL     1      21.583   2.680  51.560  1.00  0.00    -0.296 OA
HETATM   12  C16 UNL     1      22.762   2.343  52.262  1.00  0.00     0.130 C 
HETATM   13  C18 UNL     1      23.832   3.109  52.526  1.00  0.00     0.152 C 
HETATM   14  N5  UNL     1      24.129   4.472  52.198  1.00  0.00    -0.304 N 
HETATM   15  H25 UNL     1      24.885   4.919  52.809  1.00  0.00     0.186 HD
BRANCH  12  16
HETATM   16  S1  UNL     1      22.970   0.705  52.937  1.00  0.00    -0.108 SA
HETATM   17  C17 UNL     1      24.753   0.434  53.134  1.00  0.00     0.097 C 
ENDBRANCH  12  16
ENDBRANCH   6   7
BRANCH   1  18
HETATM   18  O1  UNL     1      25.410   4.155  49.325  1.00  0.00    -0.354 OA
HETATM   19  C1  UNL     1      26.415   3.241  49.707  1.00  0.00     0.210 C 
ENDBRANCH   1  18
BRANCH   3  20
HETATM   20  N1  UNL     1      27.824   8.287  48.637  1.00  0.00    -0.378 N 
HETATM   21  C5  UNL     1      28.595   9.307  49.280  1.00  0.00     0.143 C 
HETATM   22  C6  UNL     1      30.032   9.260  48.762  1.00  0.00     0.145 C 
HETATM   23  N2  UNL     1      29.996   9.710  47.384  1.00  0.00    -0.349 N 
HETATM   24  C7  UNL     1      30.870  10.577  46.644  1.00  0.00     0.215 C 
HETATM   25  C9  UNL     1      28.895   9.202  46.619  1.00  0.00     0.145 C 
HETATM   26  C8  UNL     1      32.019  11.104  47.454  1.00  0.00     0.117 C 
HETATM   27  O2  UNL     1      30.797  10.939  45.444  1.00  0.00    -0.274 OA
HETATM   28  C10 UNL     1      28.175   8.039  47.259  1.00  0.00     0.143 C 
ENDBRANCH   3  20
TORSDOF 4
ENDMDL
MODEL 9
REMARK VINA RESULT:      -6.9      6.815     10.291
REMARK  4 active torsions:
REMARK  status: ('A' for Active; 'I' for Inactive)
REMARK    1  A    between atoms: O1_2  and  C2_3 
REMARK    2  A    between atoms: C4_5  and  N1_6 
REMARK       I    between atoms: N2_9  and  C7_10 
REMARK    3  A    between atoms: C13_17  and  N3_18 
REMARK    4  A    between atoms: C16_23  and  S1_24 
ROOT
HETATM    1  C2  UNL     1      25.332   5.600  50.152  1.00  0.00     0.098 A 
HETATM    2  C3  UNL     1      24.726   4.627  50.917  1.00  0.00     0.068 A 
HETATM    3  C4  UNL     1      25.129   3.310  50.915  1.00  0.00     0.033 A 
HETATM    4  C11 UNL     1      26.191   2.986  50.100  1.00  0.00     0.032 A 
HETATM    5  C12 UNL     1      26.795   3.982  49.334  1.00  0.00     0.036 A 
HETATM    6  C13 UNL     1      26.398   5.305  49.329  1.00  0.00     0.086 A 
ENDROOT
BRANCH   6   7
HETATM    7  N3  UNL     1      27.129   6.224  48.501  1.00  0.00    -0.270 N 
HETATM    8  C14 UNL     1      26.301   7.177  47.842  1.00  0.00     0.299 C 
HETATM    9  N4  UNL     1      26.883   8.333  47.304  1.00  0.00    -0.257 NA
HETATM   10  C15 UNL     1      27.870   9.126  47.389  1.00  0.00     0.255 C 
HETATM   11  O3  UNL     1      28.985   9.120  48.255  1.00  0.00    -0.296 OA
HETATM   12  C16 UNL     1      29.907   8.098  48.576  1.00  0.00     0.130 C 
HETATM   13  C18 UNL     1      29.698   6.776  48.674  1.00  0.00     0.152 C 
HETATM   14  N5  UNL     1      28.517   5.985  48.496  1.00  0.00    -0.304 N 
HETATM   15  H25 UNL     1      28.703   4.949  48.307  1.00  0.00     0.186 HD
BRANCH  12  16
HETATM   16  S1  UNL     1      31.611   8.500  48.915  1.00  0.00    -0.108 SA
HETATM   17  C17 UNL     1      32.515   6.932  49.023  1.00  0.00     0.097 C 
ENDBRANCH  12  16
ENDBRANCH   6   7
BRANCH   1  18
HETATM   18  O1  UNL     1      24.890   6.910  50.186  1.00  0.00    -0.354 OA
HETATM   19  C1  UNL     1      23.754   7.221  50.964  1.00  0.00     0.210 C 
ENDBRANCH   1  18
BRANCH   3  20
HETATM   20  N1  UNL     1      24.478   2.342  51.711  1.00  0.00    -0.378 N 
HETATM   21  C5  UNL     1      23.167   2.518  52.256  1.00  0.00     0.143 C 
HETATM   22  C6  UNL     1      22.435   1.177  52.262  1.00  0.00     0.145 C 
HETATM   23  N2  UNL     1      23.084   0.349  53.260  1.00  0.00    -0.349 N 
HETATM   24  C7  UNL     1      22.549  -0.545  54.248  1.00  0.00     0.215 C 
HETATM   25  C9  UNL     1      24.515   0.435  53.266  1.00  0.00     0.145 C 
HETATM   26  C8  UNL     1      21.049  -0.627  54.234  1.00  0.00     0.117 C 
HETATM   27  O2  UNL     1      23.156  -1.244  55.095  1.00  0.00    -0.274 OA
HETATM   28  C10 UNL     1      25.106   1.084  52.037  1.00  0.00     0.143 C 
ENDBRANCH   3  20
TORSDOF 4
ENDMDL
