MODEL 1
REMARK VINA RESULT:      -8.5      0.000      0.000
REMARK  7 active torsions:
REMARK  status: ('A' for Active; 'I' for Inactive)
REMARK    1  A    between atoms: C2_2  and  C3_3 
REMARK    2  A    between atoms: C3_3  and  N1_4 
REMARK    3  A    between atoms: C7_9  and  O2_10 
REMARK    4  A    between atoms: O2_10  and  C8_11 
REMARK    5  A    between atoms: C11_14  and  N2_15 
REMARK    6  A    between atoms: N2_15  and  C12_16 
REMARK    7  A    between atoms: C21_29  and  O3_30 
ROOT
HETATM    1  C8  UNL     1      24.268   1.687  52.978  1.00  0.00     0.106 A 
HETATM    2  C9  UNL     1      24.126   3.030  52.705  1.00  0.00     0.057 A 
HETATM    3  C10 UNL     1      22.905   3.432  52.211  1.00  0.00     0.042 A 
HETATM    4  C11 UNL     1      22.813   4.784  51.969  1.00  0.00     0.142 A 
HETATM    5  N3  UNL     1      21.669   5.338  51.490  1.00  0.00    -0.224 NA
HETATM    6  C18 UNL     1      20.601   4.508  51.251  1.00  0.00     0.236 A 
HETATM    7  N4  UNL     1      20.698   3.188  51.491  1.00  0.00    -0.241 NA
HETATM    8  C19 UNL     1      21.837   2.606  51.975  1.00  0.00     0.075 A 
HETATM    9  C20 UNL     1      21.978   1.266  52.247  1.00  0.00     0.072 A 
HETATM   10  C21 UNL     1      23.206   0.830  52.748  1.00  0.00     0.103 A 
ENDROOT
BRANCH   1  11
HETATM   11  O2  UNL     1      25.339   0.998  53.465  1.00  0.00    -0.311 OA
BRANCH  11  12
HETATM   12  C7  UNL     1      26.654   1.348  53.157  1.00  0.00     0.389 C 
HETATM   13  N1  UNL     1      27.472   0.147  53.350  1.00  0.00     0.121 N 
HETATM   14  C4  UNL     1      28.413   0.303  54.390  1.00  0.00     0.302 C 
HETATM   15  C5  UNL     1      29.198   1.600  54.130  1.00  0.00     0.198 C 
HETATM   16  O1  UNL     1      28.381   2.687  54.071  1.00  0.00    -0.385 OA
HETATM   17  C6  UNL     1      27.042   2.461  54.107  1.00  0.00     0.232 C 
BRANCH  13  18
HETATM   18  C3  UNL     1      26.614  -0.976  53.330  1.00  0.00     0.275 C 
BRANCH  18  19
HETATM   19  C2  UNL     1      26.912  -2.146  52.493  1.00  0.00     0.026 C 
HETATM   20  C1  UNL     1      28.212  -2.792  52.829  1.00  0.00     0.007 C 
ENDBRANCH  18  19
ENDBRANCH  13  18
ENDBRANCH  11  12
ENDBRANCH   1  11
BRANCH  10  21
HETATM   21  O3  UNL     1      23.237  -0.546  52.988  1.00  0.00    -0.353 OA
HETATM   22  C22 UNL     1      22.268  -1.202  53.750  1.00  0.00     0.210 C 
ENDBRANCH  10  21
BRANCH   4  23
HETATM   23  N2  UNL     1      23.780   5.788  52.131  1.00  0.00    -0.340 N 
HETATM   24  H16 UNL     1      24.103   6.283  52.990  1.00  0.00     0.167 HD
BRANCH  23  25
HETATM   25  C12 UNL     1      24.395   6.166  50.907  1.00  0.00     0.035 A 
HETATM   26  C13 UNL     1      24.014   7.283  50.176  1.00  0.00     0.032 A 
HETATM   27  C14 UNL     1      24.624   7.662  48.991  1.00  0.00     0.046 A 
HETATM   28  C15 UNL     1      25.669   6.899  48.497  1.00  0.00     0.138 A 
HETATM   29  F1  UNL     1      26.253   7.292  47.341  1.00  0.00    -0.204 F 
HETATM   30  C16 UNL     1      26.101   5.765  49.184  1.00  0.00     0.074 A 
HETATM   31 CL1  UNL     1      27.423   4.835  48.536  1.00  0.00    -0.081 Cl
HETATM   32  C17 UNL     1      25.455   5.438  50.358  1.00  0.00     0.056 A 
ENDBRANCH  23  25
ENDBRANCH   4  23
TORSDOF 7
ENDMDL
MODEL 2
REMARK VINA RESULT:      -8.3      2.079      3.096
REMARK  7 active torsions:
REMARK  status: ('A' for Active; 'I' for Inactive)
REMARK    1  A    between atoms: C2_2  and  C3_3 
REMARK    2  A    between atoms: C3_3  and  N1_4 
REMARK    3  A    between atoms: C7_9  and  O2_10 
REMARK    4  A    between atoms: O2_10  and  C8_11 
REMARK    5  A    between atoms: C11_14  and  N2_15 
REMARK    6  A    between atoms: N2_15  and  C12_16 
REMARK    7  A    between atoms: C21_29  and  O3_30 
ROOT
HETATM    1  C8  UNL     1      23.043   3.100  52.294  1.00  0.00     0.106 A 
HETATM    2  C9  UNL     1      23.575   4.353  52.080  1.00  0.00     0.057 A 
HETATM    3  C10 UNL     1      22.759   5.269  51.455  1.00  0.00     0.042 A 
HETATM    4  C11 UNL     1      23.334   6.507  51.278  1.00  0.00     0.142 A 
HETATM    5  N3  UNL     1      22.653   7.522  50.686  1.00  0.00    -0.224 NA
HETATM    6  C18 UNL     1      21.369   7.279  50.265  1.00  0.00     0.236 A 
HETATM    7  N4  UNL     1      20.812   6.067  50.442  1.00  0.00    -0.241 NA
HETATM    8  C19 UNL     1      21.476   5.029  51.036  1.00  0.00     0.075 A 
HETATM    9  C20 UNL     1      20.945   3.779  51.250  1.00  0.00     0.072 A 
HETATM   10  C21 UNL     1      21.750   2.830  51.882  1.00  0.00     0.103 A 
ENDROOT
BRANCH   1  11
HETATM   11  O2  UNL     1      23.597   1.999  52.877  1.00  0.00    -0.311 OA
BRANCH  11  12
HETATM   12  C7  UNL     1      24.422   1.119  52.177  1.00  0.00     0.389 C 
HETATM   13  N1  UNL     1      24.445  -0.138  52.930  1.00  0.00     0.121 N 
HETATM   14  C4  UNL     1      25.729  -0.437  53.433  1.00  0.00     0.302 C 
HETATM   15  C5  UNL     1      26.728  -0.351  52.266  1.00  0.00     0.198 C 
HETATM   16  O1  UNL     1      26.727   0.879  51.685  1.00  0.00    -0.385 OA
HETATM   17  C6  UNL     1      25.789   1.766  52.108  1.00  0.00     0.232 C 
BRANCH  13  18
HETATM   18  C3  UNL     1      23.323  -0.153  53.791  1.00  0.00     0.275 C 
BRANCH  18  19
HETATM   19  C2  UNL     1      22.355  -1.258  53.761  1.00  0.00     0.026 C 
HETATM   20  C1  UNL     1      21.135  -0.991  54.572  1.00  0.00     0.007 C 
ENDBRANCH  18  19
ENDBRANCH  13  18
ENDBRANCH  11  12
ENDBRANCH   1  11
BRANCH  10  21
HETATM   21  O3  UNL     1      21.111   1.598  52.047  1.00  0.00    -0.353 OA
HETATM   22  C22 UNL     1      20.811   0.755  50.976  1.00  0.00     0.210 C 
ENDBRANCH  10  21
BRANCH   4  23
HETATM   23  N2  UNL     1      24.621   6.952  51.619  1.00  0.00    -0.340 N 
HETATM   24  H16 UNL     1      25.011   7.251  52.538  1.00  0.00     0.167 HD
BRANCH  23  25
HETATM   25  C12 UNL     1      25.507   6.985  50.509  1.00  0.00     0.035 A 
HETATM   26  C13 UNL     1      25.736   5.891  49.685  1.00  0.00     0.032 A 
HETATM   27  C14 UNL     1      26.587   5.926  48.592  1.00  0.00     0.046 A 
HETATM   28  C15 UNL     1      27.251   7.104  48.292  1.00  0.00     0.138 A 
HETATM   29  F1  UNL     1      28.073   7.117  47.217  1.00  0.00    -0.204 F 
HETATM   30  C16 UNL     1      27.063   8.240  49.080  1.00  0.00     0.074 A 
HETATM   31 CL1  UNL     1      27.909   9.705  48.668  1.00  0.00    -0.081 Cl
HETATM   32  C17 UNL     1      26.204   8.144  50.154  1.00  0.00     0.056 A 
ENDBRANCH  23  25
ENDBRANCH   4  23
TORSDOF 7
ENDMDL
MODEL 3
REMARK VINA RESULT:      -8.3      3.693      7.038
REMARK  7 active torsions:
REMARK  status: ('A' for Active; 'I' for Inactive)
REMARK    1  A    between atoms: C2_2  and  C3_3 
REMARK    2  A    between atoms: C3_3  and  N1_4 
REMARK    3  A    between atoms: C7_9  and  O2_10 
REMARK    4  A    between atoms: O2_10  and  C8_11 
REMARK    5  A    between atoms: C11_14  and  N2_15 
REMARK    6  A    between atoms: N2_15  and  C12_16 
REMARK    7  A    between atoms: C21_29  and  O3_30 
ROOT
HETATM    1  C8  UNL     1      24.683   4.063  49.800  1.00  0.00     0.106 A 
HETATM    2  C9  UNL     1      25.056   3.543  51.020  1.00  0.00     0.057 A 
HETATM    3  C10 UNL     1      24.251   2.554  51.540  1.00  0.00     0.042 A 
HETATM    4  C11 UNL     1      24.677   2.061  52.752  1.00  0.00     0.142 A 
HETATM    5  N3  UNL     1      23.995   1.074  53.390  1.00  0.00    -0.224 NA
HETATM    6  C18 UNL     1      22.863   0.579  52.790  1.00  0.00     0.236 A 
HETATM    7  N4  UNL     1      22.453   1.066  51.604  1.00  0.00    -0.241 NA
HETATM    8  C19 UNL     1      23.122   2.057  50.942  1.00  0.00     0.075 A 
HETATM    9  C20 UNL     1      22.749   2.576  49.724  1.00  0.00     0.072 A 
HETATM   10  C21 UNL     1      23.548   3.580  49.173  1.00  0.00     0.103 A 
ENDROOT
BRANCH   1  11
HETATM   11  O2  UNL     1      25.267   5.036  49.045  1.00  0.00    -0.311 OA
BRANCH  11  12
HETATM   12  C7  UNL     1      26.528   5.555  49.341  1.00  0.00     0.389 C 
HETATM   13  N1  UNL     1      26.557   6.928  48.829  1.00  0.00     0.121 N 
HETATM   14  C4  UNL     1      27.501   7.093  47.794  1.00  0.00     0.302 C 
HETATM   15  C5  UNL     1      28.851   6.547  48.292  1.00  0.00     0.198 C 
HETATM   16  O1  UNL     1      28.770   5.236  48.648  1.00  0.00    -0.385 OA
HETATM   17  C6  UNL     1      27.538   4.666  48.645  1.00  0.00     0.232 C 
BRANCH  13  18
HETATM   18  C3  UNL     1      25.221   7.356  48.648  1.00  0.00     0.275 C 
BRANCH  18  19
HETATM   19  C2  UNL     1      24.637   8.406  49.493  1.00  0.00     0.026 C 
HETATM   20  C1  UNL     1      23.747   7.870  50.561  1.00  0.00     0.007 C 
ENDBRANCH  18  19
ENDBRANCH  13  18
ENDBRANCH  11  12
ENDBRANCH   1  11
BRANCH  10  21
HETATM   21  O3  UNL     1      23.076   4.033  47.938  1.00  0.00    -0.353 OA
HETATM   22  C22 UNL     1      22.116   5.039  47.820  1.00  0.00     0.210 C 
ENDBRANCH  10  21
BRANCH   4  23
HETATM   23  N2  UNL     1      25.784   2.433  53.530  1.00  0.00    -0.340 N 
HETATM   24  H16 UNL     1      25.935   3.271  54.131  1.00  0.00     0.167 HD
BRANCH  23  25
HETATM   25  C12 UNL     1      26.847   1.494  53.465  1.00  0.00     0.035 A 
HETATM   26  C13 UNL     1      28.160   1.807  53.793  1.00  0.00     0.032 A 
HETATM   27  C14 UNL     1      29.196   0.888  53.746  1.00  0.00     0.046 A 
HETATM   28  C15 UNL     1      28.926  -0.413  53.354  1.00  0.00     0.138 A 
HETATM   29  F1  UNL     1      29.953  -1.294  53.320  1.00  0.00    -0.204 F 
HETATM   30  C16 UNL     1      27.629  -0.792  53.012  1.00  0.00     0.074 A 
HETATM   31 CL1  UNL     1      27.326  -2.438  52.530  1.00  0.00    -0.081 Cl
HETATM   32  C17 UNL     1      26.639   0.166  53.077  1.00  0.00     0.056 A 
ENDBRANCH  23  25
ENDBRANCH   4  23
TORSDOF 7
ENDMDL
MODEL 4
REMARK VINA RESULT:      -8.2      4.107      7.183
REMARK  7 active torsions:
REMARK  status: ('A' for Active; 'I' for Inactive)
REMARK    1  A    between atoms: C2_2  and  C3_3 
REMARK    2  A    between atoms: C3_3  and  N1_4 
REMARK    3  A    between atoms: C7_9  and  O2_10 
REMARK    4  A    between atoms: O2_10  and  C8_11 
REMARK    5  A    between atoms: C11_14  and  N2_15 
REMARK    6  A    between atoms: N2_15  and  C12_16 
REMARK    7  A    between atoms: C21_29  and  O3_30 
ROOT
HETATM    1  C8  UNL     1      20.991   0.109  52.218  1.00  0.00     0.106 A 
HETATM    2  C9  UNL     1      22.359   0.191  52.360  1.00  0.00     0.057 A 
HETATM    3  C10 UNL     1      22.894  -0.369  53.499  1.00  0.00     0.042 A 
HETATM    4  C11 UNL     1      24.264  -0.272  53.584  1.00  0.00     0.142 A 
HETATM    5  N3  UNL     1      24.943  -0.784  54.643  1.00  0.00    -0.224 NA
HETATM    6  C18 UNL     1      24.221  -1.405  55.633  1.00  0.00     0.236 A 
HETATM    7  N4  UNL     1      22.882  -1.497  55.543  1.00  0.00    -0.241 NA
HETATM    8  C19 UNL     1      22.176  -0.990  54.487  1.00  0.00     0.075 A 
HETATM    9  C20 UNL     1      20.811  -1.072  54.346  1.00  0.00     0.072 A 
HETATM   10  C21 UNL     1      20.241  -0.513  53.201  1.00  0.00     0.103 A 
ENDROOT
BRANCH   1  11
HETATM   11  O2  UNL     1      20.183   0.563  51.218  1.00  0.00    -0.311 OA
BRANCH  11  12
HETATM   12  C7  UNL     1      19.857   1.912  51.076  1.00  0.00     0.389 C 
HETATM   13  N1  UNL     1      20.726   2.455  50.029  1.00  0.00     0.121 N 
HETATM   14  C4  UNL     1      21.607   3.440  50.522  1.00  0.00     0.302 C 
HETATM   15  C5  UNL     1      20.775   4.480  51.291  1.00  0.00     0.198 C 
HETATM   16  O1  UNL     1      20.079   3.917  52.317  1.00  0.00    -0.385 OA
HETATM   17  C6  UNL     1      20.108   2.563  52.420  1.00  0.00     0.232 C 
BRANCH  13  18
HETATM   18  C3  UNL     1      21.224   1.372  49.267  1.00  0.00     0.275 C 
BRANCH  18  19
HETATM   19  C2  UNL     1      22.034   1.598  48.063  1.00  0.00     0.026 C 
HETATM   20  C1  UNL     1      21.580   2.770  47.262  1.00  0.00     0.007 C 
ENDBRANCH  18  19
ENDBRANCH  13  18
ENDBRANCH  11  12
ENDBRANCH   1  11
BRANCH  10  21
HETATM   21  O3  UNL     1      18.851  -0.653  53.161  1.00  0.00    -0.353 OA
HETATM   22  C22 UNL     1      18.204  -1.851  53.470  1.00  0.00     0.210 C 
ENDBRANCH  10  21
BRANCH   4  23
HETATM   23  N2  UNL     1      25.174   0.327  52.699  1.00  0.00    -0.340 N 
HETATM   24  H16 UNL     1      25.009   0.932  51.867  1.00  0.00     0.167 HD
BRANCH  23  25
HETATM   25  C12 UNL     1      26.528   0.042  53.021  1.00  0.00     0.035 A 
HETATM   26  C13 UNL     1      27.129  -1.185  52.769  1.00  0.00     0.032 A 
HETATM   27  C14 UNL     1      28.454  -1.459  53.067  1.00  0.00     0.046 A 
HETATM   28  C15 UNL     1      29.233  -0.471  53.646  1.00  0.00     0.138 A 
HETATM   29  F1  UNL     1      30.526  -0.761  53.924  1.00  0.00    -0.204 F 
HETATM   30  C16 UNL     1      28.690   0.782  53.925  1.00  0.00     0.074 A 
HETATM   31 CL1  UNL     1      29.702   2.002  54.648  1.00  0.00    -0.081 Cl
HETATM   32  C17 UNL     1      27.366   0.997  53.606  1.00  0.00     0.056 A 
ENDBRANCH  23  25
ENDBRANCH   4  23
TORSDOF 7
ENDMDL
MODEL 5
REMARK VINA RESULT:      -8.1      2.149      2.447
REMARK  7 active torsions:
REMARK  status: ('A' for Active; 'I' for Inactive)
REMARK    1  A    between atoms: C2_2  and  C3_3 
REMARK    2  A    between atoms: C3_3  and  N1_4 
REMARK    3  A    between atoms: C7_9  and  O2_10 
REMARK    4  A    between atoms: O2_10  and  C8_11 
REMARK    5  A    between atoms: C11_14  and  N2_15 
REMARK    6  A    between atoms: N2_15  and  C12_16 
REMARK    7  A    between atoms: C21_29  and  O3_30 
ROOT
HETATM    1  C8  UNL     1      24.207   0.789  52.573  1.00  0.00     0.106 A 
HETATM    2  C9  UNL     1      24.094   1.541  51.423  1.00  0.00     0.057 A 
HETATM    3  C10 UNL     1      22.857   1.561  50.820  1.00  0.00     0.042 A 
HETATM    4  C11 UNL     1      22.795   2.337  49.685  1.00  0.00     0.142 A 
HETATM    5  N3  UNL     1      21.641   2.467  48.981  1.00  0.00    -0.224 NA
HETATM    6  C18 UNL     1      20.530   1.799  49.435  1.00  0.00     0.236 A 
HETATM    7  N4  UNL     1      20.596   1.043  50.546  1.00  0.00    -0.241 NA
HETATM    8  C19 UNL     1      21.745   0.897  51.272  1.00  0.00     0.075 A 
HETATM    9  C20 UNL     1      21.858   0.147  52.419  1.00  0.00     0.072 A 
HETATM   10  C21 UNL     1      23.101   0.109  53.052  1.00  0.00     0.103 A 
ENDROOT
BRANCH   1  11
HETATM   11  O2  UNL     1      25.285   0.577  53.380  1.00  0.00    -0.311 OA
BRANCH  11  12
HETATM   12  C7  UNL     1      26.545   1.101  53.096  1.00  0.00     0.389 C 
HETATM   13  N1  UNL     1      27.520   0.038  53.355  1.00  0.00     0.121 N 
HETATM   14  C4  UNL     1      28.394   0.361  54.414  1.00  0.00     0.302 C 
HETATM   15  C5  UNL     1      28.995   1.748  54.129  1.00  0.00     0.198 C 
HETATM   16  O1  UNL     1      28.033   2.704  54.008  1.00  0.00    -0.385 OA
HETATM   17  C6  UNL     1      26.740   2.289  54.015  1.00  0.00     0.232 C 
BRANCH  13  18
HETATM   18  C3  UNL     1      26.832  -1.197  53.352  1.00  0.00     0.275 C 
BRANCH  18  19
HETATM   19  C2  UNL     1      27.320  -2.338  52.566  1.00  0.00     0.026 C 
HETATM   20  C1  UNL     1      28.668  -2.810  52.993  1.00  0.00     0.007 C 
ENDBRANCH  18  19
ENDBRANCH  13  18
ENDBRANCH  11  12
ENDBRANCH   1  11
BRANCH  10  21
HETATM   21  O3  UNL     1      23.101  -0.682  54.204  1.00  0.00    -0.353 OA
HETATM   22  C22 UNL     1      22.003  -1.452  54.590  1.00  0.00     0.210 C 
ENDBRANCH  10  21
BRANCH   4  23
HETATM   23  N2  UNL     1      23.806   3.079  49.055  1.00  0.00    -0.340 N 
HETATM   24  H16 UNL     1      24.461   2.814  48.289  1.00  0.00     0.167 HD
BRANCH  23  25
HETATM   25  C12 UNL     1      23.925   4.399  49.567  1.00  0.00     0.035 A 
HETATM   26  C13 UNL     1      25.142   5.054  49.707  1.00  0.00     0.032 A 
HETATM   27  C14 UNL     1      25.259   6.347  50.191  1.00  0.00     0.046 A 
HETATM   28  C15 UNL     1      24.114   7.035  50.559  1.00  0.00     0.138 A 
HETATM   29  F1  UNL     1      24.253   8.298  51.025  1.00  0.00    -0.204 F 
HETATM   30  C16 UNL     1      22.861   6.434  50.443  1.00  0.00     0.074 A 
HETATM   31 CL1  UNL     1      21.444   7.332  50.909  1.00  0.00    -0.081 Cl
HETATM   32  C17 UNL     1      22.808   5.145  49.955  1.00  0.00     0.056 A 
ENDBRANCH  23  25
ENDBRANCH   4  23
TORSDOF 7
ENDMDL
MODEL 6
REMARK VINA RESULT:      -8.1      4.599      7.863
REMARK  7 active torsions:
REMARK  status: ('A' for Active; 'I' for Inactive)
REMARK    1  A    between atoms: C2_2  and  C3_3 
REMARK    2  A    between atoms: C3_3  and  N1_4 
REMARK    3  A    between atoms: C7_9  and  O2_10 
REMARK    4  A    between atoms: O2_10  and  C8_11 
REMARK    5  A    between atoms: C11_14  and  N2_15 
REMARK    6  A    between atoms: N2_15  and  C12_16 
REMARK    7  A    between atoms: C21_29  and  O3_30 
ROOT
HETATM    1  C8  UNL     1      20.864   0.501  51.922  1.00  0.00     0.106 A 
HETATM    2  C9  UNL     1      22.194   0.504  52.282  1.00  0.00     0.057 A 
HETATM    3  C10 UNL     1      22.526  -0.196  53.420  1.00  0.00     0.042 A 
HETATM    4  C11 UNL     1      23.867  -0.171  53.726  1.00  0.00     0.142 A 
HETATM    5  N3  UNL     1      24.354  -0.823  54.814  1.00  0.00    -0.224 NA
HETATM    6  C18 UNL     1      23.467  -1.511  55.605  1.00  0.00     0.236 A 
HETATM    7  N4  UNL     1      22.157  -1.532  55.299  1.00  0.00    -0.241 NA
HETATM    8  C19 UNL     1      21.642  -0.885  54.210  1.00  0.00     0.075 A 
HETATM    9  C20 UNL     1      20.315  -0.889  53.851  1.00  0.00     0.072 A 
HETATM   10  C21 UNL     1      19.950  -0.187  52.701  1.00  0.00     0.103 A 
ENDROOT
BRANCH   1  11
HETATM   11  O2  UNL     1      20.239   1.094  50.865  1.00  0.00    -0.311 OA
BRANCH  11  12
HETATM   12  C7  UNL     1      20.896   1.977  50.009  1.00  0.00     0.389 C 
HETATM   13  N1  UNL     1      19.915   2.985  49.599  1.00  0.00     0.121 N 
HETATM   14  C4  UNL     1      19.649   2.940  48.214  1.00  0.00     0.302 C 
HETATM   15  C5  UNL     1      20.994   2.990  47.470  1.00  0.00     0.198 C 
HETATM   16  O1  UNL     1      21.810   1.960  47.824  1.00  0.00    -0.385 OA
HETATM   17  C6  UNL     1      21.395   1.158  48.837  1.00  0.00     0.232 C 
BRANCH  13  18
HETATM   18  C3  UNL     1      18.850   2.965  50.529  1.00  0.00     0.275 C 
BRANCH  18  19
HETATM   19  C2  UNL     1      18.113   4.189  50.869  1.00  0.00     0.026 C 
HETATM   20  C1  UNL     1      16.833   3.923  51.584  1.00  0.00     0.007 C 
ENDBRANCH  18  19
ENDBRANCH  13  18
ENDBRANCH  11  12
ENDBRANCH   1  11
BRANCH  10  21
HETATM   21  O3  UNL     1      18.581  -0.259  52.432  1.00  0.00    -0.353 OA
HETATM   22  C22 UNL     1      17.772  -1.293  52.906  1.00  0.00     0.210 C 
ENDBRANCH  10  21
BRANCH   4  23
HETATM   23  N2  UNL     1      24.923   0.476  53.065  1.00  0.00    -0.340 N 
HETATM   24  H16 UNL     1      24.957   1.407  52.598  1.00  0.00     0.167 HD
BRANCH  23  25
HETATM   25  C12 UNL     1      26.119  -0.290  53.052  1.00  0.00     0.035 A 
HETATM   26  C13 UNL     1      26.176  -1.606  52.611  1.00  0.00     0.032 A 
HETATM   27  C14 UNL     1      27.345  -2.348  52.582  1.00  0.00     0.046 A 
HETATM   28  C15 UNL     1      28.526  -1.765  53.011  1.00  0.00     0.138 A 
HETATM   29  F1  UNL     1      29.656  -2.508  52.969  1.00  0.00    -0.204 F 
HETATM   30  C16 UNL     1      28.537  -0.446  53.465  1.00  0.00     0.074 A 
HETATM   31 CL1  UNL     1      30.041   0.256  53.990  1.00  0.00    -0.081 Cl
HETATM   32  C17 UNL     1      27.343   0.243  53.471  1.00  0.00     0.056 A 
ENDBRANCH  23  25
ENDBRANCH   4  23
TORSDOF 7
ENDMDL
MODEL 7
REMARK VINA RESULT:      -8.0      3.656      6.913
REMARK  7 active torsions:
REMARK  status: ('A' for Active; 'I' for Inactive)
REMARK    1  A    between atoms: C2_2  and  C3_3 
REMARK    2  A    between atoms: C3_3  and  N1_4 
REMARK    3  A    between atoms: C7_9  and  O2_10 
REMARK    4  A    between atoms: O2_10  and  C8_11 
REMARK    5  A    between atoms: C11_14  and  N2_15 
REMARK    6  A    between atoms: N2_15  and  C12_16 
REMARK    7  A    between atoms: C21_29  and  O3_30 
ROOT
HETATM    1  C8  UNL     1      21.993   2.448  51.379  1.00  0.00     0.106 A 
HETATM    2  C9  UNL     1      23.053   1.596  51.601  1.00  0.00     0.057 A 
HETATM    3  C10 UNL     1      22.962   0.772  52.700  1.00  0.00     0.042 A 
HETATM    4  C11 UNL     1      24.040  -0.067  52.867  1.00  0.00     0.142 A 
HETATM    5  N3  UNL     1      24.094  -0.948  53.900  1.00  0.00    -0.224 NA
HETATM    6  C18 UNL     1      23.039  -0.979  54.778  1.00  0.00     0.236 A 
HETATM    7  N4  UNL     1      21.988  -0.156  54.609  1.00  0.00    -0.241 NA
HETATM    8  C19 UNL     1      21.908   0.738  53.577  1.00  0.00     0.075 A 
HETATM    9  C20 UNL     1      20.850   1.587  53.356  1.00  0.00     0.072 A 
HETATM   10  C21 UNL     1      20.916   2.434  52.248  1.00  0.00     0.103 A 
ENDROOT
BRANCH   1  11
HETATM   11  O2  UNL     1      21.797   3.367  50.392  1.00  0.00    -0.311 OA
BRANCH  11  12
HETATM   12  C7  UNL     1      21.898   3.042  49.039  1.00  0.00     0.389 C 
HETATM   13  N1  UNL     1      22.804   4.021  48.431  1.00  0.00     0.121 N 
HETATM   14  C4  UNL     1      22.154   4.826  47.471  1.00  0.00     0.302 C 
HETATM   15  C5  UNL     1      21.431   3.896  46.482  1.00  0.00     0.198 C 
HETATM   16  O1  UNL     1      20.528   3.092  47.107  1.00  0.00    -0.385 OA
HETATM   17  C6  UNL     1      20.500   3.126  48.465  1.00  0.00     0.232 C 
BRANCH  13  18
HETATM   18  C3  UNL     1      23.562   4.618  49.464  1.00  0.00     0.275 C 
BRANCH  18  19
HETATM   19  C2  UNL     1      25.028   4.681  49.394  1.00  0.00     0.026 C 
HETATM   20  C1  UNL     1      25.683   3.368  49.650  1.00  0.00     0.007 C 
ENDBRANCH  18  19
ENDBRANCH  13  18
ENDBRANCH  11  12
ENDBRANCH   1  11
BRANCH  10  21
HETATM   21  O3  UNL     1      19.790   3.252  52.121  1.00  0.00    -0.353 OA
HETATM   22  C22 UNL     1      18.563   2.778  51.654  1.00  0.00     0.210 C 
ENDBRANCH  10  21
BRANCH   4  23
HETATM   23  N2  UNL     1      25.210  -0.182  52.100  1.00  0.00    -0.340 N 
HETATM   24  H16 UNL     1      25.362  -0.604  51.160  1.00  0.00     0.167 HD
BRANCH  23  25
HETATM   25  C12 UNL     1      26.347   0.379  52.739  1.00  0.00     0.035 A 
HETATM   26  C13 UNL     1      26.388   1.684  53.214  1.00  0.00     0.032 A 
HETATM   27  C14 UNL     1      27.491   2.228  53.852  1.00  0.00     0.046 A 
HETATM   28  C15 UNL     1      28.618   1.445  54.034  1.00  0.00     0.138 A 
HETATM   29  F1  UNL     1      29.682   1.996  54.664  1.00  0.00    -0.204 F 
HETATM   30  C16 UNL     1      28.642   0.126  53.581  1.00  0.00     0.074 A 
HETATM   31 CL1  UNL     1      30.076  -0.830  53.834  1.00  0.00    -0.081 Cl
HETATM   32  C17 UNL     1      27.515  -0.360  52.953  1.00  0.00     0.056 A 
ENDBRANCH  23  25
ENDBRANCH   4  23
TORSDOF 7
ENDMDL
MODEL 8
REMARK VINA RESULT:      -8.0      3.925      7.262
REMARK  7 active torsions:
REMARK  status: ('A' for Active; 'I' for Inactive)
REMARK    1  A    between atoms: C2_2  and  C3_3 
REMARK    2  A    between atoms: C3_3  and  N1_4 
REMARK    3  A    between atoms: C7_9  and  O2_10 
REMARK    4  A    between atoms: O2_10  and  C8_11 
REMARK    5  A    between atoms: C11_14  and  N2_15 
REMARK    6  A    between atoms: N2_15  and  C12_16 
REMARK    7  A    between atoms: C21_29  and  O3_30 
ROOT
HETATM    1  C8  UNL     1      22.276   1.942  51.457  1.00  0.00     0.106 A 
HETATM    2  C9  UNL     1      23.538   1.928  52.011  1.00  0.00     0.057 A 
HETATM    3  C10 UNL     1      24.553   2.455  51.244  1.00  0.00     0.042 A 
HETATM    4  C11 UNL     1      25.788   2.429  51.850  1.00  0.00     0.142 A 
HETATM    5  N3  UNL     1      26.890   2.921  51.225  1.00  0.00    -0.224 NA
HETATM    6  C18 UNL     1      26.737   3.448  49.966  1.00  0.00     0.236 A 
HETATM    7  N4  UNL     1      25.526   3.471  49.380  1.00  0.00    -0.241 NA
HETATM    8  C19 UNL     1      24.403   2.983  49.988  1.00  0.00     0.075 A 
HETATM    9  C20 UNL     1      23.144   2.997  49.435  1.00  0.00     0.072 A 
HETATM   10  C21 UNL     1      22.095   2.469  50.191  1.00  0.00     0.103 A 
ENDROOT
BRANCH   1  11
HETATM   11  O2  UNL     1      21.091   1.498  51.963  1.00  0.00    -0.311 OA
BRANCH  11  12
HETATM   12  C7  UNL     1      20.825   0.144  52.162  1.00  0.00     0.389 C 
HETATM   13  N1  UNL     1      19.369  -0.017  52.121  1.00  0.00     0.121 N 
HETATM   14  C4  UNL     1      18.843  -0.449  53.357  1.00  0.00     0.302 C 
HETATM   15  C5  UNL     1      19.630  -1.694  53.800  1.00  0.00     0.198 C 
HETATM   16  O1  UNL     1      20.962  -1.438  53.921  1.00  0.00    -0.385 OA
HETATM   17  C6  UNL     1      21.400  -0.218  53.516  1.00  0.00     0.232 C 
BRANCH  13  18
HETATM   18  C3  UNL     1      18.821   1.112  51.471  1.00  0.00     0.275 C 
BRANCH  18  19
HETATM   19  C2  UNL     1      17.466   1.082  50.903  1.00  0.00     0.026 C 
HETATM   20  C1  UNL     1      17.221  -0.104  50.036  1.00  0.00     0.007 C 
ENDBRANCH  18  19
ENDBRANCH  13  18
ENDBRANCH  11  12
ENDBRANCH   1  11
BRANCH  10  21
HETATM   21  O3  UNL     1      20.864   2.535  49.533  1.00  0.00    -0.353 OA
HETATM   22  C22 UNL     1      20.696   2.134  48.206  1.00  0.00     0.210 C 
ENDBRANCH  10  21
BRANCH   4  23
HETATM   23  N2  UNL     1      26.156   1.929  53.108  1.00  0.00    -0.340 N 
HETATM   24  H16 UNL     1      26.059   2.350  54.057  1.00  0.00     0.167 HD
BRANCH  23  25
HETATM   25  C12 UNL     1      26.752   0.641  53.040  1.00  0.00     0.035 A 
HETATM   26  C13 UNL     1      26.088  -0.480  52.558  1.00  0.00     0.032 A 
HETATM   27  C14 UNL     1      26.672  -1.733  52.475  1.00  0.00     0.046 A 
HETATM   28  C15 UNL     1      27.984  -1.894  52.889  1.00  0.00     0.138 A 
HETATM   29  F1  UNL     1      28.536  -3.127  52.794  1.00  0.00    -0.204 F 
HETATM   30  C16 UNL     1      28.707  -0.809  53.382  1.00  0.00     0.074 A 
HETATM   31 CL1  UNL     1      30.357  -1.048  53.887  1.00  0.00    -0.081 Cl
HETATM   32  C17 UNL     1      28.073   0.414  53.441  1.00  0.00     0.056 A 
ENDBRANCH  23  25
ENDBRANCH   4  23
TORSDOF 7
ENDMDL
MODEL 9
REMARK VINA RESULT:      -7.8      2.689      5.773
REMARK  7 active torsions:
REMARK  status: ('A' for Active; 'I' for Inactive)
REMARK    1  A    between atoms: C2_2  and  C3_3 
REMARK    2  A    between atoms: C3_3  and  N1_4 
REMARK    3  A    between atoms: C7_9  and  O2_10 
REMARK    4  A    between atoms: O2_10  and  C8_11 
REMARK    5  A    between atoms: C11_14  and  N2_15 
REMARK    6  A    between atoms: N2_15  and  C12_16 
REMARK    7  A    between atoms: C21_29  and  O3_30 
ROOT
HETATM    1  C8  UNL     1      22.292   1.202  51.932  1.00  0.00     0.106 A 
HETATM    2  C9  UNL     1      23.236   1.869  51.182  1.00  0.00     0.057 A 
HETATM    3  C10 UNL     1      24.530   1.839  51.651  1.00  0.00     0.042 A 
HETATM    4  C11 UNL     1      25.433   2.508  50.858  1.00  0.00     0.142 A 
HETATM    5  N3  UNL     1      26.751   2.562  51.181  1.00  0.00    -0.224 NA
HETATM    6  C18 UNL     1      27.161   1.929  52.328  1.00  0.00     0.236 A 
HETATM    7  N4  UNL     1      26.273   1.276  53.100  1.00  0.00    -0.241 NA
HETATM    8  C19 UNL     1      24.942   1.205  52.795  1.00  0.00     0.075 A 
HETATM    9  C20 UNL     1      24.001   0.540  53.545  1.00  0.00     0.072 A 
HETATM   10  C21 UNL     1      22.680   0.553  53.092  1.00  0.00     0.103 A 
ENDROOT
BRANCH   1  11
HETATM   11  O2  UNL     1      20.952   1.055  51.729  1.00  0.00    -0.311 OA
BRANCH  11  12
HETATM   12  C7  UNL     1      20.025   2.004  52.158  1.00  0.00     0.389 C 
HETATM   13  N1  UNL     1      18.694   1.426  51.952  1.00  0.00     0.121 N 
HETATM   14  C4  UNL     1      17.941   2.143  50.998  1.00  0.00     0.302 C 
HETATM   15  C5  UNL     1      17.958   3.628  51.400  1.00  0.00     0.198 C 
HETATM   16  O1  UNL     1      19.224   4.123  51.466  1.00  0.00    -0.385 OA
HETATM   17  C6  UNL     1      20.245   3.241  51.314  1.00  0.00     0.232 C 
BRANCH  13  18
HETATM   18  C3  UNL     1      18.839   0.024  51.835  1.00  0.00     0.275 C 
BRANCH  18  19
HETATM   19  C2  UNL     1      17.811  -0.893  52.347  1.00  0.00     0.026 C 
HETATM   20  C1  UNL     1      18.297  -1.754  53.461  1.00  0.00     0.007 C 
ENDBRANCH  18  19
ENDBRANCH  13  18
ENDBRANCH  11  12
ENDBRANCH   1  11
BRANCH  10  21
HETATM   21  O3  UNL     1      21.811  -0.153  53.928  1.00  0.00    -0.353 OA
HETATM   22  C22 UNL     1      22.172  -1.345  54.558  1.00  0.00     0.210 C 
ENDBRANCH  10  21
BRANCH   4  23
HETATM   23  N2  UNL     1      25.220   3.223  49.669  1.00  0.00    -0.340 N 
HETATM   24  H16 UNL     1      25.017   2.884  48.704  1.00  0.00     0.167 HD
BRANCH  23  25
HETATM   25  C12 UNL     1      25.300   4.630  49.847  1.00  0.00     0.035 A 
HETATM   26  C13 UNL     1      24.462   5.338  50.699  1.00  0.00     0.032 A 
HETATM   27  C14 UNL     1      24.549   6.708  50.886  1.00  0.00     0.046 A 
HETATM   28  C15 UNL     1      25.515   7.423  50.198  1.00  0.00     0.138 A 
HETATM   29  F1  UNL     1      25.584   8.760  50.401  1.00  0.00    -0.204 F 
HETATM   30  C16 UNL     1      26.388   6.772  49.328  1.00  0.00     0.074 A 
HETATM   31 CL1  UNL     1      27.595   7.703  48.485  1.00  0.00    -0.081 Cl
HETATM   32  C17 UNL     1      26.254   5.407  49.182  1.00  0.00     0.056 A 
ENDBRANCH  23  25
ENDBRANCH   4  23
TORSDOF 7
ENDMDL
