MODEL 1
REMARK VINA RESULT:      -9.1      0.000      0.000
REMARK  3 active torsions:
REMARK  status: ('A' for Active; 'I' for Inactive)
REMARK    1  A    between atoms: C5_5  and  N1_6 
REMARK    2  A    between atoms: N1_6  and  C6_7 
REMARK    3  A    between atoms: C18_23  and  N4_24 
ROOT
HETATM    1  C6  UNL     1      21.933   0.948  52.827  1.00  0.00     0.053 C 
HETATM    2  C7  UNL     1      22.649   0.077  53.563  1.00  0.00     0.029 C 
HETATM    3  C8  UNL     1      23.902  -0.649  53.859  1.00  0.00    -0.002 C 
HETATM    4  C9  UNL     1      25.066  -0.632  53.248  1.00  0.00    -0.022 C 
HETATM    5  C10 UNL     1      26.143  -0.326  52.305  1.00  0.00     0.070 C 
HETATM    6  C11 UNL     1      27.249   0.420  52.989  1.00  0.00    -0.006 A 
HETATM    7  C12 UNL     1      28.401  -0.206  53.401  1.00  0.00     0.044 A 
HETATM    8 CL1  UNL     1      28.504  -1.937  53.083  1.00  0.00    -0.084 Cl
HETATM    9  C13 UNL     1      29.467   0.399  54.033  1.00  0.00     0.048 A 
HETATM   10  C14 UNL     1      29.335   1.754  54.258  1.00  0.00     0.037 A 
HETATM   11 CL2  UNL     1      30.653   2.578  55.055  1.00  0.00    -0.084 Cl
HETATM   12  C15 UNL     1      28.194   2.415  53.859  1.00  0.00     0.054 A 
HETATM   13  C16 UNL     1      27.128   1.773  53.219  1.00  0.00     0.043 A 
HETATM   14  N2  UNL     1      26.039   2.639  52.889  1.00  0.00    -0.351 N 
HETATM   15  C17 UNL     1      25.079   2.482  51.846  1.00  0.00     0.204 C 
HETATM   16  N3  UNL     1      24.103   1.933  52.454  1.00  0.00    -0.253 NA
HETATM   17  C18 UNL     1      22.840   1.561  51.787  1.00  0.00     0.251 C 
HETATM   18  H14 UNL     1      25.897   3.499  53.455  1.00  0.00     0.166 HD
ENDROOT
BRANCH   1  19
HETATM   19  N1  UNL     1      20.627   1.502  52.757  1.00  0.00    -0.357 N 
HETATM   20  H6  UNL     1      20.588   2.506  53.081  1.00  0.00     0.166 HD
BRANCH  19  21
HETATM   21  C5  UNL     1      19.530   0.715  52.285  1.00  0.00     0.048 A 
HETATM   22  C4  UNL     1      18.969  -0.307  52.927  1.00  0.00     0.028 A 
HETATM   23  C3  UNL     1      17.886  -0.811  52.071  1.00  0.00     0.008 A 
HETATM   24  C2  UNL     1      17.823  -0.091  50.952  1.00  0.00    -0.044 A 
HETATM   25  C1  UNL     1      16.919  -0.199  49.792  1.00  0.00     0.046 C 
HETATM   26  C19 UNL     1      18.876   0.974  50.964  1.00  0.00     0.248 A 
HETATM   27  F1  UNL     1      19.793   0.724  49.947  1.00  0.00    -0.238 F 
ENDBRANCH  19  21
ENDBRANCH   1  19
BRANCH  17  28
HETATM   28  N4  UNL     1      22.288   2.695  51.130  1.00  0.00    -0.405 N 
HETATM   29  H17 UNL     1      22.825   3.078  50.342  1.00  0.00     0.152 HD
HETATM   30  H18 UNL     1      21.257   2.665  51.009  1.00  0.00     0.152 HD
ENDBRANCH  17  28
TORSDOF 3
ENDMDL
MODEL 2
REMARK VINA RESULT:      -9.0      3.706      8.398
REMARK  3 active torsions:
REMARK  status: ('A' for Active; 'I' for Inactive)
REMARK    1  A    between atoms: C5_5  and  N1_6 
REMARK    2  A    between atoms: N1_6  and  C6_7 
REMARK    3  A    between atoms: C18_23  and  N4_24 
ROOT
HETATM    1  C6  UNL     1      24.809   1.802  52.840  1.00  0.00     0.053 C 
HETATM    2  C7  UNL     1      24.258   0.576  52.768  1.00  0.00     0.029 C 
HETATM    3  C8  UNL     1      23.093  -0.330  52.858  1.00  0.00    -0.002 C 
HETATM    4  C9  UNL     1      21.836  -0.083  53.153  1.00  0.00    -0.022 C 
HETATM    5  C10 UNL     1      20.598   0.608  53.518  1.00  0.00     0.070 C 
HETATM    6  C11 UNL     1      19.625   0.588  52.378  1.00  0.00    -0.006 A 
HETATM    7  C12 UNL     1      18.580  -0.304  52.329  1.00  0.00     0.044 A 
HETATM    8 CL1  UNL     1      18.450  -1.425  53.684  1.00  0.00    -0.084 Cl
HETATM    9  C13 UNL     1      17.640  -0.392  51.326  1.00  0.00     0.048 A 
HETATM   10  C14 UNL     1      17.788   0.508  50.290  1.00  0.00     0.037 A 
HETATM   11 CL2  UNL     1      16.626   0.447  48.987  1.00  0.00    -0.084 Cl
HETATM   12  C15 UNL     1      18.824   1.416  50.304  1.00  0.00     0.054 A 
HETATM   13  C16 UNL     1      19.764   1.482  51.339  1.00  0.00     0.043 A 
HETATM   14  N2  UNL     1      20.758   2.494  51.160  1.00  0.00    -0.351 N 
HETATM   15  C17 UNL     1      21.511   3.170  52.165  1.00  0.00     0.204 C 
HETATM   16  N3  UNL     1      22.592   2.497  52.196  1.00  0.00    -0.253 NA
HETATM   17  C18 UNL     1      23.715   2.809  53.099  1.00  0.00     0.251 C 
HETATM   18  H14 UNL     1      20.988   2.802  50.194  1.00  0.00     0.166 HD
ENDROOT
BRANCH   1  19
HETATM   19  N1  UNL     1      26.070   2.440  52.700  1.00  0.00    -0.357 N 
HETATM   20  H6  UNL     1      25.996   3.417  52.308  1.00  0.00     0.166 HD
BRANCH  19  21
HETATM   21  C5  UNL     1      27.272   1.763  53.075  1.00  0.00     0.048 A 
HETATM   22  C4  UNL     1      28.386   2.339  53.521  1.00  0.00     0.028 A 
HETATM   23  C3  UNL     1      29.354   1.263  53.779  1.00  0.00     0.008 A 
HETATM   24  C2  UNL     1      28.807   0.085  53.486  1.00  0.00    -0.044 A 
HETATM   25  C1  UNL     1      29.363  -1.279  53.574  1.00  0.00     0.046 C 
HETATM   26  C19 UNL     1      27.404   0.274  53.000  1.00  0.00     0.248 A 
HETATM   27  F1  UNL     1      27.323  -0.122  51.667  1.00  0.00    -0.238 F 
ENDBRANCH  19  21
ENDBRANCH   1  19
BRANCH  17  28
HETATM   28  N4  UNL     1      24.117   4.162  52.921  1.00  0.00    -0.405 N 
HETATM   29  H17 UNL     1      25.122   4.330  52.779  1.00  0.00     0.152 HD
HETATM   30  H18 UNL     1      23.471   4.732  52.342  1.00  0.00     0.152 HD
ENDBRANCH  17  28
TORSDOF 3
ENDMDL
MODEL 3
REMARK VINA RESULT:      -8.5      6.074      7.953
REMARK  3 active torsions:
REMARK  status: ('A' for Active; 'I' for Inactive)
REMARK    1  A    between atoms: C5_5  and  N1_6 
REMARK    2  A    between atoms: N1_6  and  C6_7 
REMARK    3  A    between atoms: C18_23  and  N4_24 
ROOT
HETATM    1  C6  UNL     1      24.856   4.616  50.806  1.00  0.00     0.053 C 
HETATM    2  C7  UNL     1      25.939   4.421  50.031  1.00  0.00     0.029 C 
HETATM    3  C8  UNL     1      26.892   4.873  48.994  1.00  0.00    -0.002 C 
HETATM    4  C9  UNL     1      26.935   5.988  48.299  1.00  0.00    -0.022 C 
HETATM    5  C10 UNL     1      26.616   7.314  47.766  1.00  0.00     0.070 C 
HETATM    6  C11 UNL     1      27.668   8.307  48.155  1.00  0.00    -0.006 A 
HETATM    7  C12 UNL     1      28.660   8.694  47.285  1.00  0.00     0.044 A 
HETATM    8 CL1  UNL     1      28.626   7.953  45.686  1.00  0.00    -0.084 Cl
HETATM    9  C13 UNL     1      29.663   9.600  47.556  1.00  0.00     0.048 A 
HETATM   10  C14 UNL     1      29.644  10.150  48.822  1.00  0.00     0.037 A 
HETATM   11 CL2  UNL     1      30.890  11.305  49.225  1.00  0.00    -0.084 Cl
HETATM   12  C15 UNL     1      28.666   9.785  49.720  1.00  0.00     0.054 A 
HETATM   13  C16 UNL     1      27.659   8.862  49.416  1.00  0.00     0.043 A 
HETATM   14  N2  UNL     1      26.743   8.623  50.488  1.00  0.00    -0.351 N 
HETATM   15  C17 UNL     1      25.387   8.189  50.402  1.00  0.00     0.204 C 
HETATM   16  N3  UNL     1      25.493   6.931  50.573  1.00  0.00    -0.253 NA
HETATM   17  C18 UNL     1      24.337   6.013  50.568  1.00  0.00     0.251 C 
HETATM   18  H14 UNL     1      27.068   8.773  51.464  1.00  0.00     0.166 HD
ENDROOT
BRANCH   1  19
HETATM   19  N1  UNL     1      24.093   3.948  51.801  1.00  0.00    -0.357 N 
HETATM   20  H6  UNL     1      23.348   4.562  52.228  1.00  0.00     0.166 HD
BRANCH  19  21
HETATM   21  C5  UNL     1      24.366   2.585  52.132  1.00  0.00     0.048 A 
HETATM   22  C4  UNL     1      23.572   1.546  51.882  1.00  0.00     0.028 A 
HETATM   23  C3  UNL     1      24.253   0.350  52.394  1.00  0.00     0.008 A 
HETATM   24  C2  UNL     1      25.422   0.691  52.931  1.00  0.00    -0.044 A 
HETATM   25  C1  UNL     1      26.463  -0.137  53.570  1.00  0.00     0.046 C 
HETATM   26  C19 UNL     1      25.627   2.170  52.823  1.00  0.00     0.248 A 
HETATM   27  F1  UNL     1      25.648   2.725  54.100  1.00  0.00    -0.238 F 
ENDBRANCH  19  21
ENDBRANCH   1  19
BRANCH  17  28
HETATM   28  N4  UNL     1      23.373   6.445  51.520  1.00  0.00    -0.405 N 
HETATM   29  H17 UNL     1      23.503   7.386  51.914  1.00  0.00     0.152 HD
HETATM   30  H18 UNL     1      22.396   6.172  51.301  1.00  0.00     0.152 HD
ENDBRANCH  17  28
TORSDOF 3
ENDMDL
MODEL 4
REMARK VINA RESULT:      -8.5      5.849      7.576
REMARK  3 active torsions:
REMARK  status: ('A' for Active; 'I' for Inactive)
REMARK    1  A    between atoms: C5_5  and  N1_6 
REMARK    2  A    between atoms: N1_6  and  C6_7 
REMARK    3  A    between atoms: C18_23  and  N4_24 
ROOT
HETATM    1  C6  UNL     1      24.447   4.731  50.855  1.00  0.00     0.053 C 
HETATM    2  C7  UNL     1      25.564   4.480  50.146  1.00  0.00     0.029 C 
HETATM    3  C8  UNL     1      26.586   4.871  49.151  1.00  0.00    -0.002 C 
HETATM    4  C9  UNL     1      26.703   5.962  48.428  1.00  0.00    -0.022 C 
HETATM    5  C10 UNL     1      26.457   7.280  47.840  1.00  0.00     0.070 C 
HETATM    6  C11 UNL     1      27.519   8.252  48.259  1.00  0.00    -0.006 A 
HETATM    7  C12 UNL     1      28.568   8.582  47.435  1.00  0.00     0.044 A 
HETATM    8 CL1  UNL     1      28.597   7.794  45.858  1.00  0.00    -0.084 Cl
HETATM    9  C13 UNL     1      29.584   9.464  47.735  1.00  0.00     0.048 A 
HETATM   10  C14 UNL     1      29.514  10.052  48.981  1.00  0.00     0.037 A 
HETATM   11 CL2  UNL     1      30.774  11.180  49.420  1.00  0.00    -0.084 Cl
HETATM   12  C15 UNL     1      28.477   9.745  49.835  1.00  0.00     0.054 A 
HETATM   13  C16 UNL     1      27.458   8.844  49.501  1.00  0.00     0.043 A 
HETATM   14  N2  UNL     1      26.479   8.667  50.527  1.00  0.00    -0.351 N 
HETATM   15  C17 UNL     1      25.116   8.272  50.379  1.00  0.00     0.204 C 
HETATM   16  N3  UNL     1      25.171   7.017  50.591  1.00  0.00    -0.253 NA
HETATM   17  C18 UNL     1      23.988   6.136  50.548  1.00  0.00     0.251 C 
HETATM   18  H14 UNL     1      26.755   8.836  51.515  1.00  0.00     0.166 HD
ENDROOT
BRANCH   1  19
HETATM   19  N1  UNL     1      23.610   4.118  51.824  1.00  0.00    -0.357 N 
HETATM   20  H6  UNL     1      22.744   4.684  52.036  1.00  0.00     0.166 HD
BRANCH  19  21
HETATM   21  C5  UNL     1      23.970   2.863  52.405  1.00  0.00     0.048 A 
HETATM   22  C4  UNL     1      25.096   2.604  53.067  1.00  0.00     0.028 A 
HETATM   23  C3  UNL     1      25.038   1.195  53.480  1.00  0.00     0.008 A 
HETATM   24  C2  UNL     1      23.898   0.649  53.062  1.00  0.00    -0.044 A 
HETATM   25  C1  UNL     1      23.375  -0.722  53.222  1.00  0.00     0.046 C 
HETATM   26  C19 UNL     1      23.081   1.662  52.322  1.00  0.00     0.248 A 
HETATM   27  F1  UNL     1      22.966   1.274  50.989  1.00  0.00    -0.238 F 
ENDBRANCH  19  21
ENDBRANCH   1  19
BRANCH  17  28
HETATM   28  N4  UNL     1      22.988   6.626  51.433  1.00  0.00    -0.405 N 
HETATM   29  H17 UNL     1      22.919   6.167  52.350  1.00  0.00     0.152 HD
HETATM   30  H18 UNL     1      22.874   7.658  51.428  1.00  0.00     0.152 HD
ENDBRANCH  17  28
TORSDOF 3
ENDMDL
MODEL 5
REMARK VINA RESULT:      -8.5      5.159      8.685
REMARK  3 active torsions:
REMARK  status: ('A' for Active; 'I' for Inactive)
REMARK    1  A    between atoms: C5_5  and  N1_6 
REMARK    2  A    between atoms: N1_6  and  C6_7 
REMARK    3  A    between atoms: C18_23  and  N4_24 
ROOT
HETATM    1  C6  UNL     1      25.256   5.817  49.937  1.00  0.00     0.053 C 
HETATM    2  C7  UNL     1      25.438   4.496  49.755  1.00  0.00     0.029 C 
HETATM    3  C8  UNL     1      25.322   3.094  50.212  1.00  0.00    -0.002 C 
HETATM    4  C9  UNL     1      24.844   2.596  51.331  1.00  0.00    -0.022 C 
HETATM    5  C10 UNL     1      24.249   2.475  52.663  1.00  0.00     0.070 C 
HETATM    6  C11 UNL     1      22.907   1.812  52.583  1.00  0.00    -0.006 A 
HETATM    7  C12 UNL     1      22.733   0.482  52.881  1.00  0.00     0.044 A 
HETATM    8 CL1  UNL     1      24.181  -0.404  53.358  1.00  0.00    -0.084 Cl
HETATM    9  C13 UNL     1      21.540  -0.207  52.838  1.00  0.00     0.048 A 
HETATM   10  C14 UNL     1      20.439   0.533  52.458  1.00  0.00     0.037 A 
HETATM   11 CL2  UNL     1      18.896  -0.284  52.384  1.00  0.00    -0.084 Cl
HETATM   12  C15 UNL     1      20.574   1.869  52.152  1.00  0.00     0.054 A 
HETATM   13  C16 UNL     1      21.801   2.542  52.205  1.00  0.00     0.043 A 
HETATM   14  N2  UNL     1      21.723   3.924  51.849  1.00  0.00    -0.351 N 
HETATM   15  C17 UNL     1      22.586   4.984  52.258  1.00  0.00     0.204 C 
HETATM   16  N3  UNL     1      23.406   5.059  51.285  1.00  0.00    -0.253 NA
HETATM   17  C18 UNL     1      24.518   6.028  51.236  1.00  0.00     0.251 C 
HETATM   18  H14 UNL     1      20.959   4.234  51.217  1.00  0.00     0.166 HD
ENDROOT
BRANCH   1  19
HETATM   19  N1  UNL     1      25.491   7.051  49.274  1.00  0.00    -0.357 N 
HETATM   20  H6  UNL     1      24.600   7.560  49.023  1.00  0.00     0.166 HD
BRANCH  19  21
HETATM   21  C5  UNL     1      26.826   7.492  49.012  1.00  0.00     0.048 A 
HETATM   22  C4  UNL     1      27.772   6.789  48.394  1.00  0.00     0.028 A 
HETATM   23  C3  UNL     1      28.974   7.632  48.348  1.00  0.00     0.008 A 
HETATM   24  C2  UNL     1      28.726   8.803  48.931  1.00  0.00    -0.044 A 
HETATM   25  C1  UNL     1      29.597   9.976  49.136  1.00  0.00     0.046 C 
HETATM   26  C19 UNL     1      27.313   8.845  49.424  1.00  0.00     0.248 A 
HETATM   27  F1  UNL     1      27.315   8.923  50.814  1.00  0.00    -0.238 F 
ENDBRANCH  19  21
ENDBRANCH   1  19
BRANCH  17  28
HETATM   28  N4  UNL     1      24.017   7.348  51.412  1.00  0.00    -0.405 N 
HETATM   29  H17 UNL     1      24.550   8.107  50.968  1.00  0.00     0.152 HD
HETATM   30  H18 UNL     1      22.983   7.427  51.365  1.00  0.00     0.152 HD
ENDBRANCH  17  28
TORSDOF 3
ENDMDL
MODEL 6
REMARK VINA RESULT:      -8.4      4.671      7.865
REMARK  3 active torsions:
REMARK  status: ('A' for Active; 'I' for Inactive)
REMARK    1  A    between atoms: C5_5  and  N1_6 
REMARK    2  A    between atoms: N1_6  and  C6_7 
REMARK    3  A    between atoms: C18_23  and  N4_24 
ROOT
HETATM    1  C6  UNL     1      25.504   5.012  49.435  1.00  0.00     0.053 C 
HETATM    2  C7  UNL     1      26.091   3.806  49.542  1.00  0.00     0.029 C 
HETATM    3  C8  UNL     1      26.464   2.608  50.325  1.00  0.00    -0.002 C 
HETATM    4  C9  UNL     1      26.248   2.308  51.586  1.00  0.00    -0.022 C 
HETATM    5  C10 UNL     1      25.811   2.377  52.982  1.00  0.00     0.070 C 
HETATM    6  C11 UNL     1      24.753   1.351  53.256  1.00  0.00    -0.006 A 
HETATM    7  C12 UNL     1      25.039   0.159  53.877  1.00  0.00     0.044 A 
HETATM    8 CL1  UNL     1      26.724  -0.097  54.331  1.00  0.00    -0.084 Cl
HETATM    9  C13 UNL     1      24.133  -0.836  54.171  1.00  0.00     0.048 A 
HETATM   10  C14 UNL     1      22.829  -0.585  53.794  1.00  0.00     0.037 A 
HETATM   11 CL2  UNL     1      21.632  -1.810  54.139  1.00  0.00    -0.084 Cl
HETATM   12  C15 UNL     1      22.505   0.599  53.169  1.00  0.00     0.054 A 
HETATM   13  C16 UNL     1      23.449   1.592  52.884  1.00  0.00     0.043 A 
HETATM   14  N2  UNL     1      22.905   2.742  52.231  1.00  0.00    -0.351 N 
HETATM   15  C17 UNL     1      23.404   4.079  52.251  1.00  0.00     0.204 C 
HETATM   16  N3  UNL     1      24.090   4.130  51.179  1.00  0.00    -0.253 NA
HETATM   17  C18 UNL     1      24.823   5.334  50.743  1.00  0.00     0.251 C 
HETATM   18  H14 UNL     1      22.042   2.632  51.663  1.00  0.00     0.166 HD
ENDROOT
BRANCH   1  19
HETATM   19  N1  UNL     1      25.283   6.037  48.477  1.00  0.00    -0.357 N 
HETATM   20  H6  UNL     1      24.285   6.073  48.135  1.00  0.00     0.166 HD
BRANCH  19  21
HETATM   21  C5  UNL     1      26.354   6.891  48.069  1.00  0.00     0.048 A 
HETATM   22  C4  UNL     1      26.241   7.970  47.297  1.00  0.00     0.028 A 
HETATM   23  C3  UNL     1      27.589   8.532  47.141  1.00  0.00     0.008 A 
HETATM   24  C2  UNL     1      28.468   7.788  47.811  1.00  0.00    -0.044 A 
HETATM   25  C1  UNL     1      29.928   7.934  47.965  1.00  0.00     0.046 C 
HETATM   26  C19 UNL     1      27.771   6.647  48.485  1.00  0.00     0.248 A 
HETATM   27  F1  UNL     1      28.207   5.449  47.927  1.00  0.00    -0.238 F 
ENDBRANCH  19  21
ENDBRANCH   1  19
BRANCH  17  28
HETATM   28  N4  UNL     1      23.934   6.443  50.678  1.00  0.00    -0.405 N 
HETATM   29  H17 UNL     1      23.757   6.945  51.558  1.00  0.00     0.152 HD
HETATM   30  H18 UNL     1      24.039   7.032  49.829  1.00  0.00     0.152 HD
ENDBRANCH  17  28
TORSDOF 3
ENDMDL
MODEL 7
REMARK VINA RESULT:      -8.1      5.337      7.268
REMARK  3 active torsions:
REMARK  status: ('A' for Active; 'I' for Inactive)
REMARK    1  A    between atoms: C5_5  and  N1_6 
REMARK    2  A    between atoms: N1_6  and  C6_7 
REMARK    3  A    between atoms: C18_23  and  N4_24 
ROOT
HETATM    1  C6  UNL     1      22.562   3.612  51.145  1.00  0.00     0.053 C 
HETATM    2  C7  UNL     1      22.872   3.541  49.837  1.00  0.00     0.029 C 
HETATM    3  C8  UNL     1      23.257   4.175  48.558  1.00  0.00    -0.002 C 
HETATM    4  C9  UNL     1      23.458   5.439  48.255  1.00  0.00    -0.022 C 
HETATM    5  C10 UNL     1      23.574   6.895  48.349  1.00  0.00     0.070 C 
HETATM    6  C11 UNL     1      24.999   7.324  48.171  1.00  0.00    -0.006 A 
HETATM    7  C12 UNL     1      25.466   7.817  46.976  1.00  0.00     0.044 A 
HETATM    8 CL1  UNL     1      24.294   7.914  45.662  1.00  0.00    -0.084 Cl
HETATM    9  C13 UNL     1      26.755   8.236  46.724  1.00  0.00     0.048 A 
HETATM   10  C14 UNL     1      27.632   8.139  47.785  1.00  0.00     0.037 A 
HETATM   11 CL2  UNL     1      29.281   8.656  47.528  1.00  0.00    -0.084 Cl
HETATM   12  C15 UNL     1      27.199   7.649  48.998  1.00  0.00     0.054 A 
HETATM   13  C16 UNL     1      25.883   7.231  49.224  1.00  0.00     0.043 A 
HETATM   14  N2  UNL     1      25.642   6.756  50.551  1.00  0.00    -0.351 N 
HETATM   15  C17 UNL     1      24.408   6.741  51.266  1.00  0.00     0.204 C 
HETATM   16  N3  UNL     1      23.985   5.558  51.057  1.00  0.00    -0.253 NA
HETATM   17  C18 UNL     1      22.713   5.044  51.600  1.00  0.00     0.251 C 
HETATM   18  H14 UNL     1      26.438   6.365  51.093  1.00  0.00     0.166 HD
ENDROOT
BRANCH   1  19
HETATM   19  N1  UNL     1      22.194   2.768  52.226  1.00  0.00    -0.357 N 
HETATM   20  H6  UNL     1      21.267   3.031  52.657  1.00  0.00     0.166 HD
BRANCH  19  21
HETATM   21  C5  UNL     1      23.045   1.692  52.629  1.00  0.00     0.048 A 
HETATM   22  C4  UNL     1      22.643   0.496  53.054  1.00  0.00     0.028 A 
HETATM   23  C3  UNL     1      23.851  -0.283  53.356  1.00  0.00     0.008 A 
HETATM   24  C2  UNL     1      24.934   0.452  53.109  1.00  0.00    -0.044 A 
HETATM   25  C1  UNL     1      26.367   0.127  53.251  1.00  0.00     0.046 C 
HETATM   26  C19 UNL     1      24.537   1.807  52.613  1.00  0.00     0.248 A 
HETATM   27  F1  UNL     1      24.927   2.769  53.541  1.00  0.00    -0.238 F 
ENDBRANCH  19  21
ENDBRANCH   1  19
BRANCH  17  28
HETATM   28  N4  UNL     1      22.689   5.210  53.012  1.00  0.00    -0.405 N 
HETATM   29  H17 UNL     1      23.599   5.240  53.489  1.00  0.00     0.152 HD
HETATM   30  H18 UNL     1      21.970   5.875  53.357  1.00  0.00     0.152 HD
ENDBRANCH  17  28
TORSDOF 3
ENDMDL
MODEL 8
REMARK VINA RESULT:      -8.1      2.228      3.609
REMARK  3 active torsions:
REMARK  status: ('A' for Active; 'I' for Inactive)
REMARK    1  A    between atoms: C5_5  and  N1_6 
REMARK    2  A    between atoms: N1_6  and  C6_7 
REMARK    3  A    between atoms: C18_23  and  N4_24 
ROOT
HETATM    1  C6  UNL     1      19.787   0.159  51.780  1.00  0.00     0.053 C 
HETATM    2  C7  UNL     1      20.720   0.477  50.863  1.00  0.00     0.029 C 
HETATM    3  C8  UNL     1      22.060   0.985  50.496  1.00  0.00    -0.002 C 
HETATM    4  C9  UNL     1      23.041   1.432  51.248  1.00  0.00    -0.022 C 
HETATM    5  C10 UNL     1      23.838   1.838  52.407  1.00  0.00     0.070 C 
HETATM    6  C11 UNL     1      25.015   0.926  52.585  1.00  0.00    -0.006 A 
HETATM    7  C12 UNL     1      26.276   1.277  52.166  1.00  0.00     0.044 A 
HETATM    8 CL1  UNL     1      26.431   2.859  51.402  1.00  0.00    -0.084 Cl
HETATM    9  C13 UNL     1      27.411   0.506  52.291  1.00  0.00     0.048 A 
HETATM   10  C14 UNL     1      27.235  -0.722  52.894  1.00  0.00     0.037 A 
HETATM   11 CL2  UNL     1      28.638  -1.746  53.082  1.00  0.00    -0.084 Cl
HETATM   12  C15 UNL     1      25.985  -1.108  53.327  1.00  0.00     0.054 A 
HETATM   13  C16 UNL     1      24.849  -0.302  53.186  1.00  0.00     0.043 A 
HETATM   14  N2  UNL     1      23.651  -0.889  53.701  1.00  0.00    -0.351 N 
HETATM   15  C17 UNL     1      22.486  -0.222  54.184  1.00  0.00     0.204 C 
HETATM   16  N3  UNL     1      21.726  -0.226  53.161  1.00  0.00    -0.253 NA
HETATM   17  C18 UNL     1      20.374   0.363  53.156  1.00  0.00     0.251 C 
HETATM   18  H14 UNL     1      23.582  -1.925  53.745  1.00  0.00     0.166 HD
ENDROOT
BRANCH   1  19
HETATM   19  N1  UNL     1      18.464  -0.350  51.857  1.00  0.00    -0.357 N 
HETATM   20  H6  UNL     1      18.374  -1.165  52.523  1.00  0.00     0.166 HD
BRANCH  19  21
HETATM   21  C5  UNL     1      17.415   0.235  51.082  1.00  0.00     0.048 A 
HETATM   22  C4  UNL     1      17.043  -0.141  49.860  1.00  0.00     0.028 A 
HETATM   23  C3  UNL     1      15.935   0.735  49.458  1.00  0.00     0.008 A 
HETATM   24  C2  UNL     1      15.670   1.604  50.431  1.00  0.00    -0.044 A 
HETATM   25  C1  UNL     1      14.660   2.676  50.512  1.00  0.00     0.046 C 
HETATM   26  C19 UNL     1      16.594   1.380  51.588  1.00  0.00     0.248 A 
HETATM   27  F1  UNL     1      17.415   2.494  51.742  1.00  0.00    -0.238 F 
ENDBRANCH  19  21
ENDBRANCH   1  19
BRANCH  17  28
HETATM   28  N4  UNL     1      19.597  -0.198  54.207  1.00  0.00    -0.405 N 
HETATM   29  H17 UNL     1      20.114  -0.573  55.013  1.00  0.00     0.152 HD
HETATM   30  H18 UNL     1      18.725   0.320  54.424  1.00  0.00     0.152 HD
ENDBRANCH  17  28
TORSDOF 3
ENDMDL
MODEL 9
REMARK VINA RESULT:      -8.0      4.620      5.971
REMARK  3 active torsions:
REMARK  status: ('A' for Active; 'I' for Inactive)
REMARK    1  A    between atoms: C5_5  and  N1_6 
REMARK    2  A    between atoms: N1_6  and  C6_7 
REMARK    3  A    between atoms: C18_23  and  N4_24 
ROOT
HETATM    1  C6  UNL     1      23.983   6.297  50.741  1.00  0.00     0.053 C 
HETATM    2  C7  UNL     1      23.582   5.622  51.834  1.00  0.00     0.029 C 
HETATM    3  C8  UNL     1      23.415   4.365  52.594  1.00  0.00    -0.002 C 
HETATM    4  C9  UNL     1      23.715   3.125  52.275  1.00  0.00    -0.022 C 
HETATM    5  C10 UNL     1      24.182   1.946  51.544  1.00  0.00     0.070 C 
HETATM    6  C11 UNL     1      25.388   1.354  52.209  1.00  0.00    -0.006 A 
HETATM    7  C12 UNL     1      25.300   0.252  53.026  1.00  0.00     0.044 A 
HETATM    8 CL1  UNL     1      23.687  -0.424  53.250  1.00  0.00    -0.084 Cl
HETATM    9  C13 UNL     1      26.352  -0.358  53.674  1.00  0.00     0.048 A 
HETATM   10  C14 UNL     1      27.592   0.212  53.466  1.00  0.00     0.037 A 
HETATM   11 CL2  UNL     1      28.966  -0.517  54.261  1.00  0.00    -0.084 Cl
HETATM   12  C15 UNL     1      27.718   1.317  52.654  1.00  0.00     0.054 A 
HETATM   13  C16 UNL     1      26.630   1.915  52.008  1.00  0.00     0.043 A 
HETATM   14  N2  UNL     1      26.977   3.052  51.212  1.00  0.00    -0.351 N 
HETATM   15  C17 UNL     1      26.289   3.568  50.075  1.00  0.00     0.204 C 
HETATM   16  N3  UNL     1      25.567   4.486  50.585  1.00  0.00    -0.253 NA
HETATM   17  C18 UNL     1      24.652   5.331  49.794  1.00  0.00     0.251 C 
HETATM   18  H14 UNL     1      27.827   3.594  51.462  1.00  0.00     0.166 HD
ENDROOT
BRANCH   1  19
HETATM   19  N1  UNL     1      24.019   7.622  50.230  1.00  0.00    -0.357 N 
HETATM   20  H6  UNL     1      24.956   8.090  50.367  1.00  0.00     0.166 HD
BRANCH  19  21
HETATM   21  C5  UNL     1      22.864   8.192  49.609  1.00  0.00     0.048 A 
HETATM   22  C4  UNL     1      22.858   9.235  48.782  1.00  0.00     0.028 A 
HETATM   23  C3  UNL     1      21.461   9.468  48.393  1.00  0.00     0.008 A 
HETATM   24  C2  UNL     1      20.672   8.574  48.986  1.00  0.00    -0.044 A 
HETATM   25  C1  UNL     1      19.210   8.389  48.918  1.00  0.00     0.046 C 
HETATM   26  C19 UNL     1      21.488   7.651  49.837  1.00  0.00     0.248 A 
HETATM   27  F1  UNL     1      21.144   7.834  51.174  1.00  0.00    -0.238 F 
ENDBRANCH  19  21
ENDBRANCH   1  19
BRANCH  17  28
HETATM   28  N4  UNL     1      25.365   5.955  48.734  1.00  0.00    -0.405 N 
HETATM   29  H17 UNL     1      25.687   6.918  48.899  1.00  0.00     0.152 HD
HETATM   30  H18 UNL     1      26.026   5.332  48.231  1.00  0.00     0.152 HD
ENDBRANCH  17  28
TORSDOF 3
ENDMDL
