MODEL 1
REMARK VINA RESULT:      -7.2      0.000      0.000
REMARK  1 active torsions:
REMARK  status: ('A' for Active; 'I' for Inactive)
REMARK    1  A    between atoms: O1_2  and  C2_3 
ROOT
HETATM    1  C2  UNL     1      22.300   0.401  52.174  1.00  0.00     0.065 C 
HETATM    2  C3  UNL     1      23.480   0.668  52.706  1.00  0.00     0.013 C 
HETATM    3  C4  UNL     1      24.760   0.932  53.360  1.00  0.00     0.075 C 
HETATM    4  C5  UNL     1      25.345   2.303  53.319  1.00  0.00     0.267 A 
HETATM    5  N1  UNL     1      24.305   3.381  53.235  1.00  0.00     0.016 N 
HETATM    6  C6  UNL     1      23.074   3.430  52.378  1.00  0.00     0.346 A 
HETATM    7  N2  UNL     1      22.323   3.310  51.302  1.00  0.00    -0.208 NA
HETATM    8  C7  UNL     1      22.887   3.157  50.158  1.00  0.00     0.203 A 
HETATM    9  C8  UNL     1      24.241   3.118  49.931  1.00  0.00     0.043 A 
HETATM   10  S1  UNL     1      24.669   3.332  51.586  1.00  0.00    -0.020 SA
HETATM   11  C9  UNL     1      25.672   3.082  49.746  1.00  0.00     0.135 A 
HETATM   12  C10 UNL     1      26.540   2.520  50.820  1.00  0.00    -0.002 A 
HETATM   13  C11 UNL     1      26.352   2.363  52.197  1.00  0.00     0.139 A 
HETATM   14 CL1  UNL     1      28.008   2.138  52.838  1.00  0.00    -0.101 Cl
HETATM   15  O2  UNL     1      22.477   2.964  48.816  1.00  0.00    -0.217 OA
HETATM   16  N3  UNL     1      22.038   1.590  48.649  1.00  0.00    -0.270 N 
HETATM   17  C12 UNL     1      21.405   0.925  49.758  1.00  0.00     0.117 C 
HETATM   18  C13 UNL     1      21.471   0.497  50.998  1.00  0.00     0.055 C 
HETATM   19  H8  UNL     1      24.326   4.266  53.889  1.00  0.00     0.298 HD
HETATM   20  H12 UNL     1      22.219   1.153  47.723  1.00  0.00     0.194 HD
ENDROOT
BRANCH   1  21
HETATM   21  O1  UNL     1      21.982  -0.127  53.397  1.00  0.00    -0.356 OA
HETATM   22  C1  UNL     1      20.887   0.270  54.196  1.00  0.00     0.210 C 
ENDBRANCH   1  21
TORSDOF 1
ENDMDL
MODEL 2
REMARK VINA RESULT:      -7.0      2.670      4.628
REMARK  1 active torsions:
REMARK  status: ('A' for Active; 'I' for Inactive)
REMARK    1  A    between atoms: O1_2  and  C2_3 
ROOT
HETATM    1  C2  UNL     1      26.862   1.598  52.238  1.00  0.00     0.065 C 
HETATM    2  C3  UNL     1      26.430   2.502  51.376  1.00  0.00     0.013 C 
HETATM    3  C4  UNL     1      26.018   3.540  50.433  1.00  0.00     0.075 C 
HETATM    4  C5  UNL     1      24.706   4.224  50.609  1.00  0.00     0.267 A 
HETATM    5  N1  UNL     1      24.270   4.294  52.044  1.00  0.00     0.016 N 
HETATM    6  C6  UNL     1      24.322   3.221  53.091  1.00  0.00     0.346 A 
HETATM    7  N2  UNL     1      24.196   2.024  53.629  1.00  0.00    -0.208 NA
HETATM    8  C7  UNL     1      23.518   1.127  53.009  1.00  0.00     0.203 A 
HETATM    9  C8  UNL     1      22.875   1.295  51.807  1.00  0.00     0.043 A 
HETATM   10  S1  UNL     1      23.346   2.943  51.624  1.00  0.00    -0.020 SA
HETATM   11  C9  UNL     1      22.219   1.525  50.542  1.00  0.00     0.135 A 
HETATM   12  C10 UNL     1      22.816   2.477  49.563  1.00  0.00    -0.002 A 
HETATM   13  C11 UNL     1      23.691   3.558  49.714  1.00  0.00     0.139 A 
HETATM   14 CL1  UNL     1      23.492   4.491  48.200  1.00  0.00    -0.101 Cl
HETATM   15  O2  UNL     1      23.176  -0.235  53.202  1.00  0.00    -0.217 OA
HETATM   16  N3  UNL     1      24.329  -1.060  52.887  1.00  0.00    -0.270 N 
HETATM   17  C12 UNL     1      25.645  -0.544  53.157  1.00  0.00     0.117 C 
HETATM   18  C13 UNL     1      26.555   0.380  52.946  1.00  0.00     0.055 C 
HETATM   19  H8  UNL     1      23.904   5.227  52.499  1.00  0.00     0.298 HD
HETATM   20  H12 UNL     1      24.134  -1.991  52.468  1.00  0.00     0.194 HD
ENDROOT
BRANCH   1  21
HETATM   21  O1  UNL     1      27.999   2.358  52.309  1.00  0.00    -0.356 OA
HETATM   22  C1  UNL     1      28.778   2.553  53.472  1.00  0.00     0.210 C 
ENDBRANCH   1  21
TORSDOF 1
ENDMDL
MODEL 3
REMARK VINA RESULT:      -6.9      8.159     10.080
REMARK  1 active torsions:
REMARK  status: ('A' for Active; 'I' for Inactive)
REMARK    1  A    between atoms: O1_2  and  C2_3 
ROOT
HETATM    1  C2  UNL     1      29.363   6.072  48.078  1.00  0.00     0.065 C 
HETATM    2  C3  UNL     1      30.380   5.303  47.730  1.00  0.00     0.013 C 
HETATM    3  C4  UNL     1      31.464   4.393  47.368  1.00  0.00     0.075 C 
HETATM    4  C5  UNL     1      32.839   4.630  47.894  1.00  0.00     0.267 A 
HETATM    5  N1  UNL     1      32.845   5.316  49.228  1.00  0.00     0.016 N 
HETATM    6  C6  UNL     1      32.020   6.483  49.684  1.00  0.00     0.346 A 
HETATM    7  N2  UNL     1      31.427   7.660  49.639  1.00  0.00    -0.208 NA
HETATM    8  C7  UNL     1      31.757   8.492  48.718  1.00  0.00     0.203 A 
HETATM    9  C8  UNL     1      32.707   8.280  47.749  1.00  0.00     0.043 A 
HETATM   10  S1  UNL     1      33.118   6.699  48.296  1.00  0.00    -0.020 SA
HETATM   11  C9  UNL     1      33.715   8.007  46.751  1.00  0.00     0.135 A 
HETATM   12  C10 UNL     1      33.917   6.611  46.271  1.00  0.00    -0.002 A 
HETATM   13  C11 UNL     1      33.634   5.367  46.845  1.00  0.00     0.139 A 
HETATM   14 CL1  UNL     1      34.648   4.221  45.917  1.00  0.00    -0.101 Cl
HETATM   15  O2  UNL     1      31.366   9.788  48.301  1.00  0.00    -0.217 OA
HETATM   16  N3  UNL     1      30.099   9.695  47.596  1.00  0.00    -0.270 N 
HETATM   17  C12 UNL     1      29.151   8.691  48.004  1.00  0.00     0.117 C 
HETATM   18  C13 UNL     1      28.867   7.421  48.183  1.00  0.00     0.055 C 
HETATM   19  H8  UNL     1      33.458   4.956  50.068  1.00  0.00     0.298 HD
HETATM   20  H12 UNL     1      29.950  10.366  46.817  1.00  0.00     0.194 HD
ENDROOT
BRANCH   1  21
HETATM   21  O1  UNL     1      28.733   4.906  48.425  1.00  0.00    -0.356 OA
HETATM   22  C1  UNL     1      27.368   4.787  48.768  1.00  0.00     0.210 C 
ENDBRANCH   1  21
TORSDOF 1
ENDMDL
MODEL 4
REMARK VINA RESULT:      -6.8      2.629      5.326
REMARK  1 active torsions:
REMARK  status: ('A' for Active; 'I' for Inactive)
REMARK    1  A    between atoms: O1_2  and  C2_3 
ROOT
HETATM    1  C2  UNL     1      25.784   3.199  50.273  1.00  0.00     0.065 C 
HETATM    2  C3  UNL     1      24.571   3.301  49.759  1.00  0.00     0.013 C 
HETATM    3  C4  UNL     1      23.253   3.477  49.153  1.00  0.00     0.075 C 
HETATM    4  C5  UNL     1      22.037   3.500  50.014  1.00  0.00     0.267 A 
HETATM    5  N1  UNL     1      22.307   4.023  51.395  1.00  0.00     0.016 N 
HETATM    6  C6  UNL     1      23.456   3.707  52.307  1.00  0.00     0.346 A 
HETATM    7  N2  UNL     1      24.353   2.982  52.944  1.00  0.00    -0.208 NA
HETATM    8  C7  UNL     1      24.217   1.705  52.979  1.00  0.00     0.203 A 
HETATM    9  C8  UNL     1      23.188   0.993  52.412  1.00  0.00     0.043 A 
HETATM   10  S1  UNL     1      22.381   2.382  51.789  1.00  0.00    -0.020 SA
HETATM   11  C9  UNL     1      22.086   0.292  51.798  1.00  0.00     0.135 A 
HETATM   12  C10 UNL     1      21.467   0.835  50.556  1.00  0.00    -0.002 A 
HETATM   13  C11 UNL     1      21.420   2.124  50.013  1.00  0.00     0.139 A 
HETATM   14 CL1  UNL     1      20.068   2.051  48.843  1.00  0.00    -0.101 Cl
HETATM   15  O2  UNL     1      24.934   0.598  53.497  1.00  0.00    -0.217 OA
HETATM   16  N3  UNL     1      26.077   0.333  52.641  1.00  0.00    -0.270 N 
HETATM   17  C12 UNL     1      26.724   1.439  51.986  1.00  0.00     0.117 C 
HETATM   18  C13 UNL     1      26.647   2.455  51.157  1.00  0.00     0.055 C 
HETATM   19  H8  UNL     1      21.670   4.786  51.866  1.00  0.00     0.298 HD
HETATM   20  H12 UNL     1      26.361  -0.662  52.541  1.00  0.00     0.194 HD
ENDROOT
BRANCH   1  21
HETATM   21  O1  UNL     1      26.077   4.320  49.544  1.00  0.00    -0.356 OA
HETATM   22  C1  UNL     1      27.299   4.563  48.879  1.00  0.00     0.210 C 
ENDBRANCH   1  21
TORSDOF 1
ENDMDL
MODEL 5
REMARK VINA RESULT:      -6.5      3.130      4.920
REMARK  1 active torsions:
REMARK  status: ('A' for Active; 'I' for Inactive)
REMARK    1  A    between atoms: O1_2  and  C2_3 
ROOT
HETATM    1  C2  UNL     1      23.824   1.724  52.720  1.00  0.00     0.065 C 
HETATM    2  C3  UNL     1      22.811   0.934  52.411  1.00  0.00     0.013 C 
HETATM    3  C4  UNL     1      21.739   0.001  52.070  1.00  0.00     0.075 C 
HETATM    4  C5  UNL     1      20.870   0.268  50.889  1.00  0.00     0.267 A 
HETATM    5  N1  UNL     1      21.571   1.038  49.808  1.00  0.00     0.016 N 
HETATM    6  C6  UNL     1      22.469   2.232  49.942  1.00  0.00     0.346 A 
HETATM    7  N2  UNL     1      22.896   3.405  50.366  1.00  0.00    -0.208 NA
HETATM    8  C7  UNL     1      22.086   4.176  50.997  1.00  0.00     0.203 A 
HETATM    9  C8  UNL     1      20.769   3.903  51.272  1.00  0.00     0.043 A 
HETATM   10  S1  UNL     1      20.782   2.358  50.508  1.00  0.00    -0.020 SA
HETATM   11  C9  UNL     1      19.390   3.565  51.536  1.00  0.00     0.135 A 
HETATM   12  C10 UNL     1      19.008   2.141  51.754  1.00  0.00    -0.002 A 
HETATM   13  C11 UNL     1      19.604   0.936  51.365  1.00  0.00     0.139 A 
HETATM   14 CL1  UNL     1      18.289  -0.267  51.523  1.00  0.00    -0.101 Cl
HETATM   15  O2  UNL     1      22.138   5.444  51.627  1.00  0.00    -0.217 OA
HETATM   16  N3  UNL     1      22.814   5.309  52.905  1.00  0.00    -0.270 N 
HETATM   17  C12 UNL     1      23.865   4.335  53.033  1.00  0.00     0.117 C 
HETATM   18  C13 UNL     1      24.247   3.079  52.974  1.00  0.00     0.055 C 
HETATM   19  H8  UNL     1      21.532   0.730  48.752  1.00  0.00     0.298 HD
HETATM   20  H12 UNL     1      22.487   5.930  53.672  1.00  0.00     0.194 HD
ENDROOT
BRANCH   1  21
HETATM   21  O1  UNL     1      24.582   0.584  52.716  1.00  0.00    -0.356 OA
HETATM   22  C1  UNL     1      25.053  -0.087  53.867  1.00  0.00     0.210 C 
ENDBRANCH   1  21
TORSDOF 1
ENDMDL
MODEL 6
REMARK VINA RESULT:      -6.4      2.668      4.114
REMARK  1 active torsions:
REMARK  status: ('A' for Active; 'I' for Inactive)
REMARK    1  A    between atoms: O1_2  and  C2_3 
ROOT
HETATM    1  C2  UNL     1      21.889   1.951  49.128  1.00  0.00     0.065 C 
HETATM    2  C3  UNL     1      21.489   1.092  50.050  1.00  0.00     0.013 C 
HETATM    3  C4  UNL     1      20.980   0.137  51.032  1.00  0.00     0.075 C 
HETATM    4  C5  UNL     1      21.037   0.466  52.485  1.00  0.00     0.267 A 
HETATM    5  N1  UNL     1      20.956   1.940  52.755  1.00  0.00     0.016 N 
HETATM    6  C6  UNL     1      21.661   3.061  52.049  1.00  0.00     0.346 A 
HETATM    7  N2  UNL     1      22.646   3.723  51.475  1.00  0.00    -0.208 NA
HETATM    8  C7  UNL     1      23.852   3.315  51.635  1.00  0.00     0.203 A 
HETATM    9  C8  UNL     1      24.238   2.227  52.381  1.00  0.00     0.043 A 
HETATM   10  S1  UNL     1      22.638   1.812  52.865  1.00  0.00    -0.020 SA
HETATM   11  C9  UNL     1      24.591   1.075  53.176  1.00  0.00     0.135 A 
HETATM   12  C10 UNL     1      23.648  -0.077  53.263  1.00  0.00    -0.002 A 
HETATM   13  C11 UNL     1      22.266  -0.178  53.077  1.00  0.00     0.139 A 
HETATM   14 CL1  UNL     1      21.833  -1.718  53.879  1.00  0.00    -0.101 Cl
HETATM   15  O2  UNL     1      25.144   3.691  51.190  1.00  0.00    -0.217 OA
HETATM   16  N3  UNL     1      25.311   3.266  49.811  1.00  0.00    -0.270 N 
HETATM   17  C12 UNL     1      24.161   3.261  48.945  1.00  0.00     0.117 C 
HETATM   18  C13 UNL     1      22.955   2.813  48.681  1.00  0.00     0.055 C 
HETATM   19  H8  UNL     1      20.276   2.360  53.511  1.00  0.00     0.298 HD
HETATM   20  H12 UNL     1      26.267   2.976  49.527  1.00  0.00     0.194 HD
ENDROOT
BRANCH   1  21
HETATM   21  O1  UNL     1      20.658   1.757  48.560  1.00  0.00    -0.356 OA
HETATM   22  C1  UNL     1      19.590   2.680  48.594  1.00  0.00     0.210 C 
ENDBRANCH   1  21
TORSDOF 1
ENDMDL
MODEL 7
REMARK VINA RESULT:      -6.3      2.265      3.866
REMARK  1 active torsions:
REMARK  status: ('A' for Active; 'I' for Inactive)
REMARK    1  A    between atoms: O1_2  and  C2_3 
ROOT
HETATM    1  C2  UNL     1      21.105   4.318  51.838  1.00  0.00     0.065 C 
HETATM    2  C3  UNL     1      22.359   4.146  52.217  1.00  0.00     0.013 C 
HETATM    3  C4  UNL     1      23.759   4.029  52.620  1.00  0.00     0.075 C 
HETATM    4  C5  UNL     1      24.608   2.946  52.048  1.00  0.00     0.267 A 
HETATM    5  N1  UNL     1      24.185   2.539  50.667  1.00  0.00     0.016 N 
HETATM    6  C6  UNL     1      22.799   2.298  50.145  1.00  0.00     0.346 A 
HETATM    7  N2  UNL     1      21.558   1.856  50.118  1.00  0.00    -0.208 NA
HETATM    8  C7  UNL     1      21.191   0.965  50.968  1.00  0.00     0.203 A 
HETATM    9  C8  UNL     1      21.992   0.396  51.928  1.00  0.00     0.043 A 
HETATM   10  S1  UNL     1      23.398   1.290  51.489  1.00  0.00    -0.020 SA
HETATM   11  C9  UNL     1      22.875  -0.171  52.920  1.00  0.00     0.135 A 
HETATM   12  C10 UNL     1      23.967   0.663  53.496  1.00  0.00    -0.002 A 
HETATM   13  C11 UNL     1      24.640   1.794  53.022  1.00  0.00     0.139 A 
HETATM   14 CL1  UNL     1      26.132   1.857  54.008  1.00  0.00    -0.101 Cl
HETATM   15  O2  UNL     1      20.001   0.273  51.297  1.00  0.00    -0.217 OA
HETATM   16  N3  UNL     1      19.123   1.165  52.035  1.00  0.00    -0.270 N 
HETATM   17  C12 UNL     1      19.144   2.570  51.724  1.00  0.00     0.117 C 
HETATM   18  C13 UNL     1      19.819   3.694  51.645  1.00  0.00     0.055 C 
HETATM   19  H8  UNL     1      24.906   2.434  49.842  1.00  0.00     0.298 HD
HETATM   20  H12 UNL     1      18.527   0.730  52.767  1.00  0.00     0.194 HD
ENDROOT
BRANCH   1  21
HETATM   21  O1  UNL     1      21.465   5.616  51.591  1.00  0.00    -0.356 OA
HETATM   22  C1  UNL     1      21.698   6.169  50.312  1.00  0.00     0.210 C 
ENDBRANCH   1  21
TORSDOF 1
ENDMDL
MODEL 8
REMARK VINA RESULT:      -6.1      9.048     11.437
REMARK  1 active torsions:
REMARK  status: ('A' for Active; 'I' for Inactive)
REMARK    1  A    between atoms: O1_2  and  C2_3 
ROOT
HETATM    1  C2  UNL     1      31.369   9.566  46.132  1.00  0.00     0.065 C 
HETATM    2  C3  UNL     1      30.322   8.962  46.666  1.00  0.00     0.013 C 
HETATM    3  C4  UNL     1      29.127   8.360  47.253  1.00  0.00     0.075 C 
HETATM    4  C5  UNL     1      29.228   7.612  48.538  1.00  0.00     0.267 A 
HETATM    5  N1  UNL     1      30.331   8.114  49.424  1.00  0.00     0.016 N 
HETATM    6  C6  UNL     1      31.735   8.486  49.050  1.00  0.00     0.346 A 
HETATM    7  N2  UNL     1      32.915   8.396  48.469  1.00  0.00    -0.208 NA
HETATM    8  C7  UNL     1      33.263   7.286  47.925  1.00  0.00     0.203 A 
HETATM    9  C8  UNL     1      32.510   6.137  47.896  1.00  0.00     0.043 A 
HETATM   10  S1  UNL     1      31.185   6.813  48.765  1.00  0.00    -0.020 SA
HETATM   11  C9  UNL     1      31.679   4.956  47.892  1.00  0.00     0.135 A 
HETATM   12  C10 UNL     1      30.196   5.099  47.854  1.00  0.00    -0.002 A 
HETATM   13  C11 UNL     1      29.340   6.139  48.230  1.00  0.00     0.139 A 
HETATM   14 CL1  UNL     1      27.742   5.348  48.389  1.00  0.00    -0.101 Cl
HETATM   15  O2  UNL     1      34.372   6.788  47.198  1.00  0.00    -0.217 OA
HETATM   16  N3  UNL     1      34.314   7.297  45.839  1.00  0.00    -0.270 N 
HETATM   17  C12 UNL     1      33.762   8.607  45.614  1.00  0.00     0.117 C 
HETATM   18  C13 UNL     1      32.739   9.427  45.706  1.00  0.00     0.055 C 
HETATM   19  H8  UNL     1      30.172   8.325  50.492  1.00  0.00     0.298 HD
HETATM   20  H12 UNL     1      34.672   6.670  45.092  1.00  0.00     0.194 HD
ENDROOT
BRANCH   1  21
HETATM   21  O1  UNL     1      30.578  10.684  46.098  1.00  0.00    -0.356 OA
HETATM   22  C1  UNL     1      30.676  11.779  46.985  1.00  0.00     0.210 C 
ENDBRANCH   1  21
TORSDOF 1
ENDMDL
MODEL 9
REMARK VINA RESULT:      -6.1      8.932     11.426
REMARK  1 active torsions:
REMARK  status: ('A' for Active; 'I' for Inactive)
REMARK    1  A    between atoms: O1_2  and  C2_3 
ROOT
HETATM    1  C2  UNL     1      33.609   7.349  46.066  1.00  0.00     0.065 C 
HETATM    2  C3  UNL     1      32.761   8.099  46.748  1.00  0.00     0.013 C 
HETATM    3  C4  UNL     1      31.875   8.985  47.499  1.00  0.00     0.075 C 
HETATM    4  C5  UNL     1      31.302   8.534  48.799  1.00  0.00     0.267 A 
HETATM    5  N1  UNL     1      32.188   7.563  49.524  1.00  0.00     0.016 N 
HETATM    6  C6  UNL     1      32.938   6.388  48.971  1.00  0.00     0.346 A 
HETATM    7  N2  UNL     1      33.164   5.299  48.262  1.00  0.00    -0.208 NA
HETATM    8  C7  UNL     1      32.172   4.676  47.737  1.00  0.00     0.203 A 
HETATM    9  C8  UNL     1      30.850   5.032  47.853  1.00  0.00     0.043 A 
HETATM   10  S1  UNL     1      31.160   6.413  48.836  1.00  0.00    -0.020 SA
HETATM   11  C9  UNL     1      29.476   5.449  48.005  1.00  0.00     0.135 A 
HETATM   12  C10 UNL     1      29.156   6.900  48.132  1.00  0.00    -0.002 A 
HETATM   13  C11 UNL     1      29.913   7.998  48.553  1.00  0.00     0.139 A 
HETATM   14 CL1  UNL     1      28.690   9.246  48.936  1.00  0.00    -0.101 Cl
HETATM   15  O2  UNL     1      31.977   3.542  46.912  1.00  0.00    -0.217 OA
HETATM   16  N3  UNL     1      32.330   3.885  45.545  1.00  0.00    -0.270 N 
HETATM   17  C12 UNL     1      33.386   4.837  45.321  1.00  0.00     0.117 C 
HETATM   18  C13 UNL     1      33.860   6.051  45.490  1.00  0.00     0.055 C 
HETATM   19  H8  UNL     1      32.429   7.677  50.592  1.00  0.00     0.298 HD
HETATM   20  H12 UNL     1      31.782   3.422  44.793  1.00  0.00     0.194 HD
ENDROOT
BRANCH   1  21
HETATM   21  O1  UNL     1      34.426   8.449  46.070  1.00  0.00    -0.356 OA
HETATM   22  C1  UNL     1      34.775   9.208  44.931  1.00  0.00     0.210 C 
ENDBRANCH   1  21
TORSDOF 1
ENDMDL
