MODEL 1
REMARK VINA RESULT:      -8.3      0.000      0.000
REMARK  7 active torsions:
REMARK  status: ('A' for Active; 'I' for Inactive)
REMARK    1  A    between atoms: O1_2  and  C2_3 
REMARK    2  A    between atoms: C4_5  and  N1_6 
REMARK    3  A    between atoms: N1_6  and  C5_7 
REMARK    4  A    between atoms: C11_15  and  C12_16 
REMARK    5  A    between atoms: C12_16  and  C13_17 
REMARK    6  A    between atoms: C13_17  and  C14_18 
REMARK    7  A    between atoms: C17_23  and  O2_24 
ROOT
HETATM    1  C5  UNL     1      22.981   3.870  51.001  1.00  0.00     0.093 A 
HETATM    2  C6  UNL     1      21.885   4.506  51.465  1.00  0.00     0.095 A 
HETATM    3  C7  UNL     1      20.922   3.693  52.140  1.00  0.00     0.103 C 
HETATM    4  N2  UNL     1      20.159   3.023  52.682  1.00  0.00    -0.191 NA
HETATM    5  C8  UNL     1      21.682   5.954  51.290  1.00  0.00     0.143 A 
HETATM    6  N3  UNL     1      22.322   6.947  50.751  1.00  0.00    -0.253 NA
HETATM    7  C9  UNL     1      23.599   6.703  50.114  1.00  0.00     0.093 A 
HETATM    8  C10 UNL     1      24.455   7.531  49.492  1.00  0.00     0.048 A 
HETATM    9  C11 UNL     1      25.701   7.000  48.928  1.00  0.00    -0.021 A 
HETATM   10  C17 UNL     1      26.207   5.806  48.891  1.00  0.00     0.078 A 
HETATM   11  C18 UNL     1      25.549   4.613  49.478  1.00  0.00     0.084 A 
HETATM   12  S1  UNL     1      24.123   4.981  50.171  1.00  0.00    -0.089 SA
ENDROOT
BRANCH   1  13
HETATM   13  N1  UNL     1      23.343   2.521  51.071  1.00  0.00    -0.348 N 
HETATM   14  H5  UNL     1      22.990   1.997  50.240  1.00  0.00     0.166 HD
BRANCH  13  15
HETATM   15  C4  UNL     1      24.090   1.897  52.110  1.00  0.00     0.057 A 
HETATM   16  C3  UNL     1      25.245   2.518  52.540  1.00  0.00     0.069 A 
HETATM   17  C2  UNL     1      25.935   1.896  53.533  1.00  0.00     0.092 A 
HETATM   18  C21 UNL     1      25.486   0.694  54.081  1.00  0.00     0.069 A 
HETATM   19  C20 UNL     1      24.314   0.084  53.631  1.00  0.00     0.052 A 
HETATM   20 CL2  UNL     1      26.327  -0.170  55.370  1.00  0.00    -0.081 Cl
HETATM   21  C19 UNL     1      23.618   0.717  52.622  1.00  0.00     0.062 A 
HETATM   22 CL1  UNL     1      22.132   0.024  51.992  1.00  0.00    -0.082 Cl
BRANCH  17  23
HETATM   23  O1  UNL     1      27.114   2.332  54.119  1.00  0.00    -0.354 OA
HETATM   24  C1  UNL     1      28.317   2.249  53.377  1.00  0.00     0.210 C 
ENDBRANCH  17  23
ENDBRANCH  13  15
ENDBRANCH   1  13
BRANCH  10  25
HETATM   25  O2  UNL     1      27.435   5.521  48.287  1.00  0.00    -0.360 OA
HETATM   26  H17 UNL     1      27.673   5.989  47.407  1.00  0.00     0.217 HD
ENDBRANCH  10  25
BRANCH   9  27
HETATM   27  C12 UNL     1      26.484   8.102  48.290  1.00  0.00     0.049 C 
BRANCH  27  28
HETATM   28  C13 UNL     1      27.084   8.907  49.423  1.00  0.00     0.082 C 
BRANCH  28  29
HETATM   29  C14 UNL     1      28.568   8.891  49.374  1.00  0.00     0.094 C 
HETATM   30  N4  UNL     1      29.251   8.027  48.708  1.00  0.00    -0.276 NA
HETATM   31  C15 UNL     1      30.671   8.260  48.849  1.00  0.00     0.170 C 
HETATM   32  C16 UNL     1      30.734   9.634  49.442  1.00  0.00     0.143 C 
HETATM   33  N5  UNL     1      29.424   9.798  50.033  1.00  0.00    -0.377 N 
HETATM   34  H16 UNL     1      29.138  10.451  50.799  1.00  0.00     0.160 HD
ENDBRANCH  28  29
ENDBRANCH  27  28
ENDBRANCH   9  27
TORSDOF 7
ENDMDL
MODEL 2
REMARK VINA RESULT:      -8.1      1.638      2.046
REMARK  7 active torsions:
REMARK  status: ('A' for Active; 'I' for Inactive)
REMARK    1  A    between atoms: O1_2  and  C2_3 
REMARK    2  A    between atoms: C4_5  and  N1_6 
REMARK    3  A    between atoms: N1_6  and  C5_7 
REMARK    4  A    between atoms: C11_15  and  C12_16 
REMARK    5  A    between atoms: C12_16  and  C13_17 
REMARK    6  A    between atoms: C13_17  and  C14_18 
REMARK    7  A    between atoms: C17_23  and  O2_24 
ROOT
HETATM    1  C5  UNL     1      24.449   4.393  50.429  1.00  0.00     0.093 A 
HETATM    2  C6  UNL     1      23.527   5.297  50.819  1.00  0.00     0.095 A 
HETATM    3  C7  UNL     1      22.365   4.774  51.468  1.00  0.00     0.103 C 
HETATM    4  N2  UNL     1      21.438   4.335  51.990  1.00  0.00    -0.191 NA
HETATM    5  C8  UNL     1      23.695   6.742  50.592  1.00  0.00     0.143 A 
HETATM    6  N3  UNL     1      24.584   7.524  50.057  1.00  0.00    -0.253 NA
HETATM    7  C9  UNL     1      25.785   6.948  49.493  1.00  0.00     0.093 A 
HETATM    8  C10 UNL     1      26.846   7.514  48.891  1.00  0.00     0.048 A 
HETATM    9  C11 UNL     1      27.943   6.671  48.407  1.00  0.00    -0.021 A 
HETATM   10  C17 UNL     1      28.139   5.389  48.430  1.00  0.00     0.078 A 
HETATM   11  C18 UNL     1      27.182   4.419  49.017  1.00  0.00     0.084 A 
HETATM   12  S1  UNL     1      25.864   5.154  49.627  1.00  0.00    -0.089 SA
ENDROOT
BRANCH   1  13
HETATM   13  N1  UNL     1      24.463   3.000  50.557  1.00  0.00    -0.348 N 
HETATM   14  H5  UNL     1      24.125   2.542  49.681  1.00  0.00     0.166 HD
BRANCH  13  15
HETATM   15  C4  UNL     1      24.871   2.258  51.702  1.00  0.00     0.057 A 
HETATM   16  C3  UNL     1      26.083   2.576  52.281  1.00  0.00     0.069 A 
HETATM   17  C2  UNL     1      26.442   1.848  53.372  1.00  0.00     0.092 A 
HETATM   18  C21 UNL     1      25.621   0.837  53.869  1.00  0.00     0.069 A 
HETATM   19  C20 UNL     1      24.399   0.532  53.266  1.00  0.00     0.052 A 
HETATM   20 CL2  UNL     1      26.021  -0.148  55.278  1.00  0.00    -0.081 Cl
HETATM   21  C19 UNL     1      24.037   1.272  52.159  1.00  0.00     0.062 A 
HETATM   22 CL1  UNL     1      22.517   0.960  51.336  1.00  0.00    -0.082 Cl
BRANCH  17  23
HETATM   23  O1  UNL     1      27.607   1.991  54.113  1.00  0.00    -0.354 OA
HETATM   24  C1  UNL     1      28.832   1.557  53.550  1.00  0.00     0.210 C 
ENDBRANCH  17  23
ENDBRANCH  13  15
ENDBRANCH   1  13
BRANCH  10  25
HETATM   25  O2  UNL     1      29.283   4.786  47.897  1.00  0.00    -0.360 OA
HETATM   26  H17 UNL     1      29.746   5.227  47.097  1.00  0.00     0.217 HD
ENDBRANCH  10  25
BRANCH   9  27
HETATM   27  C12 UNL     1      29.000   7.520  47.777  1.00  0.00     0.049 C 
BRANCH  27  28
HETATM   28  C13 UNL     1      29.791   8.126  48.917  1.00  0.00     0.082 C 
BRANCH  28  29
HETATM   29  C14 UNL     1      31.182   7.607  48.949  1.00  0.00     0.094 C 
HETATM   30  N4  UNL     1      31.476   6.359  49.073  1.00  0.00    -0.276 NA
HETATM   31  C15 UNL     1      32.906   6.154  49.073  1.00  0.00     0.170 C 
HETATM   32  C16 UNL     1      33.439   7.465  48.580  1.00  0.00     0.143 C 
HETATM   33  N5  UNL     1      32.355   8.384  48.852  1.00  0.00    -0.377 N 
HETATM   34  H16 UNL     1      32.401   9.424  48.960  1.00  0.00     0.160 HD
ENDBRANCH  28  29
ENDBRANCH  27  28
ENDBRANCH   9  27
TORSDOF 7
ENDMDL
MODEL 3
REMARK VINA RESULT:      -7.9      3.831      7.436
REMARK  7 active torsions:
REMARK  status: ('A' for Active; 'I' for Inactive)
REMARK    1  A    between atoms: O1_2  and  C2_3 
REMARK    2  A    between atoms: C4_5  and  N1_6 
REMARK    3  A    between atoms: N1_6  and  C5_7 
REMARK    4  A    between atoms: C11_15  and  C12_16 
REMARK    5  A    between atoms: C12_16  and  C13_17 
REMARK    6  A    between atoms: C13_17  and  C14_18 
REMARK    7  A    between atoms: C17_23  and  O2_24 
ROOT
HETATM    1  C5  UNL     1      22.176   4.026  51.429  1.00  0.00     0.093 A 
HETATM    2  C6  UNL     1      21.094   3.454  50.862  1.00  0.00     0.095 A 
HETATM    3  C7  UNL     1      20.193   4.336  50.188  1.00  0.00     0.103 C 
HETATM    4  N2  UNL     1      19.480   5.061  49.649  1.00  0.00    -0.191 NA
HETATM    5  C8  UNL     1      20.844   2.004  50.929  1.00  0.00     0.143 A 
HETATM    6  N3  UNL     1      21.427   0.960  51.437  1.00  0.00    -0.253 NA
HETATM    7  C9  UNL     1      22.669   1.125  52.161  1.00  0.00     0.093 A 
HETATM    8  C10 UNL     1      23.467   0.235  52.775  1.00  0.00     0.048 A 
HETATM    9  C11 UNL     1      24.689   0.692  53.443  1.00  0.00    -0.021 A 
HETATM   10  C17 UNL     1      25.222   1.866  53.588  1.00  0.00     0.078 A 
HETATM   11  C18 UNL     1      24.630   3.113  53.044  1.00  0.00     0.084 A 
HETATM   12  S1  UNL     1      23.238   2.832  52.247  1.00  0.00    -0.089 SA
ENDROOT
BRANCH   1  13
HETATM   13  N1  UNL     1      22.575   5.366  51.469  1.00  0.00    -0.348 N 
HETATM   14  H5  UNL     1      22.208   5.839  52.325  1.00  0.00     0.166 HD
BRANCH  13  15
HETATM   15  C4  UNL     1      23.373   6.042  50.502  1.00  0.00     0.057 A 
HETATM   16  C3  UNL     1      24.574   5.469  50.140  1.00  0.00     0.069 A 
HETATM   17  C2  UNL     1      25.311   6.140  49.214  1.00  0.00     0.092 A 
HETATM   18  C21 UNL     1      24.864   7.342  48.668  1.00  0.00     0.069 A 
HETATM   19  C20 UNL     1      23.645   7.904  49.050  1.00  0.00     0.052 A 
HETATM   20 CL2  UNL     1      25.764   8.268  47.465  1.00  0.00    -0.081 Cl
HETATM   21  C19 UNL     1      22.899   7.221  49.989  1.00  0.00     0.062 A 
HETATM   22 CL1  UNL     1      21.351   7.851  50.530  1.00  0.00    -0.082 Cl
BRANCH  17  23
HETATM   23  O1  UNL     1      26.542   5.756  48.702  1.00  0.00    -0.354 OA
HETATM   24  C1  UNL     1      27.044   4.471  49.021  1.00  0.00     0.210 C 
ENDBRANCH  17  23
ENDBRANCH  13  15
ENDBRANCH   1  13
BRANCH  10  25
HETATM   25  O2  UNL     1      26.420   2.076  54.278  1.00  0.00    -0.360 OA
HETATM   26  H17 UNL     1      26.927   2.954  54.130  1.00  0.00     0.217 HD
ENDBRANCH  10  25
BRANCH   9  27
HETATM   27  C12 UNL     1      25.405  -0.471  54.050  1.00  0.00     0.049 C 
BRANCH  27  28
HETATM   28  C13 UNL     1      26.214  -1.101  52.936  1.00  0.00     0.082 C 
BRANCH  28  29
HETATM   29  C14 UNL     1      27.666  -1.093  53.247  1.00  0.00     0.094 C 
HETATM   30  N4  UNL     1      28.413  -2.140  53.196  1.00  0.00    -0.276 NA
HETATM   31  C15 UNL     1      29.779  -1.828  53.551  1.00  0.00     0.170 C 
HETATM   32  C16 UNL     1      29.812  -0.331  53.496  1.00  0.00     0.143 C 
HETATM   33  N5  UNL     1      28.420   0.035  53.635  1.00  0.00    -0.377 N 
HETATM   34  H16 UNL     1      28.020   0.947  53.957  1.00  0.00     0.160 HD
ENDBRANCH  28  29
ENDBRANCH  27  28
ENDBRANCH   9  27
TORSDOF 7
ENDMDL
MODEL 4
REMARK VINA RESULT:      -7.9      3.053      4.856
REMARK  7 active torsions:
REMARK  status: ('A' for Active; 'I' for Inactive)
REMARK    1  A    between atoms: O1_2  and  C2_3 
REMARK    2  A    between atoms: C4_5  and  N1_6 
REMARK    3  A    between atoms: N1_6  and  C5_7 
REMARK    4  A    between atoms: C11_15  and  C12_16 
REMARK    5  A    between atoms: C12_16  and  C13_17 
REMARK    6  A    between atoms: C13_17  and  C14_18 
REMARK    7  A    between atoms: C17_23  and  O2_24 
ROOT
HETATM    1  C5  UNL     1      24.707   1.453  52.812  1.00  0.00     0.093 A 
HETATM    2  C6  UNL     1      25.782   0.787  52.344  1.00  0.00     0.095 A 
HETATM    3  C7  UNL     1      26.045  -0.487  52.937  1.00  0.00     0.103 C 
HETATM    4  N2  UNL     1      26.239  -1.511  53.427  1.00  0.00    -0.191 NA
HETATM    5  C8  UNL     1      26.645   1.333  51.282  1.00  0.00     0.143 A 
HETATM    6  N3  UNL     1      26.696   2.408  50.556  1.00  0.00    -0.253 NA
HETATM    7  C9  UNL     1      25.690   3.433  50.737  1.00  0.00     0.093 A 
HETATM    8  C10 UNL     1      25.509   4.619  50.133  1.00  0.00     0.048 A 
HETATM    9  C11 UNL     1      24.382   5.471  50.524  1.00  0.00    -0.021 A 
HETATM   10  C17 UNL     1      23.437   5.325  51.400  1.00  0.00     0.078 A 
HETATM   11  C18 UNL     1      23.298   4.134  52.273  1.00  0.00     0.084 A 
HETATM   12  S1  UNL     1      24.469   3.037  52.000  1.00  0.00    -0.089 SA
ENDROOT
BRANCH   1  13
HETATM   13  N1  UNL     1      23.783   1.100  53.802  1.00  0.00    -0.348 N 
HETATM   14  H5  UNL     1      24.166   1.292  54.754  1.00  0.00     0.166 HD
BRANCH  13  15
HETATM   15  C4  UNL     1      22.486   0.550  53.594  1.00  0.00     0.057 A 
HETATM   16  C3  UNL     1      21.647   1.190  52.704  1.00  0.00     0.069 A 
HETATM   17  C2  UNL     1      20.416   0.638  52.528  1.00  0.00     0.092 A 
HETATM   18  C21 UNL     1      20.035  -0.513  53.216  1.00  0.00     0.069 A 
HETATM   19  C20 UNL     1      20.901  -1.143  54.112  1.00  0.00     0.052 A 
HETATM   20 CL2  UNL     1      18.457  -1.283  53.040  1.00  0.00    -0.081 Cl
HETATM   21  C19 UNL     1      22.149  -0.581  54.288  1.00  0.00     0.062 A 
HETATM   22 CL1  UNL     1      23.305  -1.306  55.395  1.00  0.00    -0.082 Cl
BRANCH  17  23
HETATM   23  O1  UNL     1      19.414   1.105  51.690  1.00  0.00    -0.354 OA
HETATM   24  C1  UNL     1      19.579   0.976  50.290  1.00  0.00     0.210 C 
ENDBRANCH  17  23
ENDBRANCH  13  15
ENDBRANCH   1  13
BRANCH  10  25
HETATM   25  O2  UNL     1      22.443   6.287  51.612  1.00  0.00    -0.360 OA
HETATM   26  H17 UNL     1      22.582   7.230  51.238  1.00  0.00     0.217 HD
ENDBRANCH  10  25
BRANCH   9  27
HETATM   27  C12 UNL     1      24.390   6.731  49.719  1.00  0.00     0.049 C 
BRANCH  27  28
HETATM   28  C13 UNL     1      25.076   7.776  50.573  1.00  0.00     0.082 C 
BRANCH  28  29
HETATM   29  C14 UNL     1      26.412   8.129  50.029  1.00  0.00     0.094 C 
HETATM   30  N4  UNL     1      26.818   7.791  48.855  1.00  0.00    -0.276 NA
HETATM   31  C15 UNL     1      28.156   8.274  48.604  1.00  0.00     0.170 C 
HETATM   32  C16 UNL     1      28.372   9.269  49.703  1.00  0.00     0.143 C 
HETATM   33  N5  UNL     1      27.406   8.870  50.703  1.00  0.00    -0.377 N 
HETATM   34  H16 UNL     1      27.416   9.075  51.729  1.00  0.00     0.160 HD
ENDBRANCH  28  29
ENDBRANCH  27  28
ENDBRANCH   9  27
TORSDOF 7
ENDMDL
MODEL 5
REMARK VINA RESULT:      -7.8      1.813      2.465
REMARK  7 active torsions:
REMARK  status: ('A' for Active; 'I' for Inactive)
REMARK    1  A    between atoms: O1_2  and  C2_3 
REMARK    2  A    between atoms: C4_5  and  N1_6 
REMARK    3  A    between atoms: N1_6  and  C5_7 
REMARK    4  A    between atoms: C11_15  and  C12_16 
REMARK    5  A    between atoms: C12_16  and  C13_17 
REMARK    6  A    between atoms: C13_17  and  C14_18 
REMARK    7  A    between atoms: C17_23  and  O2_24 
ROOT
HETATM    1  C5  UNL     1      24.766   4.856  49.915  1.00  0.00     0.093 A 
HETATM    2  C6  UNL     1      23.905   5.814  50.314  1.00  0.00     0.095 A 
HETATM    3  C7  UNL     1      22.649   5.362  50.825  1.00  0.00     0.103 C 
HETATM    4  N2  UNL     1      21.644   4.979  51.235  1.00  0.00    -0.191 NA
HETATM    5  C8  UNL     1      24.230   7.248  50.232  1.00  0.00     0.143 A 
HETATM    6  N3  UNL     1      25.230   7.977  49.837  1.00  0.00    -0.253 NA
HETATM    7  C9  UNL     1      26.414   7.329  49.315  1.00  0.00     0.093 A 
HETATM    8  C10 UNL     1      27.570   7.831  48.847  1.00  0.00     0.048 A 
HETATM    9  C11 UNL     1      28.618   6.923  48.372  1.00  0.00    -0.021 A 
HETATM   10  C17 UNL     1      28.688   5.630  48.294  1.00  0.00     0.078 A 
HETATM   11  C18 UNL     1      27.597   4.718  48.718  1.00  0.00     0.084 A 
HETATM   12  S1  UNL     1      26.309   5.532  49.292  1.00  0.00    -0.089 SA
ENDROOT
BRANCH   1  13
HETATM   13  N1  UNL     1      24.636   3.463  49.917  1.00  0.00    -0.348 N 
HETATM   14  H5  UNL     1      24.109   3.137  49.076  1.00  0.00     0.166 HD
BRANCH  13  15
HETATM   15  C4  UNL     1      25.134   2.567  50.905  1.00  0.00     0.057 A 
HETATM   16  C3  UNL     1      26.476   2.633  51.221  1.00  0.00     0.069 A 
HETATM   17  C2  UNL     1      26.919   1.763  52.168  1.00  0.00     0.092 A 
HETATM   18  C21 UNL     1      26.053   0.858  52.780  1.00  0.00     0.069 A 
HETATM   19  C20 UNL     1      24.699   0.809  52.444  1.00  0.00     0.052 A 
HETATM   20 CL2  UNL     1      26.555  -0.298  54.014  1.00  0.00    -0.081 Cl
HETATM   21  C19 UNL     1      24.253   1.692  51.482  1.00  0.00     0.062 A 
HETATM   22 CL1  UNL     1      22.564   1.704  50.996  1.00  0.00    -0.082 Cl
BRANCH  17  23
HETATM   23  O1  UNL     1      28.218   1.650  52.642  1.00  0.00    -0.354 OA
HETATM   24  C1  UNL     1      28.641   2.508  53.686  1.00  0.00     0.210 C 
ENDBRANCH  17  23
ENDBRANCH  13  15
ENDBRANCH   1  13
BRANCH  10  25
HETATM   25  O2  UNL     1      29.809   4.958  47.796  1.00  0.00    -0.360 OA
HETATM   26  H17 UNL     1      29.699   4.353  46.977  1.00  0.00     0.217 HD
ENDBRANCH  10  25
BRANCH   9  27
HETATM   27  C12 UNL     1      29.801   7.707  47.902  1.00  0.00     0.049 C 
BRANCH  27  28
HETATM   28  C13 UNL     1      30.321   8.455  49.111  1.00  0.00     0.082 C 
BRANCH  28  29
HETATM   29  C14 UNL     1      30.554   9.889  48.805  1.00  0.00     0.094 C 
HETATM   30  N4  UNL     1      30.704  10.349  47.611  1.00  0.00    -0.276 NA
HETATM   31  C15 UNL     1      30.915  11.779  47.623  1.00  0.00     0.170 C 
HETATM   32  C16 UNL     1      30.523  12.170  49.016  1.00  0.00     0.143 C 
HETATM   33  N5  UNL     1      30.642  10.931  49.752  1.00  0.00    -0.377 N 
HETATM   34  H16 UNL     1      30.770  10.801  50.782  1.00  0.00     0.160 HD
ENDBRANCH  28  29
ENDBRANCH  27  28
ENDBRANCH   9  27
TORSDOF 7
ENDMDL
MODEL 6
REMARK VINA RESULT:      -7.6      4.849     10.098
REMARK  7 active torsions:
REMARK  status: ('A' for Active; 'I' for Inactive)
REMARK    1  A    between atoms: O1_2  and  C2_3 
REMARK    2  A    between atoms: C4_5  and  N1_6 
REMARK    3  A    between atoms: N1_6  and  C5_7 
REMARK    4  A    between atoms: C11_15  and  C12_16 
REMARK    5  A    between atoms: C12_16  and  C13_17 
REMARK    6  A    between atoms: C13_17  and  C14_18 
REMARK    7  A    between atoms: C17_23  and  O2_24 
ROOT
HETATM    1  C5  UNL     1      23.790   1.738  51.284  1.00  0.00     0.093 A 
HETATM    2  C6  UNL     1      24.463   1.244  52.344  1.00  0.00     0.095 A 
HETATM    3  C7  UNL     1      25.840   1.615  52.447  1.00  0.00     0.103 C 
HETATM    4  N2  UNL     1      26.947   1.926  52.513  1.00  0.00    -0.191 NA
HETATM    5  C8  UNL     1      23.826   0.369  53.343  1.00  0.00     0.143 A 
HETATM    6  N3  UNL     1      22.651  -0.144  53.547  1.00  0.00    -0.253 NA
HETATM    7  C9  UNL     1      21.583   0.140  52.613  1.00  0.00     0.093 A 
HETATM    8  C10 UNL     1      20.298  -0.252  52.584  1.00  0.00     0.048 A 
HETATM    9  C11 UNL     1      19.423   0.198  51.497  1.00  0.00    -0.021 A 
HETATM   10  C17 UNL     1      19.628   0.956  50.465  1.00  0.00     0.078 A 
HETATM   11  C18 UNL     1      20.935   1.586  50.150  1.00  0.00     0.084 A 
HETATM   12  S1  UNL     1      22.073   1.212  51.252  1.00  0.00    -0.089 SA
ENDROOT
BRANCH   1  13
HETATM   13  N1  UNL     1      24.220   2.573  50.247  1.00  0.00    -0.348 N 
HETATM   14  H5  UNL     1      24.515   2.012  49.417  1.00  0.00     0.166 HD
BRANCH  13  15
HETATM   15  C4  UNL     1      24.269   3.995  50.268  1.00  0.00     0.057 A 
HETATM   16  C3  UNL     1      23.147   4.675  50.697  1.00  0.00     0.069 A 
HETATM   17  C2  UNL     1      23.227   6.033  50.705  1.00  0.00     0.092 A 
HETATM   18  C21 UNL     1      24.388   6.691  50.300  1.00  0.00     0.069 A 
HETATM   19  C20 UNL     1      25.511   5.982  49.869  1.00  0.00     0.052 A 
HETATM   20 CL2  UNL     1      24.564   8.446  50.283  1.00  0.00    -0.081 Cl
HETATM   21  C19 UNL     1      25.426   4.605  49.862  1.00  0.00     0.062 A 
HETATM   22 CL1  UNL     1      26.790   3.630  49.337  1.00  0.00    -0.082 Cl
BRANCH  17  23
HETATM   23  O1  UNL     1      22.231   6.916  51.094  1.00  0.00    -0.354 OA
HETATM   24  C1  UNL     1      21.182   7.205  50.188  1.00  0.00     0.210 C 
ENDBRANCH  17  23
ENDBRANCH  13  15
ENDBRANCH   1  13
BRANCH  10  25
HETATM   25  O2  UNL     1      18.629   1.260  49.535  1.00  0.00    -0.360 OA
HETATM   26  H17 UNL     1      17.651   1.084  49.786  1.00  0.00     0.217 HD
ENDBRANCH  10  25
BRANCH   9  27
HETATM   27  C12 UNL     1      18.050  -0.366  51.678  1.00  0.00     0.049 C 
BRANCH  27  28
HETATM   28  C13 UNL     1      18.031  -1.001  53.052  1.00  0.00     0.082 C 
BRANCH  28  29
HETATM   29  C14 UNL     1      17.122  -2.175  53.095  1.00  0.00     0.094 C 
HETATM   30  N4  UNL     1      16.029  -2.257  52.418  1.00  0.00    -0.276 NA
HETATM   31  C15 UNL     1      15.355  -3.512  52.661  1.00  0.00     0.170 C 
HETATM   32  C16 UNL     1      16.403  -4.335  53.345  1.00  0.00     0.143 C 
HETATM   33  N5  UNL     1      17.317  -3.342  53.863  1.00  0.00    -0.377 N 
HETATM   34  H16 UNL     1      18.000  -3.439  54.650  1.00  0.00     0.160 HD
ENDBRANCH  28  29
ENDBRANCH  27  28
ENDBRANCH   9  27
TORSDOF 7
ENDMDL
MODEL 7
REMARK VINA RESULT:      -7.3      4.833     10.078
REMARK  7 active torsions:
REMARK  status: ('A' for Active; 'I' for Inactive)
REMARK    1  A    between atoms: O1_2  and  C2_3 
REMARK    2  A    between atoms: C4_5  and  N1_6 
REMARK    3  A    between atoms: N1_6  and  C5_7 
REMARK    4  A    between atoms: C11_15  and  C12_16 
REMARK    5  A    between atoms: C12_16  and  C13_17 
REMARK    6  A    between atoms: C13_17  and  C14_18 
REMARK    7  A    between atoms: C17_23  and  O2_24 
ROOT
HETATM    1  C5  UNL     1      22.675   1.445  51.569  1.00  0.00     0.093 A 
HETATM    2  C6  UNL     1      23.135   0.958  52.740  1.00  0.00     0.095 A 
HETATM    3  C7  UNL     1      24.494   1.261  53.060  1.00  0.00     0.103 C 
HETATM    4  N2  UNL     1      25.590   1.517  53.302  1.00  0.00    -0.191 NA
HETATM    5  C8  UNL     1      22.292   0.156  53.644  1.00  0.00     0.143 A 
HETATM    6  N3  UNL     1      21.072  -0.289  53.663  1.00  0.00    -0.253 NA
HETATM    7  C9  UNL     1      20.191   0.014  52.556  1.00  0.00     0.093 A 
HETATM    8  C10 UNL     1      18.908  -0.312  52.324  1.00  0.00     0.048 A 
HETATM    9  C11 UNL     1      18.253   0.140  51.094  1.00  0.00    -0.021 A 
HETATM   10  C17 UNL     1      18.668   0.846  50.088  1.00  0.00     0.078 A 
HETATM   11  C18 UNL     1      20.042   1.395  49.978  1.00  0.00     0.084 A 
HETATM   12  S1  UNL     1      20.960   1.006  51.265  1.00  0.00    -0.089 SA
ENDROOT
BRANCH   1  13
HETATM   13  N1  UNL     1      23.318   2.215  50.594  1.00  0.00    -0.348 N 
HETATM   14  H5  UNL     1      23.674   1.613  49.819  1.00  0.00     0.166 HD
BRANCH  13  15
HETATM   15  C4  UNL     1      23.490   3.629  50.607  1.00  0.00     0.057 A 
HETATM   16  C3  UNL     1      22.381   4.413  50.855  1.00  0.00     0.069 A 
HETATM   17  C2  UNL     1      22.580   5.758  50.861  1.00  0.00     0.092 A 
HETATM   18  C21 UNL     1      23.842   6.304  50.629  1.00  0.00     0.069 A 
HETATM   19  C20 UNL     1      24.950   5.490  50.381  1.00  0.00     0.052 A 
HETATM   20 CL2  UNL     1      24.176   8.036  50.621  1.00  0.00    -0.081 Cl
HETATM   21  C19 UNL     1      24.745   4.126  50.375  1.00  0.00     0.062 A 
HETATM   22 CL1  UNL     1      26.079   3.024  50.073  1.00  0.00    -0.082 Cl
BRANCH  17  23
HETATM   23  O1  UNL     1      21.620   6.734  51.086  1.00  0.00    -0.354 OA
HETATM   24  C1  UNL     1      20.744   7.087  50.030  1.00  0.00     0.210 C 
ENDBRANCH  17  23
ENDBRANCH  13  15
ENDBRANCH   1  13
BRANCH  10  25
HETATM   25  O2  UNL     1      17.855   1.165  48.996  1.00  0.00    -0.360 OA
HETATM   26  H17 UNL     1      17.823   2.136  48.671  1.00  0.00     0.217 HD
ENDBRANCH  10  25
BRANCH   9  27
HETATM   27  C12 UNL     1      16.839  -0.345  51.059  1.00  0.00     0.049 C 
BRANCH  27  28
HETATM   28  C13 UNL     1      16.442  -0.598  52.498  1.00  0.00     0.082 C 
BRANCH  28  29
HETATM   29  C14 UNL     1      15.240   0.188  52.876  1.00  0.00     0.094 C 
HETATM   30  N4  UNL     1      15.044   1.410  52.519  1.00  0.00    -0.276 NA
HETATM   31  C15 UNL     1      13.791   1.913  53.035  1.00  0.00     0.170 C 
HETATM   32  C16 UNL     1      13.086   0.670  53.487  1.00  0.00     0.143 C 
HETATM   33  N5  UNL     1      14.164  -0.276  53.662  1.00  0.00    -0.377 N 
HETATM   34  H16 UNL     1      14.175  -1.143  54.247  1.00  0.00     0.160 HD
ENDBRANCH  28  29
ENDBRANCH  27  28
ENDBRANCH   9  27
TORSDOF 7
ENDMDL
MODEL 8
REMARK VINA RESULT:      -7.3      3.705      6.026
REMARK  7 active torsions:
REMARK  status: ('A' for Active; 'I' for Inactive)
REMARK    1  A    between atoms: O1_2  and  C2_3 
REMARK    2  A    between atoms: C4_5  and  N1_6 
REMARK    3  A    between atoms: N1_6  and  C5_7 
REMARK    4  A    between atoms: C11_15  and  C12_16 
REMARK    5  A    between atoms: C12_16  and  C13_17 
REMARK    6  A    between atoms: C13_17  and  C14_18 
REMARK    7  A    between atoms: C17_23  and  O2_24 
ROOT
HETATM    1  C5  UNL     1      21.880   0.887  52.908  1.00  0.00     0.093 A 
HETATM    2  C6  UNL     1      22.766   0.001  53.406  1.00  0.00     0.095 A 
HETATM    3  C7  UNL     1      22.238  -0.999  54.281  1.00  0.00     0.103 C 
HETATM    4  N2  UNL     1      21.794  -1.797  54.982  1.00  0.00    -0.191 NA
HETATM    5  C8  UNL     1      24.201   0.052  53.075  1.00  0.00     0.143 A 
HETATM    6  N3  UNL     1      24.984   0.791  52.349  1.00  0.00    -0.253 NA
HETATM    7  C9  UNL     1      24.425   1.902  51.611  1.00  0.00     0.093 A 
HETATM    8  C10 UNL     1      24.995   2.810  50.799  1.00  0.00     0.048 A 
HETATM    9  C11 UNL     1      24.170   3.846  50.172  1.00  0.00    -0.021 A 
HETATM   10  C17 UNL     1      22.901   4.110  50.229  1.00  0.00     0.078 A 
HETATM   11  C18 UNL     1      21.930   3.323  51.030  1.00  0.00     0.084 A 
HETATM   12  S1  UNL     1      22.647   2.096  51.824  1.00  0.00    -0.089 SA
ENDROOT
BRANCH   1  13
HETATM   13  N1  UNL     1      20.499   0.995  53.106  1.00  0.00    -0.348 N 
HETATM   14  H5  UNL     1      20.285   1.287  54.086  1.00  0.00     0.166 HD
BRANCH  13  15
HETATM   15  C4  UNL     1      19.482   0.752  52.140  1.00  0.00     0.057 A 
HETATM   16  C3  UNL     1      19.381   1.624  51.074  1.00  0.00     0.069 A 
HETATM   17  C2  UNL     1      18.400   1.363  50.169  1.00  0.00     0.092 A 
HETATM   18  C21 UNL     1      17.548   0.269  50.321  1.00  0.00     0.069 A 
HETATM   19  C20 UNL     1      17.669  -0.599  51.408  1.00  0.00     0.052 A 
HETATM   20 CL2  UNL     1      16.254  -0.131  49.190  1.00  0.00    -0.081 Cl
HETATM   21  C19 UNL     1      18.665  -0.332  52.324  1.00  0.00     0.062 A 
HETATM   22 CL1  UNL     1      18.894  -1.370  53.723  1.00  0.00    -0.082 Cl
BRANCH  17  23
HETATM   23  O1  UNL     1      18.113   2.097  49.027  1.00  0.00    -0.354 OA
HETATM   24  C1  UNL     1      17.401   3.314  49.158  1.00  0.00     0.210 C 
ENDBRANCH  17  23
ENDBRANCH  13  15
ENDBRANCH   1  13
BRANCH  10  25
HETATM   25  O2  UNL     1      22.314   5.172  49.535  1.00  0.00    -0.360 OA
HETATM   26  H17 UNL     1      22.651   5.392  48.593  1.00  0.00     0.217 HD
ENDBRANCH  10  25
BRANCH   9  27
HETATM   27  C12 UNL     1      25.021   4.733  49.322  1.00  0.00     0.049 C 
BRANCH  27  28
HETATM   28  C13 UNL     1      26.398   4.103  49.298  1.00  0.00     0.082 C 
BRANCH  28  29
HETATM   29  C14 UNL     1      27.442   5.093  48.930  1.00  0.00     0.094 C 
HETATM   30  N4  UNL     1      28.568   4.776  48.391  1.00  0.00    -0.276 NA
HETATM   31  C15 UNL     1      29.380   5.947  48.148  1.00  0.00     0.170 C 
HETATM   32  C16 UNL     1      28.409   7.076  48.315  1.00  0.00     0.143 C 
HETATM   33  N5  UNL     1      27.355   6.489  49.111  1.00  0.00    -0.377 N 
HETATM   34  H16 UNL     1      26.651   6.977  49.713  1.00  0.00     0.160 HD
ENDBRANCH  28  29
ENDBRANCH  27  28
ENDBRANCH   9  27
TORSDOF 7
ENDMDL
MODEL 9
REMARK VINA RESULT:      -7.3      1.857      2.085
REMARK  7 active torsions:
REMARK  status: ('A' for Active; 'I' for Inactive)
REMARK    1  A    between atoms: O1_2  and  C2_3 
REMARK    2  A    between atoms: C4_5  and  N1_6 
REMARK    3  A    between atoms: N1_6  and  C5_7 
REMARK    4  A    between atoms: C11_15  and  C12_16 
REMARK    5  A    between atoms: C12_16  and  C13_17 
REMARK    6  A    between atoms: C13_17  and  C14_18 
REMARK    7  A    between atoms: C17_23  and  O2_24 
ROOT
HETATM    1  C5  UNL     1      22.430   3.871  50.250  1.00  0.00     0.093 A 
HETATM    2  C6  UNL     1      21.644   3.499  49.219  1.00  0.00     0.095 A 
HETATM    3  C7  UNL     1      20.730   2.430  49.474  1.00  0.00     0.103 C 
HETATM    4  N2  UNL     1      19.999   1.569  49.699  1.00  0.00    -0.191 NA
HETATM    5  C8  UNL     1      21.717   4.149  47.899  1.00  0.00     0.143 A 
HETATM    6  N3  UNL     1      22.401   5.104  47.346  1.00  0.00    -0.253 NA
HETATM    7  C9  UNL     1      23.396   5.807  48.127  1.00  0.00     0.093 A 
HETATM    8  C10 UNL     1      24.228   6.814  47.811  1.00  0.00     0.048 A 
HETATM    9  C11 UNL     1      25.151   7.340  48.821  1.00  0.00    -0.021 A 
HETATM   10  C17 UNL     1      25.365   7.025  50.061  1.00  0.00     0.078 A 
HETATM   11  C18 UNL     1      24.635   5.950  50.776  1.00  0.00     0.084 A 
HETATM   12  S1  UNL     1      23.538   5.218  49.823  1.00  0.00    -0.089 SA
ENDROOT
BRANCH   1  13
HETATM   13  N1  UNL     1      22.502   3.377  51.558  1.00  0.00    -0.348 N 
HETATM   14  H5  UNL     1      21.839   3.886  52.185  1.00  0.00     0.166 HD
BRANCH  13  15
HETATM   15  C4  UNL     1      23.344   2.328  52.022  1.00  0.00     0.057 A 
HETATM   16  C3  UNL     1      24.690   2.399  51.725  1.00  0.00     0.069 A 
HETATM   17  C2  UNL     1      25.467   1.381  52.184  1.00  0.00     0.092 A 
HETATM   18  C21 UNL     1      24.919   0.328  52.916  1.00  0.00     0.069 A 
HETATM   19  C20 UNL     1      23.555   0.277  53.205  1.00  0.00     0.052 A 
HETATM   20 CL2  UNL     1      25.863  -1.026  53.542  1.00  0.00    -0.081 Cl
HETATM   21  C19 UNL     1      22.769   1.311  52.737  1.00  0.00     0.062 A 
HETATM   22 CL1  UNL     1      21.041   1.332  53.053  1.00  0.00    -0.082 Cl
BRANCH  17  23
HETATM   23  O1  UNL     1      26.836   1.242  52.007  1.00  0.00    -0.354 OA
HETATM   24  C1  UNL     1      27.710   2.011  52.813  1.00  0.00     0.210 C 
ENDBRANCH  17  23
ENDBRANCH  13  15
ENDBRANCH   1  13
BRANCH  10  25
HETATM   25  O2  UNL     1      26.316   7.673  50.856  1.00  0.00    -0.360 OA
HETATM   26  H17 UNL     1      26.067   8.566  51.293  1.00  0.00     0.217 HD
ENDBRANCH  10  25
BRANCH   9  27
HETATM   27  C12 UNL     1      25.970   8.447  48.238  1.00  0.00     0.049 C 
BRANCH  27  28
HETATM   28  C13 UNL     1      27.101   7.785  47.481  1.00  0.00     0.082 C 
BRANCH  28  29
HETATM   29  C14 UNL     1      28.423   8.147  48.053  1.00  0.00     0.094 C 
HETATM   30  N4  UNL     1      28.577   8.976  49.026  1.00  0.00    -0.276 NA
HETATM   31  C15 UNL     1      29.973   9.131  49.367  1.00  0.00     0.170 C 
HETATM   32  C16 UNL     1      30.626   7.983  48.659  1.00  0.00     0.143 C 
HETATM   33  N5  UNL     1      29.671   7.647  47.627  1.00  0.00    -0.377 N 
HETATM   34  H16 UNL     1      29.842   7.135  46.730  1.00  0.00     0.160 HD
ENDBRANCH  28  29
ENDBRANCH  27  28
ENDBRANCH   9  27
TORSDOF 7
ENDMDL
