MODEL 1
REMARK VINA RESULT:      -8.4      0.000      0.000
REMARK  5 active torsions:
REMARK  status: ('A' for Active; 'I' for Inactive)
REMARK    1  A    between atoms: C5_5  and  C6_6 
REMARK    2  A    between atoms: C6_6  and  C7_7 
REMARK    3  A    between atoms: C7_7  and  C8_8 
REMARK    4  A    between atoms: C17_21  and  O1_22 
REMARK    5  A    between atoms: O1_22  and  N3_23 
ROOT
HETATM    1  C1  UNL     1      28.500   2.426  53.545  1.00  0.00     0.051 C 
HETATM    2  C2  UNL     1      27.235   1.617  53.558  1.00  0.00    -0.026 A 
HETATM    3  C3  UNL     1      26.086   2.070  52.914  1.00  0.00     0.025 A 
HETATM    4  C4  UNL     1      24.912   1.385  52.892  1.00  0.00     0.018 A 
HETATM    5  C5  UNL     1      23.828   1.916  52.218  1.00  0.00     0.048 A 
HETATM    6  N1  UNL     1      22.705   1.137  52.254  1.00  0.00    -0.246 NA
HETATM    7  C14 UNL     1      22.659  -0.046  52.894  1.00  0.00     0.234 A 
HETATM    8  N2  UNL     1      23.745  -0.526  53.542  1.00  0.00    -0.241 NA
HETATM    9  C15 UNL     1      24.908   0.176  53.560  1.00  0.00     0.073 A 
HETATM   10  C16 UNL     1      26.017  -0.321  54.216  1.00  0.00     0.072 A 
HETATM   11  C17 UNL     1      27.201   0.394  54.226  1.00  0.00     0.100 A 
ENDROOT
BRANCH   5  12
HETATM   12  C6  UNL     1      23.833   3.205  51.535  1.00  0.00     0.065 C 
BRANCH  12  13
HETATM   13  C7  UNL     1      24.055   3.047  50.047  1.00  0.00     0.048 C 
BRANCH  13  14
HETATM   14  C8  UNL     1      25.001   4.084  49.530  1.00  0.00    -0.019 A 
HETATM   15  C9  UNL     1      24.668   5.390  49.160  1.00  0.00     0.011 A 
HETATM   16  C10 UNL     1      25.674   6.221  48.701  1.00  0.00     0.020 A 
HETATM   17  C11 UNL     1      26.973   5.790  48.606  1.00  0.00     0.013 A 
HETATM   18 BR1  UNL     1      28.315   6.983  47.969  1.00  0.00    -0.051 Br
HETATM   19  C12 UNL     1      27.336   4.495  48.968  1.00  0.00     0.061 A 
HETATM   20  C13 UNL     1      26.327   3.647  49.433  1.00  0.00     0.123 A 
HETATM   21  F1  UNL     1      26.701   2.388  49.780  1.00  0.00    -0.206 F 
ENDBRANCH  13  14
ENDBRANCH  12  13
ENDBRANCH   5  12
BRANCH  11  22
HETATM   22  O1  UNL     1      28.370  -0.011  54.853  1.00  0.00    -0.266 OA
BRANCH  22  23
HETATM   23  N3  UNL     1      29.205  -0.955  54.315  1.00  0.00    -0.209 NA
HETATM   24  H14 UNL     1      29.014  -1.085  53.310  1.00  0.00     0.150 HD
HETATM   25  H15 UNL     1      29.173  -1.806  54.892  1.00  0.00     0.150 HD
ENDBRANCH  22  23
ENDBRANCH  11  22
TORSDOF 5
ENDMDL
MODEL 2
REMARK VINA RESULT:      -8.1      3.721      6.143
REMARK  5 active torsions:
REMARK  status: ('A' for Active; 'I' for Inactive)
REMARK    1  A    between atoms: C5_5  and  C6_6 
REMARK    2  A    between atoms: C6_6  and  C7_7 
REMARK    3  A    between atoms: C7_7  and  C8_8 
REMARK    4  A    between atoms: C17_21  and  O1_22 
REMARK    5  A    between atoms: O1_22  and  N3_23 
ROOT
HETATM    1  C1  UNL     1      27.248   4.286  49.024  1.00  0.00     0.051 C 
HETATM    2  C2  UNL     1      25.974   4.640  49.737  1.00  0.00    -0.026 A 
HETATM    3  C3  UNL     1      25.192   3.658  50.340  1.00  0.00     0.025 A 
HETATM    4  C4  UNL     1      24.030   3.915  50.997  1.00  0.00     0.018 A 
HETATM    5  C5  UNL     1      23.327   2.870  51.569  1.00  0.00     0.048 A 
HETATM    6  N1  UNL     1      22.182   3.246  52.212  1.00  0.00    -0.246 NA
HETATM    7  C14 UNL     1      21.771   4.526  52.281  1.00  0.00     0.234 A 
HETATM    8  N2  UNL     1      22.491   5.517  51.705  1.00  0.00    -0.241 NA
HETATM    9  C15 UNL     1      23.646   5.241  51.045  1.00  0.00     0.073 A 
HETATM   10  C16 UNL     1      24.382   6.254  50.465  1.00  0.00     0.072 A 
HETATM   11  C17 UNL     1      25.561   5.970  49.800  1.00  0.00     0.100 A 
ENDROOT
BRANCH   5  12
HETATM   12  C6  UNL     1      23.728   1.469  51.493  1.00  0.00     0.065 C 
BRANCH  12  13
HETATM   13  C7  UNL     1      23.964   0.882  52.867  1.00  0.00     0.048 C 
BRANCH  13  14
HETATM   14  C8  UNL     1      25.375   0.405  53.013  1.00  0.00    -0.019 A 
HETATM   15  C9  UNL     1      25.852  -0.866  52.679  1.00  0.00     0.011 A 
HETATM   16  C10 UNL     1      27.193  -1.139  52.879  1.00  0.00     0.020 A 
HETATM   17  C11 UNL     1      28.049  -0.197  53.393  1.00  0.00     0.013 A 
HETATM   18 BR1  UNL     1      29.886  -0.632  53.643  1.00  0.00    -0.051 Br
HETATM   19  C12 UNL     1      27.603   1.078  53.734  1.00  0.00     0.061 A 
HETATM   20  C13 UNL     1      26.250   1.365  53.535  1.00  0.00     0.123 A 
HETATM   21  F1  UNL     1      25.835   2.613  53.876  1.00  0.00    -0.206 F 
ENDBRANCH  13  14
ENDBRANCH  12  13
ENDBRANCH   5  12
BRANCH  11  22
HETATM   22  O1  UNL     1      26.373   6.910  49.183  1.00  0.00    -0.266 OA
BRANCH  22  23
HETATM   23  N3  UNL     1      27.128   7.808  49.890  1.00  0.00    -0.209 NA
HETATM   24  H14 UNL     1      28.052   7.938  49.451  1.00  0.00     0.150 HD
HETATM   25  H15 UNL     1      27.137   7.539  50.883  1.00  0.00     0.150 HD
ENDBRANCH  22  23
ENDBRANCH  11  22
TORSDOF 5
ENDMDL
MODEL 3
REMARK VINA RESULT:      -8.0      4.658      6.871
REMARK  5 active torsions:
REMARK  status: ('A' for Active; 'I' for Inactive)
REMARK    1  A    between atoms: C5_5  and  C6_6 
REMARK    2  A    between atoms: C6_6  and  C7_7 
REMARK    3  A    between atoms: C7_7  and  C8_8 
REMARK    4  A    between atoms: C17_21  and  O1_22 
REMARK    5  A    between atoms: O1_22  and  N3_23 
ROOT
HETATM    1  C1  UNL     1      25.828   2.710  50.647  1.00  0.00     0.051 C 
HETATM    2  C2  UNL     1      25.837   1.849  51.877  1.00  0.00    -0.026 A 
HETATM    3  C3  UNL     1      24.718   1.104  52.241  1.00  0.00     0.025 A 
HETATM    4  C4  UNL     1      24.665   0.309  53.342  1.00  0.00     0.018 A 
HETATM    5  C5  UNL     1      23.508  -0.398  53.615  1.00  0.00     0.048 A 
HETATM    6  N1  UNL     1      23.571  -1.171  54.740  1.00  0.00    -0.246 NA
HETATM    7  C14 UNL     1      24.667  -1.238  55.517  1.00  0.00     0.234 A 
HETATM    8  N2  UNL     1      25.778  -0.528  55.212  1.00  0.00    -0.241 NA
HETATM    9  C15 UNL     1      25.811   0.269  54.112  1.00  0.00     0.073 A 
HETATM   10  C16 UNL     1      26.948   0.986  53.799  1.00  0.00     0.072 A 
HETATM   11  C17 UNL     1      26.979   1.791  52.674  1.00  0.00     0.100 A 
ENDROOT
BRANCH   5  12
HETATM   12  C6  UNL     1      22.293  -0.331  52.809  1.00  0.00     0.065 C 
BRANCH  12  13
HETATM   13  C7  UNL     1      21.200   0.445  53.511  1.00  0.00     0.048 C 
BRANCH  13  14
HETATM   14  C8  UNL     1      19.848   0.030  53.025  1.00  0.00    -0.019 A 
HETATM   15  C9  UNL     1      19.078   0.695  52.066  1.00  0.00     0.011 A 
HETATM   16  C10 UNL     1      17.844   0.169  51.732  1.00  0.00     0.020 A 
HETATM   17  C11 UNL     1      17.370  -0.977  52.318  1.00  0.00     0.013 A 
HETATM   18 BR1  UNL     1      15.662  -1.654  51.814  1.00  0.00    -0.051 Br
HETATM   19  C12 UNL     1      18.113  -1.663  53.275  1.00  0.00     0.061 A 
HETATM   20  C13 UNL     1      19.363  -1.140  53.620  1.00  0.00     0.123 A 
HETATM   21  F1  UNL     1      20.072  -1.823  54.557  1.00  0.00    -0.206 F 
ENDBRANCH  13  14
ENDBRANCH  12  13
ENDBRANCH   5  12
BRANCH  11  22
HETATM   22  O1  UNL     1      28.066   2.551  52.270  1.00  0.00    -0.266 OA
BRANCH  22  23
HETATM   23  N3  UNL     1      29.078   2.901  53.123  1.00  0.00    -0.209 NA
HETATM   24  H14 UNL     1      29.891   2.278  53.005  1.00  0.00     0.150 HD
HETATM   25  H15 UNL     1      28.707   2.978  54.080  1.00  0.00     0.150 HD
ENDBRANCH  22  23
ENDBRANCH  11  22
TORSDOF 5
ENDMDL
MODEL 4
REMARK VINA RESULT:      -7.9      2.171      2.905
REMARK  5 active torsions:
REMARK  status: ('A' for Active; 'I' for Inactive)
REMARK    1  A    between atoms: C5_5  and  C6_6 
REMARK    2  A    between atoms: C6_6  and  C7_7 
REMARK    3  A    between atoms: C7_7  and  C8_8 
REMARK    4  A    between atoms: C17_21  and  O1_22 
REMARK    5  A    between atoms: O1_22  and  N3_23 
ROOT
HETATM    1  C1  UNL     1      26.753   0.545  51.933  1.00  0.00     0.051 C 
HETATM    2  C2  UNL     1      25.650   0.057  52.829  1.00  0.00    -0.026 A 
HETATM    3  C3  UNL     1      24.319   0.115  52.424  1.00  0.00     0.025 A 
HETATM    4  C4  UNL     1      23.278  -0.309  53.189  1.00  0.00     0.018 A 
HETATM    5  C5  UNL     1      21.990  -0.216  52.695  1.00  0.00     0.048 A 
HETATM    6  N1  UNL     1      21.025  -0.680  53.545  1.00  0.00    -0.246 NA
HETATM    7  C14 UNL     1      21.306  -1.184  54.760  1.00  0.00     0.234 A 
HETATM    8  N2  UNL     1      22.582  -1.255  55.204  1.00  0.00    -0.241 NA
HETATM    9  C15 UNL     1      23.610  -0.819  54.429  1.00  0.00     0.073 A 
HETATM   10  C16 UNL     1      24.912  -0.899  54.881  1.00  0.00     0.072 A 
HETATM   11  C17 UNL     1      25.956  -0.461  54.086  1.00  0.00     0.100 A 
ENDROOT
BRANCH   5  12
HETATM   12  C6  UNL     1      21.645   0.347  51.393  1.00  0.00     0.065 C 
BRANCH  12  13
HETATM   13  C7  UNL     1      21.455   1.845  51.466  1.00  0.00     0.048 C 
BRANCH  13  14
HETATM   14  C8  UNL     1      22.586   2.565  50.802  1.00  0.00    -0.019 A 
HETATM   15  C9  UNL     1      22.845   2.600  49.428  1.00  0.00     0.011 A 
HETATM   16  C10 UNL     1      23.939   3.319  48.983  1.00  0.00     0.020 A 
HETATM   17  C11 UNL     1      24.762   3.987  49.854  1.00  0.00     0.013 A 
HETATM   18 BR1  UNL     1      26.252   4.962  49.180  1.00  0.00    -0.051 Br
HETATM   19  C12 UNL     1      24.529   3.972  51.227  1.00  0.00     0.061 A 
HETATM   20  C13 UNL     1      23.425   3.249  51.688  1.00  0.00     0.123 A 
HETATM   21  F1  UNL     1      23.217   3.245  53.031  1.00  0.00    -0.206 F 
ENDBRANCH  13  14
ENDBRANCH  12  13
ENDBRANCH   5  12
BRANCH  11  22
HETATM   22  O1  UNL     1      27.296  -0.496  54.442  1.00  0.00    -0.266 OA
BRANCH  22  23
HETATM   23  N3  UNL     1      27.895   0.508  55.155  1.00  0.00    -0.209 NA
HETATM   24  H14 UNL     1      27.448   1.416  54.958  1.00  0.00     0.150 HD
HETATM   25  H15 UNL     1      28.913   0.469  55.011  1.00  0.00     0.150 HD
ENDBRANCH  22  23
ENDBRANCH  11  22
TORSDOF 5
ENDMDL
MODEL 5
REMARK VINA RESULT:      -7.9      2.223      3.660
REMARK  5 active torsions:
REMARK  status: ('A' for Active; 'I' for Inactive)
REMARK    1  A    between atoms: C5_5  and  C6_6 
REMARK    2  A    between atoms: C6_6  and  C7_7 
REMARK    3  A    between atoms: C7_7  and  C8_8 
REMARK    4  A    between atoms: C17_21  and  O1_22 
REMARK    5  A    between atoms: O1_22  and  N3_23 
ROOT
HETATM    1  C1  UNL     1      21.424   0.463  52.043  1.00  0.00     0.051 C 
HETATM    2  C2  UNL     1      22.876   0.448  52.429  1.00  0.00    -0.026 A 
HETATM    3  C3  UNL     1      23.786   1.317  51.831  1.00  0.00     0.025 A 
HETATM    4  C4  UNL     1      25.111   1.349  52.135  1.00  0.00     0.018 A 
HETATM    5  C5  UNL     1      25.934   2.254  51.490  1.00  0.00     0.048 A 
HETATM    6  N1  UNL     1      27.242   2.205  51.883  1.00  0.00    -0.246 NA
HETATM    7  C14 UNL     1      27.691   1.347  52.817  1.00  0.00     0.234 A 
HETATM    8  N2  UNL     1      26.849   0.478  53.422  1.00  0.00    -0.241 NA
HETATM    9  C15 UNL     1      25.529   0.453  53.099  1.00  0.00     0.073 A 
HETATM   10  C16 UNL     1      24.671  -0.429  53.724  1.00  0.00     0.072 A 
HETATM   11  C17 UNL     1      23.326  -0.446  53.397  1.00  0.00     0.100 A 
ENDROOT
BRANCH   5  12
HETATM   12  C6  UNL     1      25.488   3.181  50.456  1.00  0.00     0.065 C 
BRANCH  12  13
HETATM   13  C7  UNL     1      26.609   3.535  49.504  1.00  0.00     0.048 C 
BRANCH  13  14
HETATM   14  C8  UNL     1      26.465   4.936  49.000  1.00  0.00    -0.019 A 
HETATM   15  C9  UNL     1      25.293   5.699  49.014  1.00  0.00     0.011 A 
HETATM   16  C10 UNL     1      25.338   6.985  48.506  1.00  0.00     0.020 A 
HETATM   17  C11 UNL     1      26.496   7.515  47.996  1.00  0.00     0.013 A 
HETATM   18 BR1  UNL     1      26.496   9.293  47.313  1.00  0.00    -0.051 Br
HETATM   19  C12 UNL     1      27.679   6.780  47.970  1.00  0.00     0.061 A 
HETATM   20  C13 UNL     1      27.645   5.480  48.481  1.00  0.00     0.123 A 
HETATM   21  F1  UNL     1      28.809   4.780  48.444  1.00  0.00    -0.206 F 
ENDBRANCH  13  14
ENDBRANCH  12  13
ENDBRANCH   5  12
BRANCH  11  22
HETATM   22  O1  UNL     1      22.381  -1.290  53.961  1.00  0.00    -0.266 OA
BRANCH  22  23
HETATM   23  N3  UNL     1      22.372  -1.598  55.296  1.00  0.00    -0.209 NA
HETATM   24  H14 UNL     1      23.210  -1.224  55.765  1.00  0.00     0.150 HD
HETATM   25  H15 UNL     1      22.204  -2.606  55.412  1.00  0.00     0.150 HD
ENDBRANCH  22  23
ENDBRANCH  11  22
TORSDOF 5
ENDMDL
MODEL 6
REMARK VINA RESULT:      -7.9      2.272      3.795
REMARK  5 active torsions:
REMARK  status: ('A' for Active; 'I' for Inactive)
REMARK    1  A    between atoms: C5_5  and  C6_6 
REMARK    2  A    between atoms: C6_6  and  C7_7 
REMARK    3  A    between atoms: C7_7  and  C8_8 
REMARK    4  A    between atoms: C17_21  and  O1_22 
REMARK    5  A    between atoms: O1_22  and  N3_23 
ROOT
HETATM    1  C1  UNL     1      21.731   1.793  52.464  1.00  0.00     0.051 C 
HETATM    2  C2  UNL     1      22.957   0.981  52.770  1.00  0.00    -0.026 A 
HETATM    3  C3  UNL     1      24.227   1.448  52.440  1.00  0.00     0.025 A 
HETATM    4  C4  UNL     1      25.373   0.760  52.688  1.00  0.00     0.018 A 
HETATM    5  C5  UNL     1      26.589   1.312  52.328  1.00  0.00     0.048 A 
HETATM    6  N1  UNL     1      27.672   0.537  52.636  1.00  0.00    -0.246 NA
HETATM    7  C14 UNL     1      27.564  -0.662  53.236  1.00  0.00     0.234 A 
HETATM    8  N2  UNL     1      26.353  -1.163  53.570  1.00  0.00    -0.241 NA
HETATM    9  C15 UNL     1      25.217  -0.466  53.306  1.00  0.00     0.073 A 
HETATM   10  C16 UNL     1      23.983  -0.976  53.655  1.00  0.00     0.072 A 
HETATM   11  C17 UNL     1      22.829  -0.259  53.391  1.00  0.00     0.100 A 
ENDROOT
BRANCH   5  12
HETATM   12  C6  UNL     1      26.743   2.596  51.654  1.00  0.00     0.065 C 
BRANCH  12  13
HETATM   13  C7  UNL     1      26.464   2.485  50.172  1.00  0.00     0.048 C 
BRANCH  13  14
HETATM   14  C8  UNL     1      26.351   3.837  49.542  1.00  0.00    -0.019 A 
HETATM   15  C9  UNL     1      27.402   4.583  49.001  1.00  0.00     0.011 A 
HETATM   16  C10 UNL     1      27.118   5.821  48.455  1.00  0.00     0.020 A 
HETATM   17  C11 UNL     1      25.840   6.321  48.436  1.00  0.00     0.013 A 
HETATM   18 BR1  UNL     1      25.512   8.033  47.667  1.00  0.00    -0.051 Br
HETATM   19  C12 UNL     1      24.772   5.602  48.966  1.00  0.00     0.061 A 
HETATM   20  C13 UNL     1      25.048   4.349  49.521  1.00  0.00     0.123 A 
HETATM   21  F1  UNL     1      23.993   3.664  50.034  1.00  0.00    -0.206 F 
ENDBRANCH  13  14
ENDBRANCH  12  13
ENDBRANCH   5  12
BRANCH  11  22
HETATM   22  O1  UNL     1      21.544  -0.679  53.698  1.00  0.00    -0.266 OA
BRANCH  22  23
HETATM   23  N3  UNL     1      21.235  -1.303  54.876  1.00  0.00    -0.209 NA
HETATM   24  H14 UNL     1      20.214  -1.335  55.019  1.00  0.00     0.150 HD
HETATM   25  H15 UNL     1      21.782  -0.883  55.639  1.00  0.00     0.150 HD
ENDBRANCH  22  23
ENDBRANCH  11  22
TORSDOF 5
ENDMDL
MODEL 7
REMARK VINA RESULT:      -7.8      4.280      5.921
REMARK  5 active torsions:
REMARK  status: ('A' for Active; 'I' for Inactive)
REMARK    1  A    between atoms: C5_5  and  C6_6 
REMARK    2  A    between atoms: C6_6  and  C7_7 
REMARK    3  A    between atoms: C7_7  and  C8_8 
REMARK    4  A    between atoms: C17_21  and  O1_22 
REMARK    5  A    between atoms: O1_22  and  N3_23 
ROOT
HETATM    1  C1  UNL     1      22.729  -1.580  55.236  1.00  0.00     0.051 C 
HETATM    2  C2  UNL     1      22.217  -0.591  54.228  1.00  0.00    -0.026 A 
HETATM    3  C3  UNL     1      22.999   0.487  53.820  1.00  0.00     0.025 A 
HETATM    4  C4  UNL     1      22.591   1.416  52.914  1.00  0.00     0.018 A 
HETATM    5  C5  UNL     1      23.444   2.448  52.568  1.00  0.00     0.048 A 
HETATM    6  N1  UNL     1      22.934   3.314  51.642  1.00  0.00    -0.246 NA
HETATM    7  C14 UNL     1      21.704   3.175  51.114  1.00  0.00     0.234 A 
HETATM    8  N2  UNL     1      20.903   2.149  51.483  1.00  0.00    -0.241 NA
HETATM    9  C15 UNL     1      21.323   1.235  52.396  1.00  0.00     0.073 A 
HETATM   10  C16 UNL     1      20.507   0.186  52.765  1.00  0.00     0.072 A 
HETATM   11  C17 UNL     1      20.941  -0.747  53.690  1.00  0.00     0.100 A 
ENDROOT
BRANCH   5  12
HETATM   12  C6  UNL     1      24.773   2.644  53.138  1.00  0.00     0.065 C 
BRANCH  12  13
HETATM   13  C7  UNL     1      25.858   2.450  52.102  1.00  0.00     0.048 C 
BRANCH  13  14
HETATM   14  C8  UNL     1      26.685   1.242  52.408  1.00  0.00    -0.019 A 
HETATM   15  C9  UNL     1      26.337  -0.084  52.133  1.00  0.00     0.011 A 
HETATM   16  C10 UNL     1      27.225  -1.084  52.484  1.00  0.00     0.020 A 
HETATM   17  C11 UNL     1      28.423  -0.800  53.089  1.00  0.00     0.013 A 
HETATM   18 BR1  UNL     1      29.606  -2.221  53.547  1.00  0.00    -0.051 Br
HETATM   19  C12 UNL     1      28.798   0.511  53.375  1.00  0.00     0.061 A 
HETATM   20  C13 UNL     1      27.908   1.529  53.024  1.00  0.00     0.123 A 
HETATM   21  F1  UNL     1      28.292   2.800  53.313  1.00  0.00    -0.206 F 
ENDBRANCH  13  14
ENDBRANCH  12  13
ENDBRANCH   5  12
BRANCH  11  22
HETATM   22  O1  UNL     1      20.203  -1.836  54.129  1.00  0.00    -0.266 OA
BRANCH  22  23
HETATM   23  N3  UNL     1      18.852  -1.939  53.928  1.00  0.00    -0.209 NA
HETATM   24  H14 UNL     1      18.447  -2.678  54.522  1.00  0.00     0.150 HD
HETATM   25  H15 UNL     1      18.663  -2.021  52.920  1.00  0.00     0.150 HD
ENDBRANCH  22  23
ENDBRANCH  11  22
TORSDOF 5
ENDMDL
MODEL 8
REMARK VINA RESULT:      -7.6      3.521      5.007
REMARK  5 active torsions:
REMARK  status: ('A' for Active; 'I' for Inactive)
REMARK    1  A    between atoms: C5_5  and  C6_6 
REMARK    2  A    between atoms: C6_6  and  C7_7 
REMARK    3  A    between atoms: C7_7  and  C8_8 
REMARK    4  A    between atoms: C17_21  and  O1_22 
REMARK    5  A    between atoms: O1_22  and  N3_23 
ROOT
HETATM    1  C1  UNL     1      26.142   2.717  50.785  1.00  0.00     0.051 C 
HETATM    2  C2  UNL     1      26.056   1.834  51.997  1.00  0.00    -0.026 A 
HETATM    3  C3  UNL     1      24.880   1.156  52.310  1.00  0.00     0.025 A 
HETATM    4  C4  UNL     1      24.741   0.346  53.392  1.00  0.00     0.018 A 
HETATM    5  C5  UNL     1      23.533  -0.290  53.614  1.00  0.00     0.048 A 
HETATM    6  N1  UNL     1      23.510  -1.087  54.724  1.00  0.00    -0.246 NA
HETATM    7  C14 UNL     1      24.574  -1.238  55.534  1.00  0.00     0.234 A 
HETATM    8  N2  UNL     1      25.737  -0.595  55.279  1.00  0.00    -0.241 NA
HETATM    9  C15 UNL     1      25.856   0.218  54.197  1.00  0.00     0.073 A 
HETATM   10  C16 UNL     1      27.046   0.867  53.935  1.00  0.00     0.072 A 
HETATM   11  C17 UNL     1      27.166   1.688  52.828  1.00  0.00     0.100 A 
ENDROOT
BRANCH   5  12
HETATM   12  C6  UNL     1      22.352  -0.131  52.771  1.00  0.00     0.065 C 
BRANCH  12  13
HETATM   13  C7  UNL     1      21.296   0.715  53.447  1.00  0.00     0.048 C 
BRANCH  13  14
HETATM   14  C8  UNL     1      20.880   1.856  52.573  1.00  0.00    -0.019 A 
HETATM   15  C9  UNL     1      21.649   2.984  52.271  1.00  0.00     0.011 A 
HETATM   16  C10 UNL     1      21.106   3.947  51.440  1.00  0.00     0.020 A 
HETATM   17  C11 UNL     1      19.845   3.815  50.916  1.00  0.00     0.013 A 
HETATM   18 BR1  UNL     1      19.155   5.175  49.775  1.00  0.00    -0.051 Br
HETATM   19  C12 UNL     1      19.056   2.703  51.197  1.00  0.00     0.061 A 
HETATM   20  C13 UNL     1      19.595   1.723  52.035  1.00  0.00     0.123 A 
HETATM   21  F1  UNL     1      18.808   0.646  52.298  1.00  0.00    -0.206 F 
ENDBRANCH  13  14
ENDBRANCH  12  13
ENDBRANCH   5  12
BRANCH  11  22
HETATM   22  O1  UNL     1      28.311   2.385  52.474  1.00  0.00    -0.266 OA
BRANCH  22  23
HETATM   23  N3  UNL     1      29.197   2.866  53.402  1.00  0.00    -0.209 NA
HETATM   24  H14 UNL     1      30.165   2.804  53.053  1.00  0.00     0.150 HD
HETATM   25  H15 UNL     1      29.018   2.416  54.309  1.00  0.00     0.150 HD
ENDBRANCH  22  23
ENDBRANCH  11  22
TORSDOF 5
ENDMDL
MODEL 9
REMARK VINA RESULT:      -7.5      4.076      6.049
REMARK  5 active torsions:
REMARK  status: ('A' for Active; 'I' for Inactive)
REMARK    1  A    between atoms: C5_5  and  C6_6 
REMARK    2  A    between atoms: C6_6  and  C7_7 
REMARK    3  A    between atoms: C7_7  and  C8_8 
REMARK    4  A    between atoms: C17_21  and  O1_22 
REMARK    5  A    between atoms: O1_22  and  N3_23 
ROOT
HETATM    1  C1  UNL     1      24.896  -0.891  54.784  1.00  0.00     0.051 C 
HETATM    2  C2  UNL     1      25.454   0.046  53.750  1.00  0.00    -0.026 A 
HETATM    3  C3  UNL     1      24.640   0.983  53.118  1.00  0.00     0.025 A 
HETATM    4  C4  UNL     1      25.084   1.855  52.174  1.00  0.00     0.018 A 
HETATM    5  C5  UNL     1      24.199   2.754  51.609  1.00  0.00     0.048 A 
HETATM    6  N1  UNL     1      24.757   3.587  50.681  1.00  0.00    -0.246 NA
HETATM    7  C14 UNL     1      26.059   3.536  50.345  1.00  0.00     0.234 A 
HETATM    8  N2  UNL     1      26.889   2.639  50.924  1.00  0.00    -0.241 NA
HETATM    9  C15 UNL     1      26.426   1.769  51.859  1.00  0.00     0.073 A 
HETATM   10  C16 UNL     1      27.278   0.860  52.454  1.00  0.00     0.072 A 
HETATM   11  C17 UNL     1      26.803  -0.020  53.411  1.00  0.00     0.100 A 
ENDROOT
BRANCH   5  12
HETATM   12  C6  UNL     1      22.777   2.822  51.930  1.00  0.00     0.065 C 
BRANCH  12  13
HETATM   13  C7  UNL     1      21.939   2.080  50.912  1.00  0.00     0.048 C 
BRANCH  13  14
HETATM   14  C8  UNL     1      20.948   1.183  51.582  1.00  0.00    -0.019 A 
HETATM   15  C9  UNL     1      21.059   0.651  52.871  1.00  0.00     0.011 A 
HETATM   16  C10 UNL     1      20.043  -0.164  53.336  1.00  0.00     0.020 A 
HETATM   17  C11 UNL     1      18.947  -0.456  52.564  1.00  0.00     0.013 A 
HETATM   18 BR1  UNL     1      17.579  -1.584  53.262  1.00  0.00    -0.051 Br
HETATM   19  C12 UNL     1      18.807   0.059  51.278  1.00  0.00     0.061 A 
HETATM   20  C13 UNL     1      19.827   0.885  50.798  1.00  0.00     0.123 A 
HETATM   21  F1  UNL     1      19.674   1.376  49.540  1.00  0.00    -0.206 F 
ENDBRANCH  13  14
ENDBRANCH  12  13
ENDBRANCH   5  12
BRANCH  11  22
HETATM   22  O1  UNL     1      27.571  -0.970  54.068  1.00  0.00    -0.266 OA
BRANCH  22  23
HETATM   23  N3  UNL     1      28.391  -1.842  53.403  1.00  0.00    -0.209 NA
HETATM   24  H14 UNL     1      27.852  -2.628  53.010  1.00  0.00     0.150 HD
HETATM   25  H15 UNL     1      29.180  -2.099  54.011  1.00  0.00     0.150 HD
ENDBRANCH  22  23
ENDBRANCH  11  22
TORSDOF 5
ENDMDL
