MODEL 1
REMARK VINA RESULT:      -7.7      0.000      0.000
REMARK  2 active torsions:
REMARK  status: ('A' for Active; 'I' for Inactive)
REMARK    1  A    between atoms: C9_9  and  O1_10 
REMARK    2  A    between atoms: O1_10  and  C10_11 
ROOT
HETATM    1  C1  UNL     1      16.648  -0.845  52.673  1.00  0.00     0.018 C 
HETATM    2  C2  UNL     1      17.808  -0.532  52.604  1.00  0.00    -0.078 C 
HETATM    3  C3  UNL     1      19.185  -0.136  52.511  1.00  0.00     0.015 C 
HETATM    4  C4  UNL     1      19.894  -0.836  53.413  1.00  0.00    -0.001 C 
HETATM    5  C5  UNL     1      21.114  -1.292  54.160  1.00  0.00     0.022 C 
HETATM    6  C6  UNL     1      22.466  -1.310  54.419  1.00  0.00    -0.001 C 
HETATM    7  C7  UNL     1      23.263  -0.481  53.553  1.00  0.00     0.009 C 
HETATM    8  C8  UNL     1      24.016   0.728  54.008  1.00  0.00     0.047 C 
HETATM    9  C9  UNL     1      24.383   1.400  52.681  1.00  0.00     0.098 C 
HETATM   10  C12 UNL     1      22.968   1.368  52.045  1.00  0.00     0.013 C 
HETATM   11  C13 UNL     1      22.984   1.391  50.716  1.00  0.00     0.006 C 
HETATM   12  C14 UNL     1      22.724   2.885  50.795  1.00  0.00     0.181 C 
HETATM   13  C15 UNL     1      23.631   3.477  51.862  1.00  0.00     0.063 C 
HETATM   14  C16 UNL     1      24.563   2.856  52.670  1.00  0.00     0.044 C 
HETATM   15  N1  UNL     1      23.292   4.883  51.857  1.00  0.00    -0.245 NA
HETATM   16  C17 UNL     1      22.058   5.232  52.154  1.00  0.00     0.223 C 
HETATM   17  N2  UNL     1      21.116   4.192  51.810  1.00  0.00    -0.291 N 
HETATM   18  N3  UNL     1      21.314   2.895  51.221  1.00  0.00    -0.288 N 
HETATM   19  C18 UNL     1      20.152   2.072  51.246  1.00  0.00     0.113 C 
HETATM   20  C19 UNL     1      19.404   1.058  51.662  1.00  0.00     0.039 C 
HETATM   21  H19 UNL     1      20.118   4.493  52.057  1.00  0.00     0.188 HD
ENDROOT
BRANCH   9  22
HETATM   22  O1  UNL     1      25.189   0.665  51.878  1.00  0.00    -0.372 OA
BRANCH  22  23
HETATM   23  C10 UNL     1      26.518   0.675  52.190  1.00  0.00     0.165 C 
HETATM   24  C11 UNL     1      27.075  -0.679  52.539  1.00  0.00     0.033 C 
ENDBRANCH  22  23
ENDBRANCH   9  22
TORSDOF 2
ENDMDL
MODEL 2
REMARK VINA RESULT:      -7.7      2.336      5.713
REMARK  2 active torsions:
REMARK  status: ('A' for Active; 'I' for Inactive)
REMARK    1  A    between atoms: C9_9  and  O1_10 
REMARK    2  A    between atoms: O1_10  and  C10_11 
ROOT
HETATM    1  C1  UNL     1      27.703   5.107  48.585  1.00  0.00     0.018 C 
HETATM    2  C2  UNL     1      26.874   4.495  49.208  1.00  0.00    -0.078 C 
HETATM    3  C3  UNL     1      25.867   3.775  49.935  1.00  0.00     0.015 C 
HETATM    4  C4  UNL     1      26.450   2.738  50.561  1.00  0.00    -0.001 C 
HETATM    5  C5  UNL     1      26.532   1.520  51.435  1.00  0.00     0.022 C 
HETATM    6  C6  UNL     1      26.005   0.577  52.289  1.00  0.00    -0.001 C 
HETATM    7  C7  UNL     1      24.613   0.755  52.607  1.00  0.00     0.009 C 
HETATM    8  C8  UNL     1      23.531  -0.194  52.198  1.00  0.00     0.047 C 
HETATM    9  C9  UNL     1      22.264   0.621  52.478  1.00  0.00     0.098 C 
HETATM   10  C12 UNL     1      22.693   1.916  51.742  1.00  0.00     0.013 C 
HETATM   11  C13 UNL     1      22.086   3.009  52.196  1.00  0.00     0.006 C 
HETATM   12  C14 UNL     1      21.115   2.881  51.036  1.00  0.00     0.181 C 
HETATM   13  C15 UNL     1      20.694   1.426  50.916  1.00  0.00     0.063 C 
HETATM   14  C16 UNL     1      21.068   0.335  51.677  1.00  0.00     0.044 C 
HETATM   15  N1  UNL     1      19.790   1.423  49.787  1.00  0.00    -0.245 NA
HETATM   16  C17 UNL     1      20.252   1.795  48.612  1.00  0.00     0.223 C 
HETATM   17  N2  UNL     1      21.346   2.730  48.746  1.00  0.00    -0.291 N 
HETATM   18  N3  UNL     1      21.975   3.288  49.911  1.00  0.00    -0.288 N 
HETATM   19  C18 UNL     1      23.172   4.005  49.628  1.00  0.00     0.113 C 
HETATM   20  C19 UNL     1      24.485   4.200  49.617  1.00  0.00     0.039 C 
HETATM   21  H19 UNL     1      21.709   3.023  47.780  1.00  0.00     0.188 HD
ENDROOT
BRANCH   9  22
HETATM   22  O1  UNL     1      22.079   0.951  53.779  1.00  0.00    -0.372 OA
BRANCH  22  23
HETATM   23  C10 UNL     1      21.222   0.158  54.485  1.00  0.00     0.165 C 
HETATM   24  C11 UNL     1      21.814  -1.160  54.906  1.00  0.00     0.033 C 
ENDBRANCH  22  23
ENDBRANCH   9  22
TORSDOF 2
ENDMDL
MODEL 3
REMARK VINA RESULT:      -7.5      2.584      4.438
REMARK  2 active torsions:
REMARK  status: ('A' for Active; 'I' for Inactive)
REMARK    1  A    between atoms: C9_9  and  O1_10 
REMARK    2  A    between atoms: O1_10  and  C10_11 
ROOT
HETATM    1  C1  UNL     1      18.487  -1.239  53.127  1.00  0.00     0.018 C 
HETATM    2  C2  UNL     1      19.363  -0.502  52.755  1.00  0.00    -0.078 C 
HETATM    3  C3  UNL     1      20.424   0.364  52.326  1.00  0.00     0.015 C 
HETATM    4  C4  UNL     1      20.130   0.829  51.100  1.00  0.00    -0.001 C 
HETATM    5  C5  UNL     1      20.321   1.622  49.840  1.00  0.00     0.022 C 
HETATM    6  C6  UNL     1      20.991   2.517  49.036  1.00  0.00    -0.001 C 
HETATM    7  C7  UNL     1      22.177   3.089  49.617  1.00  0.00     0.009 C 
HETATM    8  C8  UNL     1      23.562   2.843  49.111  1.00  0.00     0.047 C 
HETATM    9  C9  UNL     1      24.426   3.382  50.257  1.00  0.00     0.098 C 
HETATM   10  C12 UNL     1      23.711   2.636  51.413  1.00  0.00     0.013 C 
HETATM   11  C13 UNL     1      23.840   3.238  52.592  1.00  0.00     0.006 C 
HETATM   12  C14 UNL     1      24.968   2.269  52.898  1.00  0.00     0.181 C 
HETATM   13  C15 UNL     1      25.862   2.166  51.673  1.00  0.00     0.063 C 
HETATM   14  C16 UNL     1      25.758   2.799  50.451  1.00  0.00     0.044 C 
HETATM   15  N1  UNL     1      26.881   1.220  52.073  1.00  0.00    -0.245 NA
HETATM   16  C17 UNL     1      26.512  -0.003  52.392  1.00  0.00     0.223 C 
HETATM   17  N2  UNL     1      25.163  -0.030  52.910  1.00  0.00    -0.291 N 
HETATM   18  N3  UNL     1      24.209   1.025  53.117  1.00  0.00    -0.288 N 
HETATM   19  C18 UNL     1      22.902   0.560  53.438  1.00  0.00     0.113 C 
HETATM   20  C19 UNL     1      21.618   0.320  53.202  1.00  0.00     0.039 C 
HETATM   21  H19 UNL     1      24.880  -1.032  53.165  1.00  0.00     0.188 HD
ENDROOT
BRANCH   9  22
HETATM   22  O1  UNL     1      24.282   4.707  50.498  1.00  0.00    -0.372 OA
BRANCH  22  23
HETATM   23  C10 UNL     1      25.275   5.515  50.024  1.00  0.00     0.165 C 
HETATM   24  C11 UNL     1      24.935   6.210  48.733  1.00  0.00     0.033 C 
ENDBRANCH  22  23
ENDBRANCH   9  22
TORSDOF 2
ENDMDL
MODEL 4
REMARK VINA RESULT:      -7.3      3.916      7.939
REMARK  2 active torsions:
REMARK  status: ('A' for Active; 'I' for Inactive)
REMARK    1  A    between atoms: C9_9  and  O1_10 
REMARK    2  A    between atoms: O1_10  and  C10_11 
ROOT
HETATM    1  C1  UNL     1      29.798   5.873  47.837  1.00  0.00     0.018 C 
HETATM    2  C2  UNL     1      28.665   5.692  48.203  1.00  0.00    -0.078 C 
HETATM    3  C3  UNL     1      27.324   5.455  48.655  1.00  0.00     0.015 C 
HETATM    4  C4  UNL     1      26.641   6.612  48.598  1.00  0.00    -0.001 C 
HETATM    5  C5  UNL     1      25.459   7.527  48.730  1.00  0.00     0.022 C 
HETATM    6  C6  UNL     1      24.138   7.804  49.003  1.00  0.00    -0.001 C 
HETATM    7  C7  UNL     1      23.339   6.662  49.363  1.00  0.00     0.009 C 
HETATM    8  C8  UNL     1      22.731   6.455  50.714  1.00  0.00     0.047 C 
HETATM    9  C9  UNL     1      22.305   4.984  50.655  1.00  0.00     0.098 C 
HETATM   10  C12 UNL     1      23.651   4.408  50.141  1.00  0.00     0.013 C 
HETATM   11  C13 UNL     1      23.519   3.258  49.487  1.00  0.00     0.006 C 
HETATM   12  C14 UNL     1      23.908   2.549  50.772  1.00  0.00     0.181 C 
HETATM   13  C15 UNL     1      23.151   3.188  51.924  1.00  0.00     0.063 C 
HETATM   14  C16 UNL     1      22.246   4.231  51.913  1.00  0.00     0.044 C 
HETATM   15  N1  UNL     1      23.603   2.449  53.083  1.00  0.00    -0.245 NA
HETATM   16  C17 UNL     1      24.883   2.482  53.388  1.00  0.00     0.223 C 
HETATM   17  N2  UNL     1      25.701   2.691  52.216  1.00  0.00    -0.291 N 
HETATM   18  N3  UNL     1      25.346   2.861  50.833  1.00  0.00    -0.288 N 
HETATM   19  C18 UNL     1      26.433   3.267  50.009  1.00  0.00     0.113 C 
HETATM   20  C19 UNL     1      27.129   4.121  49.267  1.00  0.00     0.039 C 
HETATM   21  H19 UNL     1      26.739   2.715  52.482  1.00  0.00     0.188 HD
ENDROOT
BRANCH   9  22
HETATM   22  O1  UNL     1      21.373   4.702  49.713  1.00  0.00    -0.372 OA
BRANCH  22  23
HETATM   23  C10 UNL     1      20.077   4.680  50.139  1.00  0.00     0.165 C 
HETATM   24  C11 UNL     1      19.147   5.531  49.317  1.00  0.00     0.033 C 
ENDBRANCH  22  23
ENDBRANCH   9  22
TORSDOF 2
ENDMDL
MODEL 5
REMARK VINA RESULT:      -7.1      3.453      7.169
REMARK  2 active torsions:
REMARK  status: ('A' for Active; 'I' for Inactive)
REMARK    1  A    between atoms: C9_9  and  O1_10 
REMARK    2  A    between atoms: O1_10  and  C10_11 
ROOT
HETATM    1  C1  UNL     1      27.396   7.941  47.279  1.00  0.00     0.018 C 
HETATM    2  C2  UNL     1      26.709   7.216  47.952  1.00  0.00    -0.078 C 
HETATM    3  C3  UNL     1      25.911   6.337  48.758  1.00  0.00     0.015 C 
HETATM    4  C4  UNL     1      24.880   7.036  49.264  1.00  0.00    -0.001 C 
HETATM    5  C5  UNL     1      23.621   7.271  50.047  1.00  0.00     0.022 C 
HETATM    6  C6  UNL     1      22.561   6.868  50.828  1.00  0.00    -0.001 C 
HETATM    7  C7  UNL     1      22.518   5.458  51.114  1.00  0.00     0.009 C 
HETATM    8  C8  UNL     1      22.695   4.873  52.478  1.00  0.00     0.047 C 
HETATM    9  C9  UNL     1      22.900   3.386  52.169  1.00  0.00     0.098 C 
HETATM   10  C12 UNL     1      23.992   3.559  51.081  1.00  0.00     0.013 C 
HETATM   11  C13 UNL     1      24.051   2.544  50.223  1.00  0.00     0.006 C 
HETATM   12  C14 UNL     1      25.204   1.993  51.044  1.00  0.00     0.181 C 
HETATM   13  C15 UNL     1      24.842   2.097  52.516  1.00  0.00     0.063 C 
HETATM   14  C16 UNL     1      23.695   2.588  53.109  1.00  0.00     0.044 C 
HETATM   15  N1  UNL     1      26.003   1.560  53.193  1.00  0.00    -0.245 NA
HETATM   16  C17 UNL     1      27.160   2.166  53.029  1.00  0.00     0.223 C 
HETATM   17  N2  UNL     1      27.231   2.837  51.752  1.00  0.00    -0.291 N 
HETATM   18  N3  UNL     1      26.274   2.939  50.683  1.00  0.00    -0.288 N 
HETATM   19  C18 UNL     1      26.637   3.880  49.678  1.00  0.00     0.113 C 
HETATM   20  C19 UNL     1      26.543   5.021  49.007  1.00  0.00     0.039 C 
HETATM   21  H19 UNL     1      28.179   3.324  51.635  1.00  0.00     0.188 HD
ENDROOT
BRANCH   9  22
HETATM   22  O1  UNL     1      21.845   2.781  51.572  1.00  0.00    -0.372 OA
BRANCH  22  23
HETATM   23  C10 UNL     1      21.164   1.875  52.332  1.00  0.00     0.165 C 
HETATM   24  C11 UNL     1      20.998   0.529  51.679  1.00  0.00     0.033 C 
ENDBRANCH  22  23
ENDBRANCH   9  22
TORSDOF 2
ENDMDL
MODEL 6
REMARK VINA RESULT:      -7.1      2.844      6.000
REMARK  2 active torsions:
REMARK  status: ('A' for Active; 'I' for Inactive)
REMARK    1  A    between atoms: C9_9  and  O1_10 
REMARK    2  A    between atoms: O1_10  and  C10_11 
ROOT
HETATM    1  C1  UNL     1      27.260  -0.359  53.802  1.00  0.00     0.018 C 
HETATM    2  C2  UNL     1      26.550   0.234  53.031  1.00  0.00    -0.078 C 
HETATM    3  C3  UNL     1      25.683   0.934  52.127  1.00  0.00     0.015 C 
HETATM    4  C4  UNL     1      26.391   1.896  51.511  1.00  0.00    -0.001 C 
HETATM    5  C5  UNL     1      26.646   3.038  50.570  1.00  0.00     0.022 C 
HETATM    6  C6  UNL     1      26.281   3.931  49.588  1.00  0.00    -0.001 C 
HETATM    7  C7  UNL     1      24.934   3.785  49.101  1.00  0.00     0.009 C 
HETATM    8  C8  UNL     1      23.857   4.804  49.294  1.00  0.00     0.047 C 
HETATM    9  C9  UNL     1      22.598   4.020  48.907  1.00  0.00     0.098 C 
HETATM   10  C12 UNL     1      22.864   2.770  49.785  1.00  0.00     0.013 C 
HETATM   11  C13 UNL     1      22.269   1.669  49.334  1.00  0.00     0.006 C 
HETATM   12  C14 UNL     1      21.162   1.925  50.343  1.00  0.00     0.181 C 
HETATM   13  C15 UNL     1      20.802   3.401  50.300  1.00  0.00     0.063 C 
HETATM   14  C16 UNL     1      21.324   4.414  49.520  1.00  0.00     0.044 C 
HETATM   15  N1  UNL     1      19.760   3.527  51.296  1.00  0.00    -0.245 NA
HETATM   16  C17 UNL     1      20.047   3.229  52.546  1.00  0.00     0.223 C 
HETATM   17  N2  UNL     1      21.102   2.245  52.627  1.00  0.00    -0.291 N 
HETATM   18  N3  UNL     1      21.849   1.574  51.598  1.00  0.00    -0.288 N 
HETATM   19  C18 UNL     1      22.962   0.835  52.089  1.00  0.00     0.113 C 
HETATM   20  C19 UNL     1      24.251   0.589  52.288  1.00  0.00     0.039 C 
HETATM   21  H19 UNL     1      21.322   2.014  53.650  1.00  0.00     0.188 HD
ENDROOT
BRANCH   9  22
HETATM   22  O1  UNL     1      22.568   3.597  47.621  1.00  0.00    -0.372 OA
BRANCH  22  23
HETATM   23  C10 UNL     1      21.897   4.395  46.741  1.00  0.00     0.165 C 
HETATM   24  C11 UNL     1      21.825   3.842  45.343  1.00  0.00     0.033 C 
ENDBRANCH  22  23
ENDBRANCH   9  22
TORSDOF 2
ENDMDL
MODEL 7
REMARK VINA RESULT:      -7.1      2.626      5.573
REMARK  2 active torsions:
REMARK  status: ('A' for Active; 'I' for Inactive)
REMARK    1  A    between atoms: C9_9  and  O1_10 
REMARK    2  A    between atoms: O1_10  and  C10_11 
ROOT
HETATM    1  C1  UNL     1      21.934   7.271  47.720  1.00  0.00     0.018 C 
HETATM    2  C2  UNL     1      22.510   6.494  48.437  1.00  0.00    -0.078 C 
HETATM    3  C3  UNL     1      23.172   5.556  49.298  1.00  0.00     0.015 C 
HETATM    4  C4  UNL     1      24.442   5.412  48.879  1.00  0.00    -0.001 C 
HETATM    5  C5  UNL     1      25.850   4.892  48.888  1.00  0.00     0.022 C 
HETATM    6  C6  UNL     1      26.888   4.154  49.411  1.00  0.00    -0.001 C 
HETATM    7  C7  UNL     1      26.585   3.457  50.634  1.00  0.00     0.009 C 
HETATM    8  C8  UNL     1      26.536   1.968  50.761  1.00  0.00     0.047 C 
HETATM    9  C9  UNL     1      25.854   1.782  52.121  1.00  0.00     0.098 C 
HETATM   10  C12 UNL     1      24.656   2.735  51.874  1.00  0.00     0.013 C 
HETATM   11  C13 UNL     1      24.133   3.228  52.993  1.00  0.00     0.006 C 
HETATM   12  C14 UNL     1      23.068   2.150  52.901  1.00  0.00     0.181 C 
HETATM   13  C15 UNL     1      23.742   0.832  52.554  1.00  0.00     0.063 C 
HETATM   14  C16 UNL     1      25.079   0.556  52.342  1.00  0.00     0.044 C 
HETATM   15  N1  UNL     1      22.644  -0.107  52.484  1.00  0.00    -0.245 NA
HETATM   16  C17 UNL     1      21.700   0.098  51.588  1.00  0.00     0.223 C 
HETATM   17  N2  UNL     1      21.560   1.502  51.278  1.00  0.00    -0.291 N 
HETATM   18  N3  UNL     1      22.262   2.655  51.776  1.00  0.00    -0.288 N 
HETATM   19  C18 UNL     1      21.982   3.850  51.055  1.00  0.00     0.113 C 
HETATM   20  C19 UNL     1      22.257   4.844  50.219  1.00  0.00     0.039 C 
HETATM   21  H19 UNL     1      20.788   1.650  50.550  1.00  0.00     0.188 HD
ENDROOT
BRANCH   9  22
HETATM   22  O1  UNL     1      26.544   2.283  53.173  1.00  0.00    -0.372 OA
BRANCH  22  23
HETATM   23  C10 UNL     1      27.611   1.546  53.599  1.00  0.00     0.165 C 
HETATM   24  C11 UNL     1      28.892   2.328  53.706  1.00  0.00     0.033 C 
ENDBRANCH  22  23
ENDBRANCH   9  22
TORSDOF 2
ENDMDL
MODEL 8
REMARK VINA RESULT:      -7.0      1.924      2.397
REMARK  2 active torsions:
REMARK  status: ('A' for Active; 'I' for Inactive)
REMARK    1  A    between atoms: C9_9  and  O1_10 
REMARK    2  A    between atoms: O1_10  and  C10_11 
ROOT
HETATM    1  C1  UNL     1      17.029  -0.189  50.424  1.00  0.00     0.018 C 
HETATM    2  C2  UNL     1      18.131   0.287  50.512  1.00  0.00    -0.078 C 
HETATM    3  C3  UNL     1      19.436   0.877  50.607  1.00  0.00     0.015 C 
HETATM    4  C4  UNL     1      20.130   0.231  51.560  1.00  0.00    -0.001 C 
HETATM    5  C5  UNL     1      21.308  -0.093  52.432  1.00  0.00     0.022 C 
HETATM    6  C6  UNL     1      22.610   0.063  52.855  1.00  0.00    -0.001 C 
HETATM    7  C7  UNL     1      23.372   1.045  52.130  1.00  0.00     0.009 C 
HETATM    8  C8  UNL     1      23.882   2.319  52.725  1.00  0.00     0.047 C 
HETATM    9  C9  UNL     1      24.298   3.113  51.482  1.00  0.00     0.098 C 
HETATM   10  C12 UNL     1      22.987   2.922  50.676  1.00  0.00     0.013 C 
HETATM   11  C13 UNL     1      23.154   3.025  49.361  1.00  0.00     0.006 C 
HETATM   12  C14 UNL     1      22.671   4.460  49.470  1.00  0.00     0.181 C 
HETATM   13  C15 UNL     1      23.351   5.109  50.665  1.00  0.00     0.063 C 
HETATM   14  C16 UNL     1      24.263   4.579  51.555  1.00  0.00     0.044 C 
HETATM   15  N1  UNL     1      22.813   6.452  50.676  1.00  0.00    -0.245 NA
HETATM   16  C17 UNL     1      21.514   6.606  50.833  1.00  0.00     0.223 C 
HETATM   17  N2  UNL     1      20.782   5.466  50.332  1.00  0.00    -0.291 N 
HETATM   18  N3  UNL     1      21.234   4.248  49.718  1.00  0.00    -0.288 N 
HETATM   19  C18 UNL     1      20.210   3.270  49.565  1.00  0.00     0.113 C 
HETATM   20  C19 UNL     1      19.576   2.137  49.843  1.00  0.00     0.039 C 
HETATM   21  H19 UNL     1      19.728   5.609  50.466  1.00  0.00     0.188 HD
ENDROOT
BRANCH   9  22
HETATM   22  O1  UNL     1      25.291   2.547  50.755  1.00  0.00    -0.372 OA
BRANCH  22  23
HETATM   23  C10 UNL     1      26.468   3.237  50.706  1.00  0.00     0.165 C 
HETATM   24  C11 UNL     1      26.791   3.801  49.349  1.00  0.00     0.033 C 
ENDBRANCH  22  23
ENDBRANCH   9  22
TORSDOF 2
ENDMDL
MODEL 9
REMARK VINA RESULT:      -7.0      3.300      6.846
REMARK  2 active torsions:
REMARK  status: ('A' for Active; 'I' for Inactive)
REMARK    1  A    between atoms: C9_9  and  O1_10 
REMARK    2  A    between atoms: O1_10  and  C10_11 
ROOT
HETATM    1  C1  UNL     1      25.811  10.390  48.590  1.00  0.00     0.018 C 
HETATM    2  C2  UNL     1      25.555   9.298  49.030  1.00  0.00    -0.078 C 
HETATM    3  C3  UNL     1      25.226   8.005  49.559  1.00  0.00     0.015 C 
HETATM    4  C4  UNL     1      26.083   7.103  49.050  1.00  0.00    -0.001 C 
HETATM    5  C5  UNL     1      26.704   5.753  48.840  1.00  0.00     0.022 C 
HETATM    6  C6  UNL     1      26.832   4.403  49.080  1.00  0.00    -0.001 C 
HETATM    7  C7  UNL     1      25.935   3.874  50.074  1.00  0.00     0.009 C 
HETATM    8  C8  UNL     1      24.845   2.893  49.782  1.00  0.00     0.047 C 
HETATM    9  C9  UNL     1      24.015   2.940  51.070  1.00  0.00     0.098 C 
HETATM   10  C12 UNL     1      23.880   4.482  51.163  1.00  0.00     0.013 C 
HETATM   11  C13 UNL     1      23.672   4.922  52.400  1.00  0.00     0.006 C 
HETATM   12  C14 UNL     1      22.192   4.988  52.067  1.00  0.00     0.181 C 
HETATM   13  C15 UNL     1      21.806   3.716  51.332  1.00  0.00     0.063 C 
HETATM   14  C16 UNL     1      22.583   2.630  50.981  1.00  0.00     0.044 C 
HETATM   15  N1  UNL     1      20.396   3.893  51.060  1.00  0.00    -0.245 NA
HETATM   16  C17 UNL     1      20.025   4.908  50.308  1.00  0.00     0.223 C 
HETATM   17  N2  UNL     1      20.954   6.010  50.410  1.00  0.00    -0.291 N 
HETATM   18  N3  UNL     1      22.165   6.158  51.172  1.00  0.00    -0.288 N 
HETATM   19  C18 UNL     1      22.918   7.316  50.829  1.00  0.00     0.113 C 
HETATM   20  C19 UNL     1      23.939   7.973  50.291  1.00  0.00     0.039 C 
HETATM   21  H19 UNL     1      20.636   6.827  49.794  1.00  0.00     0.188 HD
ENDROOT
BRANCH   9  22
HETATM   22  O1  UNL     1      24.673   2.537  52.183  1.00  0.00    -0.372 OA
BRANCH  22  23
HETATM   23  C10 UNL     1      24.720   1.190  52.398  1.00  0.00     0.165 C 
HETATM   24  C11 UNL     1      26.113   0.641  52.547  1.00  0.00     0.033 C 
ENDBRANCH  22  23
ENDBRANCH   9  22
TORSDOF 2
ENDMDL
