MODEL 1
REMARK VINA RESULT:      -9.2      0.000      0.000
REMARK  0 active torsions:
REMARK  status: ('A' for Active; 'I' for Inactive)
ROOT
HETATM    1  C1  UNL     1      28.468   1.938  53.083  1.00  0.00     0.063 C 
HETATM    2  C2  UNL     1      26.987   1.866  53.166  1.00  0.00     0.225 C 
HETATM    3  O1  UNL     1      26.554   0.485  53.374  1.00  0.00    -0.326 OA
HETATM    4  C3  UNL     1      25.206   0.285  53.358  1.00  0.00     0.080 A 
HETATM    5  C4  UNL     1      24.509  -0.440  54.191  1.00  0.00     0.072 A 
HETATM    6  C5  UNL     1      23.124  -0.349  53.566  1.00  0.00     0.258 A 
HETATM    7  C6  UNL     1      21.787  -0.288  53.002  1.00  0.00     0.093 A 
HETATM    8  C7  UNL     1      23.041   0.530  52.367  1.00  0.00     0.096 A 
HETATM    9  C8  UNL     1      24.427   0.953  52.279  1.00  0.00     0.002 A 
HETATM   10  C9  UNL     1      25.188   1.626  51.519  1.00  0.00     0.098 C 
HETATM   11  N1  UNL     1      26.317   2.267  51.962  1.00  0.00    -0.362 N 
HETATM   12  C10 UNL     1      26.573   3.233  50.945  1.00  0.00     0.154 C 
HETATM   13  C11 UNL     1      25.445   4.005  50.375  1.00  0.00     0.289 C 
HETATM   14  N2  UNL     1      24.941   5.088  51.207  1.00  0.00     0.087 N 
HETATM   15  C12 UNL     1      23.621   5.597  50.759  1.00  0.00     0.304 C 
HETATM   16  C13 UNL     1      22.654   4.569  51.162  1.00  0.00     0.180 A 
HETATM   17  O2  UNL     1      21.441   4.937  51.739  1.00  0.00    -0.372 OA
HETATM   18  C14 UNL     1      21.346   4.456  50.425  1.00  0.00     0.171 A 
HETATM   19  C15 UNL     1      21.105   3.029  50.186  1.00  0.00     0.120 A 
HETATM   20  C16 UNL     1      20.864   1.774  50.131  1.00  0.00     0.038 A 
HETATM   21 CL1  UNL     1      20.841   2.977  51.529  1.00  0.00    -0.203 Cl
HETATM   22  C17 UNL     1      20.511   0.233  49.916  1.00  0.00     0.041 A 
HETATM   23  C18 UNL     1      20.713   1.294  49.965  1.00  0.00     0.041 A 
HETATM   24  C19 UNL     1      21.109   0.699  51.111  1.00  0.00     0.030 A 
HETATM   25  P1  UNL     1      21.541   0.052  52.347  1.00  0.00     0.122 P 
HETATM   26  N3  UNL     1      22.263  -1.161  54.633  1.00  0.00     0.064 N 
HETATM   27  C20 UNL     1      21.061  -1.361  54.582  1.00  0.00     0.370 A 
HETATM   28  N4  UNL     1      22.406  -1.066  54.519  1.00  0.00    -0.054 NA
HETATM   29  H12 UNL     1      24.952   4.903  52.212  1.00  0.00     0.316 HD
ENDROOT
TORSDOF 0
ENDMDL
MODEL 2
REMARK VINA RESULT:      -9.2      2.205      3.398
REMARK  0 active torsions:
REMARK  status: ('A' for Active; 'I' for Inactive)
ROOT
HETATM    1  C1  UNL     1      26.711   5.068  48.866  1.00  0.00     0.063 C 
HETATM    2  C2  UNL     1      26.076   4.372  50.013  1.00  0.00     0.225 C 
HETATM    3  O1  UNL     1      26.900   3.244  50.446  1.00  0.00    -0.326 OA
HETATM    4  C3  UNL     1      26.360   2.466  51.425  1.00  0.00     0.080 A 
HETATM    5  C4  UNL     1      26.965   2.006  52.487  1.00  0.00     0.072 A 
HETATM    6  C5  UNL     1      25.873   1.134  53.089  1.00  0.00     0.258 A 
HETATM    7  C6  UNL     1      24.858   0.290  53.696  1.00  0.00     0.093 A 
HETATM    8  C7  UNL     1      24.576   1.171  52.358  1.00  0.00     0.096 A 
HETATM    9  C8  UNL     1      24.928   2.083  51.285  1.00  0.00     0.002 A 
HETATM   10  C9  UNL     1      24.430   2.568  50.224  1.00  0.00     0.098 C 
HETATM   11  N1  UNL     1      24.806   3.780  49.702  1.00  0.00    -0.362 N 
HETATM   12  C10 UNL     1      23.720   4.127  48.846  1.00  0.00     0.154 C 
HETATM   13  C11 UNL     1      22.330   3.906  49.309  1.00  0.00     0.289 C 
HETATM   14  N2  UNL     1      21.824   4.881  50.264  1.00  0.00     0.087 N 
HETATM   15  C12 UNL     1      20.582   4.435  50.945  1.00  0.00     0.304 C 
HETATM   16  C13 UNL     1      21.017   3.418  51.910  1.00  0.00     0.180 A 
HETATM   17  O2  UNL     1      20.496   3.411  53.202  1.00  0.00    -0.372 OA
HETATM   18  C14 UNL     1      20.037   2.375  52.376  1.00  0.00     0.171 A 
HETATM   19  C15 UNL     1      20.737   1.086  52.365  1.00  0.00     0.120 A 
HETATM   20  C16 UNL     1      21.424   0.014  52.480  1.00  0.00     0.038 A 
HETATM   21 CL1  UNL     1      21.391   1.574  53.464  1.00  0.00    -0.203 Cl
HETATM   22  C17 UNL     1      22.159  -1.400  52.566  1.00  0.00     0.041 A 
HETATM   23  C18 UNL     1      21.577  -0.493  52.470  1.00  0.00     0.041 A 
HETATM   24  C19 UNL     1      22.810  -0.201  52.939  1.00  0.00     0.030 A 
HETATM   25  P1  UNL     1      24.145   0.113  53.442  1.00  0.00     0.122 P 
HETATM   26  N3  UNL     1      26.587   0.647  54.428  1.00  0.00     0.064 N 
HETATM   27  C20 UNL     1      26.099  -0.081  55.277  1.00  0.00     0.370 A 
HETATM   28  N4  UNL     1      26.529   0.729  54.248  1.00  0.00    -0.054 NA
HETATM   29  H12 UNL     1      22.513   5.234  50.930  1.00  0.00     0.316 HD
ENDROOT
TORSDOF 0
ENDMDL
MODEL 3
REMARK VINA RESULT:      -9.2      2.408      6.172
REMARK  0 active torsions:
REMARK  status: ('A' for Active; 'I' for Inactive)
ROOT
HETATM    1  C1  UNL     1      19.342  -0.597  53.620  1.00  0.00     0.063 C 
HETATM    2  C2  UNL     1      20.386   0.447  53.463  1.00  0.00     0.225 C 
HETATM    3  O1  UNL     1      19.989   1.417  52.443  1.00  0.00    -0.326 OA
HETATM    4  C3  UNL     1      20.923   2.361  52.139  1.00  0.00     0.080 A 
HETATM    5  C4  UNL     1      20.725   3.643  51.987  1.00  0.00     0.072 A 
HETATM    6  C5  UNL     1      22.107   4.102  51.547  1.00  0.00     0.258 A 
HETATM    7  C6  UNL     1      23.412   4.580  51.124  1.00  0.00     0.093 A 
HETATM    8  C7  UNL     1      23.138   3.027  51.523  1.00  0.00     0.096 A 
HETATM    9  C8  UNL     1      22.326   1.901  51.948  1.00  0.00     0.002 A 
HETATM   10  C9  UNL     1      22.418   0.646  52.108  1.00  0.00     0.098 C 
HETATM   11  N1  UNL     1      21.645  -0.058  52.997  1.00  0.00    -0.362 N 
HETATM   12  C10 UNL     1      22.373  -1.269  53.186  1.00  0.00     0.154 C 
HETATM   13  C11 UNL     1      23.845  -1.215  53.347  1.00  0.00     0.289 C 
HETATM   14  N2  UNL     1      24.318  -0.785  54.654  1.00  0.00     0.087 N 
HETATM   15  C12 UNL     1      25.758  -0.423  54.659  1.00  0.00     0.304 C 
HETATM   16  C13 UNL     1      25.830   0.878  53.983  1.00  0.00     0.180 A 
HETATM   17  O2  UNL     1      26.637   1.890  54.497  1.00  0.00    -0.372 OA
HETATM   18  C14 UNL     1      27.116   1.296  53.321  1.00  0.00     0.171 A 
HETATM   19  C15 UNL     1      26.767   1.871  52.018  1.00  0.00     0.120 A 
HETATM   20  C16 UNL     1      26.408   2.495  50.961  1.00  0.00     0.038 A 
HETATM   21 CL1  UNL     1      26.303   2.930  52.750  1.00  0.00    -0.203 Cl
HETATM   22  C17 UNL     1      26.079   3.205  49.570  1.00  0.00     0.041 A 
HETATM   23  C18 UNL     1      26.383   2.679  50.465  1.00  0.00     0.041 A 
HETATM   24  C19 UNL     1      25.269   3.401  50.714  1.00  0.00     0.030 A 
HETATM   25  P1  UNL     1      24.063   4.180  50.979  1.00  0.00     0.122 P 
HETATM   26  N3  UNL     1      21.881   5.676  51.449  1.00  0.00     0.064 N 
HETATM   27  C20 UNL     1      22.721   6.503  51.138  1.00  0.00     0.370 A 
HETATM   28  N4  UNL     1      21.871   5.471  51.472  1.00  0.00    -0.054 NA
HETATM   29  H12 UNL     1      23.749  -0.069  55.107  1.00  0.00     0.316 HD
ENDROOT
TORSDOF 0
ENDMDL
MODEL 4
REMARK VINA RESULT:      -9.1      2.914      5.307
REMARK  0 active torsions:
REMARK  status: ('A' for Active; 'I' for Inactive)
ROOT
HETATM    1  C1  UNL     1      17.148  -1.227  52.732  1.00  0.00     0.063 C 
HETATM    2  C2  UNL     1      18.534  -0.813  52.400  1.00  0.00     0.225 C 
HETATM    3  O1  UNL     1      19.389  -0.891  53.584  1.00  0.00    -0.326 OA
HETATM    4  C3  UNL     1      20.661  -0.431  53.419  1.00  0.00     0.080 A 
HETATM    5  C4  UNL     1      21.762  -0.996  53.834  1.00  0.00     0.072 A 
HETATM    6  C5  UNL     1      22.792   0.056  53.452  1.00  0.00     0.258 A 
HETATM    7  C6  UNL     1      23.807   1.035  53.102  1.00  0.00     0.093 A 
HETATM    8  C7  UNL     1      22.237   1.231  52.724  1.00  0.00     0.096 A 
HETATM    9  C8  UNL     1      20.834   0.859  52.696  1.00  0.00     0.002 A 
HETATM   10  C9  UNL     1      19.713   1.335  52.339  1.00  0.00     0.098 C 
HETATM   11  N1  UNL     1      18.647   0.553  51.975  1.00  0.00    -0.362 N 
HETATM   12  C10 UNL     1      17.817   1.444  51.233  1.00  0.00     0.154 C 
HETATM   13  C11 UNL     1      18.437   2.373  50.259  1.00  0.00     0.289 C 
HETATM   14  N2  UNL     1      18.843   1.778  48.995  1.00  0.00     0.087 N 
HETATM   15  C12 UNL     1      19.750   2.651  48.208  1.00  0.00     0.304 C 
HETATM   16  C13 UNL     1      21.047   2.574  48.890  1.00  0.00     0.180 A 
HETATM   17  O2  UNL     1      22.220   2.442  48.151  1.00  0.00    -0.372 OA
HETATM   18  C14 UNL     1      22.031   3.702  48.736  1.00  0.00     0.171 A 
HETATM   19  C15 UNL     1      22.585   3.980  50.065  1.00  0.00     0.120 A 
HETATM   20  C16 UNL     1      23.146   4.089  51.209  1.00  0.00     0.038 A 
HETATM   21 CL1  UNL     1      23.260   2.802  49.893  1.00  0.00    -0.203 Cl
HETATM   22  C17 UNL     1      23.842   4.379  52.616  1.00  0.00     0.041 A 
HETATM   23  C18 UNL     1      23.369   4.286  51.647  1.00  0.00     0.041 A 
HETATM   24  C19 UNL     1      23.541   3.063  52.193  1.00  0.00     0.030 A 
HETATM   25  P1  UNL     1      23.726   1.741  52.787  1.00  0.00     0.122 P 
HETATM   26  N3  UNL     1      24.140  -0.678  53.880  1.00  0.00     0.064 N 
HETATM   27  C20 UNL     1      25.269  -0.233  53.759  1.00  0.00     0.370 A 
HETATM   28  N4  UNL     1      23.948  -0.616  53.839  1.00  0.00    -0.054 NA
HETATM   29  H12 UNL     1      19.202   0.824  49.060  1.00  0.00     0.316 HD
ENDROOT
TORSDOF 0
ENDMDL
MODEL 5
REMARK VINA RESULT:      -8.6      9.235     12.451
REMARK  0 active torsions:
REMARK  status: ('A' for Active; 'I' for Inactive)
ROOT
HETATM    1  C1  UNL     1      27.208   6.201  48.589  1.00  0.00     0.063 C 
HETATM    2  C2  UNL     1      28.544   6.281  47.949  1.00  0.00     0.225 C 
HETATM    3  O1  UNL     1      29.331   5.088  48.257  1.00  0.00    -0.326 OA
HETATM    4  C3  UNL     1      30.618   5.103  47.809  1.00  0.00     0.080 A 
HETATM    5  C4  UNL     1      31.254   4.131  47.213  1.00  0.00     0.072 A 
HETATM    6  C5  UNL     1      32.648   4.728  47.088  1.00  0.00     0.258 A 
HETATM    7  C6  UNL     1      33.992   5.263  46.950  1.00  0.00     0.093 A 
HETATM    8  C7  UNL     1      32.768   6.130  47.577  1.00  0.00     0.096 A 
HETATM    9  C8  UNL     1      31.402   6.352  48.017  1.00  0.00     0.002 A 
HETATM   10  C9  UNL     1      30.705   7.232  48.607  1.00  0.00     0.098 C 
HETATM   11  N1  UNL     1      29.352   7.368  48.425  1.00  0.00    -0.362 N 
HETATM   12  C10 UNL     1      29.086   8.696  48.870  1.00  0.00     0.154 C 
HETATM   13  C11 UNL     1      30.010   9.789  48.487  1.00  0.00     0.289 C 
HETATM   14  N2  UNL     1      29.878  10.274  47.121  1.00  0.00     0.087 N 
HETATM   15  C12 UNL     1      31.027  11.108  46.689  1.00  0.00     0.304 C 
HETATM   16  C13 UNL     1      32.126  10.162  46.459  1.00  0.00     0.180 A 
HETATM   17  O2  UNL     1      32.939  10.293  45.337  1.00  0.00    -0.372 OA
HETATM   18  C14 UNL     1      33.548  10.646  46.550  1.00  0.00     0.171 A 
HETATM   19  C15 UNL     1      34.301   9.641  47.308  1.00  0.00     0.120 A 
HETATM   20  C16 UNL     1      34.946   8.674  47.842  1.00  0.00     0.038 A 
HETATM   21 CL1  UNL     1      34.183   8.880  46.176  1.00  0.00    -0.203 Cl
HETATM   22  C17 UNL     1      35.831   7.576  48.589  1.00  0.00     0.041 A 
HETATM   23  C18 UNL     1      35.286   8.393  48.135  1.00  0.00     0.041 A 
HETATM   24  C19 UNL     1      34.805   7.214  47.684  1.00  0.00     0.030 A 
HETATM   25  P1  UNL     1      34.284   5.938  47.200  1.00  0.00     0.122 P 
HETATM   26  N3  UNL     1      33.395   3.574  46.283  1.00  0.00     0.064 N 
HETATM   27  C20 UNL     1      34.560   3.590  45.922  1.00  0.00     0.370 A 
HETATM   28  N4  UNL     1      33.267   3.698  46.385  1.00  0.00    -0.054 NA
HETATM   29  H12 UNL     1      29.650   9.560  46.428  1.00  0.00     0.316 HD
ENDROOT
TORSDOF 0
ENDMDL
MODEL 6
REMARK VINA RESULT:      -8.5      2.156      5.114
REMARK  0 active torsions:
REMARK  status: ('A' for Active; 'I' for Inactive)
ROOT
HETATM    1  C1  UNL     1      21.994  -1.876  54.458  1.00  0.00     0.063 C 
HETATM    2  C2  UNL     1      22.360  -0.923  53.381  1.00  0.00     0.225 C 
HETATM    3  O1  UNL     1      23.581  -0.198  53.732  1.00  0.00    -0.326 OA
HETATM    4  C3  UNL     1      23.951   0.783  52.862  1.00  0.00     0.080 A 
HETATM    5  C4  UNL     1      25.152   1.018  52.407  1.00  0.00     0.072 A 
HETATM    6  C5  UNL     1      24.914   2.286  51.600  1.00  0.00     0.258 A 
HETATM    7  C6  UNL     1      24.729   3.497  50.819  1.00  0.00     0.093 A 
HETATM    8  C7  UNL     1      23.495   2.732  51.550  1.00  0.00     0.096 A 
HETATM    9  C8  UNL     1      22.886   1.699  52.369  1.00  0.00     0.002 A 
HETATM   10  C9  UNL     1      21.760   1.397  52.869  1.00  0.00     0.098 C 
HETATM   11  N1  UNL     1      21.388   0.110  53.164  1.00  0.00    -0.362 N 
HETATM   12  C10 UNL     1      19.966   0.182  53.240  1.00  0.00     0.154 C 
HETATM   13  C11 UNL     1      19.223   0.966  52.227  1.00  0.00     0.289 C 
HETATM   14  N2  UNL     1      19.072   0.328  50.927  1.00  0.00     0.087 N 
HETATM   15  C12 UNL     1      18.633   1.270  49.867  1.00  0.00     0.304 C 
HETATM   16  C13 UNL     1      19.818   2.078  49.555  1.00  0.00     0.180 A 
HETATM   17  O2  UNL     1      20.143   2.363  48.232  1.00  0.00    -0.372 OA
HETATM   18  C14 UNL     1      19.642   3.450  48.962  1.00  0.00     0.171 A 
HETATM   19  C15 UNL     1      20.567   4.348  49.662  1.00  0.00     0.120 A 
HETATM   20  C16 UNL     1      21.487   5.060  50.193  1.00  0.00     0.038 A 
HETATM   21 CL1  UNL     1      21.539   3.699  48.948  1.00  0.00    -0.203 Cl
HETATM   22  C17 UNL     1      22.532   6.063  50.863  1.00  0.00     0.041 A 
HETATM   23  C18 UNL     1      21.754   5.461  50.412  1.00  0.00     0.041 A 
HETATM   24  C19 UNL     1      22.877   4.725  50.558  1.00  0.00     0.030 A 
HETATM   25  P1  UNL     1      24.092   3.931  50.722  1.00  0.00     0.122 P 
HETATM   26  N3  UNL     1      26.363   2.517  50.977  1.00  0.00     0.064 N 
HETATM   27  C20 UNL     1      26.684   3.424  50.227  1.00  0.00     0.370 A 
HETATM   28  N4  UNL     1      26.193   2.456  51.076  1.00  0.00    -0.054 NA
HETATM   29  H12 UNL     1      19.868  -0.234  50.625  1.00  0.00     0.316 HD
ENDROOT
TORSDOF 0
ENDMDL
MODEL 7
REMARK VINA RESULT:      -8.5      2.083      5.155
REMARK  0 active torsions:
REMARK  status: ('A' for Active; 'I' for Inactive)
ROOT
HETATM    1  C1  UNL     1      26.117  -0.933  53.625  1.00  0.00     0.063 C 
HETATM    2  C2  UNL     1      25.595   0.045  52.638  1.00  0.00     0.225 C 
HETATM    3  O1  UNL     1      26.480   1.206  52.552  1.00  0.00    -0.326 OA
HETATM    4  C3  UNL     1      26.042   2.220  51.754  1.00  0.00     0.080 A 
HETATM    5  C4  UNL     1      26.742   2.893  50.882  1.00  0.00     0.072 A 
HETATM    6  C5  UNL     1      25.726   3.932  50.432  1.00  0.00     0.258 A 
HETATM    7  C6  UNL     1      24.786   4.941  49.976  1.00  0.00     0.093 A 
HETATM    8  C7  UNL     1      24.374   3.779  51.036  1.00  0.00     0.096 A 
HETATM    9  C8  UNL     1      24.613   2.621  51.879  1.00  0.00     0.002 A 
HETATM   10  C9  UNL     1      24.019   1.919  52.752  1.00  0.00     0.098 C 
HETATM   11  N1  UNL     1      24.320   0.602  52.990  1.00  0.00    -0.362 N 
HETATM   12  C10 UNL     1      23.159   0.109  53.656  1.00  0.00     0.154 C 
HETATM   13  C11 UNL     1      21.818   0.496  53.161  1.00  0.00     0.289 C 
HETATM   14  N2  UNL     1      21.366  -0.198  51.964  1.00  0.00     0.087 N 
HETATM   15  C12 UNL     1      20.195   0.454  51.324  1.00  0.00     0.304 C 
HETATM   16  C13 UNL     1      20.733   1.652  50.668  1.00  0.00     0.180 A 
HETATM   17  O2  UNL     1      20.318   1.992  49.382  1.00  0.00    -0.372 OA
HETATM   18  C14 UNL     1      19.821   2.819  50.399  1.00  0.00     0.171 A 
HETATM   19  C15 UNL     1      20.551   4.035  50.773  1.00  0.00     0.120 A 
HETATM   20  C16 UNL     1      21.273   5.072  50.971  1.00  0.00     0.038 A 
HETATM   21 CL1  UNL     1      21.279   3.796  49.639  1.00  0.00    -0.203 Cl
HETATM   22  C17 UNL     1      22.049   6.431  51.284  1.00  0.00     0.041 A 
HETATM   23  C18 UNL     1      21.438   5.554  51.114  1.00  0.00     0.041 A 
HETATM   24  C19 UNL     1      22.697   5.328  50.679  1.00  0.00     0.030 A 
HETATM   25  P1  UNL     1      24.059   5.084  50.213  1.00  0.00     0.122 P 
HETATM   26  N3  UNL     1      26.559   4.694  49.306  1.00  0.00     0.064 N 
HETATM   27  C20 UNL     1      26.160   5.624  48.626  1.00  0.00     0.370 A 
HETATM   28  N4  UNL     1      26.485   4.574  49.457  1.00  0.00    -0.054 NA
HETATM   29  H12 UNL     1      22.097  -0.411  51.284  1.00  0.00     0.316 HD
ENDROOT
TORSDOF 0
ENDMDL
MODEL 8
REMARK VINA RESULT:      -8.2      2.596      4.221
REMARK  0 active torsions:
REMARK  status: ('A' for Active; 'I' for Inactive)
ROOT
HETATM    1  C1  UNL     1      22.794  -1.897  55.610  1.00  0.00     0.063 C 
HETATM    2  C2  UNL     1      22.337  -0.819  54.698  1.00  0.00     0.225 C 
HETATM    3  O1  UNL     1      21.102  -1.213  54.020  1.00  0.00    -0.326 OA
HETATM    4  C3  UNL     1      20.649  -0.341  53.076  1.00  0.00     0.080 A 
HETATM    5  C4  UNL     1      19.419   0.063  52.904  1.00  0.00     0.072 A 
HETATM    6  C5  UNL     1      19.562   0.904  51.644  1.00  0.00     0.258 A 
HETATM    7  C6  UNL     1      19.657   1.716  50.443  1.00  0.00     0.093 A 
HETATM    8  C7  UNL     1      20.957   1.028  51.137  1.00  0.00     0.096 A 
HETATM    9  C8  UNL     1      21.649   0.218  52.124  1.00  0.00     0.002 A 
HETATM   10  C9  UNL     1      22.808  -0.235  52.364  1.00  0.00     0.098 C 
HETATM   11  N1  UNL     1      23.250  -0.538  53.627  1.00  0.00    -0.362 N 
HETATM   12  C10 UNL     1      24.670  -0.547  53.491  1.00  0.00     0.154 C 
HETATM   13  C11 UNL     1      25.330   0.514  52.697  1.00  0.00     0.289 C 
HETATM   14  N2  UNL     1      25.451   1.807  53.355  1.00  0.00     0.087 N 
HETATM   15  C12 UNL     1      25.799   2.904  52.418  1.00  0.00     0.304 C 
HETATM   16  C13 UNL     1      24.565   3.177  51.670  1.00  0.00     0.180 A 
HETATM   17  O2  UNL     1      24.168   4.489  51.428  1.00  0.00    -0.372 OA
HETATM   18  C14 UNL     1      24.652   3.805  50.305  1.00  0.00     0.171 A 
HETATM   19  C15 UNL     1      23.720   3.080  49.434  1.00  0.00     0.120 A 
HETATM   20  C16 UNL     1      22.794   2.521  48.752  1.00  0.00     0.038 A 
HETATM   21 CL1  UNL     1      22.748   3.736  50.140  1.00  0.00    -0.203 Cl
HETATM   22  C17 UNL     1      21.736   1.823  47.782  1.00  0.00     0.041 A 
HETATM   23  C18 UNL     1      22.519   2.298  48.358  1.00  0.00     0.041 A 
HETATM   24  C19 UNL     1      21.438   2.086  49.140  1.00  0.00     0.030 A 
HETATM   25  P1  UNL     1      20.270   1.851  49.984  1.00  0.00     0.122 P 
HETATM   26  N3  UNL     1      18.078   1.464  51.490  1.00  0.00     0.064 N 
HETATM   27  C20 UNL     1      17.683   2.215  50.615  1.00  0.00     0.370 A 
HETATM   28  N4  UNL     1      18.255   1.372  51.542  1.00  0.00    -0.054 NA
HETATM   29  H12 UNL     1      24.668   2.062  53.959  1.00  0.00     0.316 HD
ENDROOT
TORSDOF 0
ENDMDL
MODEL 9
REMARK VINA RESULT:      -8.0      2.305      3.241
REMARK  0 active torsions:
REMARK  status: ('A' for Active; 'I' for Inactive)
ROOT
HETATM    1  C1  UNL     1      25.029  -0.288  53.776  1.00  0.00     0.063 C 
HETATM    2  C2  UNL     1      23.808   0.420  53.316  1.00  0.00     0.225 C 
HETATM    3  O1  UNL     1      22.805  -0.539  52.855  1.00  0.00    -0.326 OA
HETATM    4  C3  UNL     1      21.682   0.005  52.309  1.00  0.00     0.080 A 
HETATM    5  C4  UNL     1      20.446  -0.350  52.535  1.00  0.00     0.072 A 
HETATM    6  C5  UNL     1      19.702   0.541  51.550  1.00  0.00     0.258 A 
HETATM    7  C6  UNL     1      18.956   1.374  50.624  1.00  0.00     0.093 A 
HETATM    8  C7  UNL     1      20.569   1.486  50.794  1.00  0.00     0.096 A 
HETATM    9  C8  UNL     1      21.863   1.124  51.343  1.00  0.00     0.002 A 
HETATM   10  C9  UNL     1      23.093   1.392  51.183  1.00  0.00     0.098 C 
HETATM   11  N1  UNL     1      24.024   1.274  52.184  1.00  0.00    -0.362 N 
HETATM   12  C10 UNL     1      25.103   2.089  51.733  1.00  0.00     0.154 C 
HETATM   13  C11 UNL     1      24.813   3.409  51.127  1.00  0.00     0.289 C 
HETATM   14  N2  UNL     1      24.470   4.469  52.064  1.00  0.00     0.087 N 
HETATM   15  C12 UNL     1      23.866   5.653  51.404  1.00  0.00     0.304 C 
HETATM   16  C13 UNL     1      22.499   5.245  51.056  1.00  0.00     0.180 A 
HETATM   17  O2  UNL     1      21.432   6.113  51.274  1.00  0.00    -0.372 OA
HETATM   18  C14 UNL     1      21.785   5.940  49.928  1.00  0.00     0.171 A 
HETATM   19  C15 UNL     1      21.125   4.902  49.128  1.00  0.00     0.120 A 
HETATM   20  C16 UNL     1      20.449   3.984  48.549  1.00  0.00     0.038 A 
HETATM   21 CL1  UNL     1      20.261   4.813  50.186  1.00  0.00    -0.203 Cl
HETATM   22  C17 UNL     1      19.643   2.906  47.691  1.00  0.00     0.041 A 
HETATM   23  C18 UNL     1      20.213   3.684  48.182  1.00  0.00     0.041 A 
HETATM   24  C19 UNL     1      19.732   2.818  49.101  1.00  0.00     0.030 A 
HETATM   25  P1  UNL     1      19.215   1.878  50.092  1.00  0.00     0.122 P 
HETATM   26  N3  UNL     1      18.192   0.166  51.893  1.00  0.00     0.064 N 
HETATM   27  C20 UNL     1      17.199   0.639  51.366  1.00  0.00     0.370 A 
HETATM   28  N4  UNL     1      18.396   0.187  51.877  1.00  0.00    -0.054 NA
HETATM   29  H12 UNL     1      23.926   4.171  52.875  1.00  0.00     0.316 HD
ENDROOT
TORSDOF 0
ENDMDL
