MODEL 1
REMARK VINA RESULT:      -9.8      0.000      0.000
REMARK  4 active torsions:
REMARK  status: ('A' for Active; 'I' for Inactive)
REMARK    1  A    between atoms: O1_1  and  C1_2 
REMARK    2  A    between atoms: C12_16  and  N4_17 
REMARK    3  A    between atoms: N4_17  and  C13_18 
REMARK    4  A    between atoms: C17_22  and  C18_23 
ROOT
HETATM    1  C1  UNL     1      25.762   2.155  51.948  1.00  0.00     0.159 C 
HETATM    2  C2  UNL     1      26.090   0.686  51.944  1.00  0.00     0.041 C 
HETATM    3  C3  UNL     1      25.695  -0.019  53.219  1.00  0.00     0.043 C 
HETATM    4  C4  UNL     1      24.266  -0.033  53.527  1.00  0.00    -0.031 A 
HETATM    5  C5  UNL     1      24.299  -0.935  54.598  1.00  0.00     0.009 A 
HETATM    6  C6  UNL     1      23.168  -1.328  55.302  1.00  0.00     0.001 A 
HETATM    7  C7  UNL     1      21.954  -0.807  54.929  1.00  0.00     0.002 A 
HETATM    8  C8  UNL     1      21.838   0.086  53.885  1.00  0.00     0.030 A 
HETATM    9  C9  UNL     1      22.980   0.432  53.237  1.00  0.00     0.040 A 
HETATM   10  N1  UNL     1      22.551   1.356  52.213  1.00  0.00    -0.340 N 
HETATM   11  C10 UNL     1      23.273   2.047  51.163  1.00  0.00     0.142 A 
HETATM   12  N2  UNL     1      22.371   2.345  50.216  1.00  0.00    -0.224 NA
HETATM   13  C11 UNL     1      22.738   2.968  49.086  1.00  0.00     0.237 A 
HETATM   14  N3  UNL     1      24.039   3.274  48.950  1.00  0.00    -0.224 NA
HETATM   15  C12 UNL     1      24.950   2.982  49.887  1.00  0.00     0.142 A 
HETATM   16  C20 UNL     1      24.638   2.359  51.045  1.00  0.00     0.062 A 
HETATM   17  H11 UNL     1      21.533   1.583  52.204  1.00  0.00     0.167 HD
ENDROOT
BRANCH  15  18
HETATM   18  N4  UNL     1      26.298   3.310  49.638  1.00  0.00    -0.340 N 
HETATM   19  H13 UNL     1      27.293   3.041  49.628  1.00  0.00     0.167 HD
BRANCH  18  20
HETATM   20  C13 UNL     1      26.549   4.614  49.127  1.00  0.00     0.034 A 
HETATM   21  C14 UNL     1      25.681   5.705  48.999  1.00  0.00     0.029 A 
HETATM   22  C15 UNL     1      26.059   6.927  48.497  1.00  0.00     0.003 A 
HETATM   23  C16 UNL     1      27.373   7.057  48.106  1.00  0.00     0.016 A 
HETATM   24  C17 UNL     1      28.284   6.027  48.204  1.00  0.00     0.050 A 
HETATM   25  C19 UNL     1      27.871   4.815  48.711  1.00  0.00     0.045 A 
BRANCH  24  26
HETATM   26  C18 UNL     1      29.648   6.371  47.729  1.00  0.00     0.417 C 
HETATM   27  F1  UNL     1      29.545   7.180  46.626  1.00  0.00    -0.166 F 
HETATM   28  F2  UNL     1      30.234   7.122  48.749  1.00  0.00    -0.166 F 
HETATM   29  F3  UNL     1      30.437   5.260  47.533  1.00  0.00    -0.166 F 
ENDBRANCH  24  26
ENDBRANCH  18  20
ENDBRANCH  15  18
BRANCH   1  30
HETATM   30  O1  UNL     1      26.789   3.026  51.938  1.00  0.00    -0.391 OA
HETATM   31  H1  UNL     1      27.261   3.184  52.785  1.00  0.00     0.210 HD
ENDBRANCH   1  30
TORSDOF 4
ENDMDL
MODEL 2
REMARK VINA RESULT:      -9.6      4.654      8.324
REMARK  4 active torsions:
REMARK  status: ('A' for Active; 'I' for Inactive)
REMARK    1  A    between atoms: O1_1  and  C1_2 
REMARK    2  A    between atoms: C12_16  and  N4_17 
REMARK    3  A    between atoms: N4_17  and  C13_18 
REMARK    4  A    between atoms: C17_22  and  C18_23 
ROOT
HETATM    1  C1  UNL     1      24.792   3.499  49.386  1.00  0.00     0.159 C 
HETATM    2  C2  UNL     1      26.257   3.336  49.691  1.00  0.00     0.041 C 
HETATM    3  C3  UNL     1      27.145   4.214  48.843  1.00  0.00     0.043 C 
HETATM    4  C4  UNL     1      26.964   5.656  49.003  1.00  0.00    -0.031 A 
HETATM    5  C5  UNL     1      28.074   6.083  48.263  1.00  0.00     0.009 A 
HETATM    6  C6  UNL     1      28.399   7.420  48.077  1.00  0.00     0.001 A 
HETATM    7  C7  UNL     1      27.593   8.374  48.646  1.00  0.00     0.002 A 
HETATM    8  C8  UNL     1      26.482   8.034  49.390  1.00  0.00     0.030 A 
HETATM    9  C9  UNL     1      26.217   6.711  49.536  1.00  0.00     0.040 A 
HETATM   10  N1  UNL     1      25.023   6.668  50.348  1.00  0.00    -0.340 N 
HETATM   11  C10 UNL     1      24.260   5.563  50.895  1.00  0.00     0.142 A 
HETATM   12  N2  UNL     1      23.595   6.051  51.953  1.00  0.00    -0.224 NA
HETATM   13  C11 UNL     1      22.812   5.258  52.701  1.00  0.00     0.237 A 
HETATM   14  N3  UNL     1      22.729   3.965  52.342  1.00  0.00    -0.224 NA
HETATM   15  C12 UNL     1      23.387   3.466  51.288  1.00  0.00     0.142 A 
HETATM   16  C20 UNL     1      24.186   4.217  50.499  1.00  0.00     0.062 A 
HETATM   17  H11 UNL     1      24.616   7.592  50.606  1.00  0.00     0.167 HD
ENDROOT
BRANCH  15  18
HETATM   18  N4  UNL     1      23.266   2.089  51.012  1.00  0.00    -0.340 N 
HETATM   19  H13 UNL     1      22.963   1.330  50.384  1.00  0.00     0.167 HD
BRANCH  18  20
HETATM   20  C13 UNL     1      23.806   1.199  51.982  1.00  0.00     0.034 A 
HETATM   21  C14 UNL     1      25.143   0.897  52.270  1.00  0.00     0.029 A 
HETATM   22  C15 UNL     1      25.532   0.020  53.254  1.00  0.00     0.003 A 
HETATM   23  C16 UNL     1      24.529  -0.581  53.982  1.00  0.00     0.016 A 
HETATM   24  C17 UNL     1      23.193  -0.331  53.753  1.00  0.00     0.050 A 
HETATM   25  C19 UNL     1      22.838   0.553  52.759  1.00  0.00     0.045 A 
BRANCH  24  26
HETATM   26  C18 UNL     1      22.271  -1.079  54.646  1.00  0.00     0.417 C 
HETATM   27  F1  UNL     1      22.993  -1.618  55.680  1.00  0.00    -0.166 F 
HETATM   28  F2  UNL     1      21.403  -0.131  55.188  1.00  0.00    -0.166 F 
HETATM   29  F3  UNL     1      21.502  -1.997  53.966  1.00  0.00    -0.166 F 
ENDBRANCH  24  26
ENDBRANCH  18  20
ENDBRANCH  15  18
BRANCH   1  30
HETATM   30  O1  UNL     1      24.145   2.449  48.843  1.00  0.00    -0.391 OA
HETATM   31  H1  UNL     1      23.925   1.695  49.433  1.00  0.00     0.210 HD
ENDBRANCH   1  30
TORSDOF 4
ENDMDL
MODEL 3
REMARK VINA RESULT:      -9.5      1.633      2.671
REMARK  4 active torsions:
REMARK  status: ('A' for Active; 'I' for Inactive)
REMARK    1  A    between atoms: O1_1  and  C1_2 
REMARK    2  A    between atoms: C12_16  and  N4_17 
REMARK    3  A    between atoms: N4_17  and  C13_18 
REMARK    4  A    between atoms: C17_22  and  C18_23 
ROOT
HETATM    1  C1  UNL     1      23.323   2.178  50.479  1.00  0.00     0.159 C 
HETATM    2  C2  UNL     1      22.399   2.902  51.422  1.00  0.00     0.041 C 
HETATM    3  C3  UNL     1      21.394   1.995  52.088  1.00  0.00     0.043 C 
HETATM    4  C4  UNL     1      21.943   0.952  52.951  1.00  0.00    -0.031 A 
HETATM    5  C5  UNL     1      20.744   0.512  53.526  1.00  0.00     0.009 A 
HETATM    6  C6  UNL     1      20.676  -0.513  54.462  1.00  0.00     0.001 A 
HETATM    7  C7  UNL     1      21.843  -1.127  54.843  1.00  0.00     0.002 A 
HETATM    8  C8  UNL     1      23.064  -0.751  54.324  1.00  0.00     0.030 A 
HETATM    9  C9  UNL     1      23.065   0.256  53.414  1.00  0.00     0.040 A 
HETATM   10  N1  UNL     1      24.456   0.425  53.061  1.00  0.00    -0.340 N 
HETATM   11  C10 UNL     1      25.128   1.361  52.181  1.00  0.00     0.142 A 
HETATM   12  N2  UNL     1      26.400   1.428  52.602  1.00  0.00    -0.224 NA
HETATM   13  C11 UNL     1      27.282   2.242  52.003  1.00  0.00     0.237 A 
HETATM   14  N3  UNL     1      26.833   2.980  50.973  1.00  0.00    -0.224 NA
HETATM   15  C12 UNL     1      25.567   2.923  50.544  1.00  0.00     0.142 A 
HETATM   16  C20 UNL     1      24.636   2.120  51.106  1.00  0.00     0.062 A 
HETATM   17  H11 UNL     1      25.122  -0.236  53.514  1.00  0.00     0.167 HD
ENDROOT
BRANCH  15  18
HETATM   18  N4  UNL     1      25.180   3.763  49.479  1.00  0.00    -0.340 N 
HETATM   19  H13 UNL     1      24.656   3.906  48.603  1.00  0.00     0.167 HD
BRANCH  18  20
HETATM   20  C13 UNL     1      25.658   5.102  49.523  1.00  0.00     0.034 A 
HETATM   21  C14 UNL     1      25.193   6.192  50.269  1.00  0.00     0.029 A 
HETATM   22  C15 UNL     1      25.762   7.443  50.230  1.00  0.00     0.003 A 
HETATM   23  C16 UNL     1      26.850   7.602  49.401  1.00  0.00     0.016 A 
HETATM   24  C17 UNL     1      27.362   6.575  48.638  1.00  0.00     0.050 A 
HETATM   25  C19 UNL     1      26.767   5.334  48.702  1.00  0.00     0.045 A 
BRANCH  24  26
HETATM   26  C18 UNL     1      28.538   6.954  47.813  1.00  0.00     0.417 C 
HETATM   27  F1  UNL     1      28.101   7.630  46.702  1.00  0.00    -0.166 F 
HETATM   28  F2  UNL     1      29.280   7.848  48.585  1.00  0.00    -0.166 F 
HETATM   29  F3  UNL     1      29.353   5.882  47.528  1.00  0.00    -0.166 F 
ENDBRANCH  24  26
ENDBRANCH  18  20
ENDBRANCH  15  18
BRANCH   1  30
HETATM   30  O1  UNL     1      23.226   2.462  49.166  1.00  0.00    -0.391 OA
HETATM   31  H1  UNL     1      24.005   2.270  48.600  1.00  0.00     0.210 HD
ENDBRANCH   1  30
TORSDOF 4
ENDMDL
MODEL 4
REMARK VINA RESULT:      -9.5      2.234      2.796
REMARK  4 active torsions:
REMARK  status: ('A' for Active; 'I' for Inactive)
REMARK    1  A    between atoms: O1_1  and  C1_2 
REMARK    2  A    between atoms: C12_16  and  N4_17 
REMARK    3  A    between atoms: N4_17  and  C13_18 
REMARK    4  A    between atoms: C17_22  and  C18_23 
ROOT
HETATM    1  C1  UNL     1      24.713   2.278  52.206  1.00  0.00     0.159 C 
HETATM    2  C2  UNL     1      25.148   0.842  52.326  1.00  0.00     0.041 C 
HETATM    3  C3  UNL     1      24.423   0.087  53.413  1.00  0.00     0.043 C 
HETATM    4  C4  UNL     1      22.978  -0.053  53.244  1.00  0.00    -0.031 A 
HETATM    5  C5  UNL     1      22.740  -0.965  54.279  1.00  0.00     0.009 A 
HETATM    6  C6  UNL     1      21.479  -1.463  54.583  1.00  0.00     0.001 A 
HETATM    7  C7  UNL     1      20.411  -1.039  53.833  1.00  0.00     0.002 A 
HETATM    8  C8  UNL     1      20.563  -0.143  52.796  1.00  0.00     0.030 A 
HETATM    9  C9  UNL     1      21.820   0.308  52.547  1.00  0.00     0.040 A 
HETATM   10  N1  UNL     1      21.668   1.209  51.429  1.00  0.00    -0.340 N 
HETATM   11  C10 UNL     1      22.630   1.974  50.661  1.00  0.00     0.142 A 
HETATM   12  N2  UNL     1      22.060   2.211  49.470  1.00  0.00    -0.224 NA
HETATM   13  C11 UNL     1      22.718   2.881  48.511  1.00  0.00     0.237 A 
HETATM   14  N3  UNL     1      23.962   3.297  48.799  1.00  0.00    -0.224 NA
HETATM   15  C12 UNL     1      24.543   3.067  49.983  1.00  0.00     0.142 A 
HETATM   16  C20 UNL     1      23.928   2.402  50.986  1.00  0.00     0.062 A 
HETATM   17  H11 UNL     1      20.692   1.350  51.090  1.00  0.00     0.167 HD
ENDROOT
BRANCH  15  18
HETATM   18  N4  UNL     1      25.867   3.511  50.180  1.00  0.00    -0.340 N 
HETATM   19  H13 UNL     1      26.814   3.349  50.551  1.00  0.00     0.167 HD
BRANCH  18  20
HETATM   20  C13 UNL     1      26.199   4.778  49.624  1.00  0.00     0.034 A 
HETATM   21  C14 UNL     1      27.172   5.110  48.675  1.00  0.00     0.029 A 
HETATM   22  C15 UNL     1      27.381   6.386  48.208  1.00  0.00     0.003 A 
HETATM   23  C16 UNL     1      26.571   7.373  48.722  1.00  0.00     0.016 A 
HETATM   24  C17 UNL     1      25.592   7.121  49.658  1.00  0.00     0.050 A 
HETATM   25  C19 UNL     1      25.410   5.831  50.104  1.00  0.00     0.045 A 
BRANCH  24  26
HETATM   26  C18 UNL     1      24.828   8.322  50.083  1.00  0.00     0.417 C 
HETATM   27  F1  UNL     1      24.105   8.015  51.206  1.00  0.00    -0.166 F 
HETATM   28  F2  UNL     1      25.779   9.278  50.442  1.00  0.00    -0.166 F 
HETATM   29  F3  UNL     1      24.074   8.858  49.063  1.00  0.00    -0.166 F 
ENDBRANCH  24  26
ENDBRANCH  18  20
ENDBRANCH  15  18
BRANCH   1  30
HETATM   30  O1  UNL     1      25.612   3.232  52.517  1.00  0.00    -0.391 OA
HETATM   31  H1  UNL     1      25.564   4.081  52.025  1.00  0.00     0.210 HD
ENDBRANCH   1  30
TORSDOF 4
ENDMDL
MODEL 5
REMARK VINA RESULT:      -9.4      1.920      2.565
REMARK  4 active torsions:
REMARK  status: ('A' for Active; 'I' for Inactive)
REMARK    1  A    between atoms: O1_1  and  C1_2 
REMARK    2  A    between atoms: C12_16  and  N4_17 
REMARK    3  A    between atoms: N4_17  and  C13_18 
REMARK    4  A    between atoms: C17_22  and  C18_23 
ROOT
HETATM    1  C1  UNL     1      23.489   3.584  52.809  1.00  0.00     0.159 C 
HETATM    2  C2  UNL     1      24.211   2.283  52.579  1.00  0.00     0.041 C 
HETATM    3  C3  UNL     1      23.696   1.154  53.438  1.00  0.00     0.043 C 
HETATM    4  C4  UNL     1      22.304   0.765  53.221  1.00  0.00    -0.031 A 
HETATM    5  C5  UNL     1      22.295  -0.400  53.997  1.00  0.00     0.009 A 
HETATM    6  C6  UNL     1      21.174  -1.205  54.154  1.00  0.00     0.001 A 
HETATM    7  C7  UNL     1      20.015  -0.842  53.516  1.00  0.00     0.002 A 
HETATM    8  C8  UNL     1      19.942   0.291  52.733  1.00  0.00     0.030 A 
HETATM    9  C9  UNL     1      21.071   1.037  52.619  1.00  0.00     0.040 A 
HETATM   10  N1  UNL     1      20.697   2.132  51.754  1.00  0.00    -0.340 N 
HETATM   11  C10 UNL     1      21.454   3.242  51.210  1.00  0.00     0.142 A 
HETATM   12  N2  UNL     1      20.802   3.638  50.106  1.00  0.00    -0.224 NA
HETATM   13  C11 UNL     1      21.274   4.641  49.349  1.00  0.00     0.237 A 
HETATM   14  N3  UNL     1      22.418   5.221  49.747  1.00  0.00    -0.224 NA
HETATM   15  C12 UNL     1      23.078   4.836  50.846  1.00  0.00     0.142 A 
HETATM   16  C20 UNL     1      22.650   3.835  51.646  1.00  0.00     0.062 A 
HETATM   17  H11 UNL     1      19.701   2.147  51.447  1.00  0.00     0.167 HD
ENDROOT
BRANCH  15  18
HETATM   18  N4  UNL     1      24.291   5.482  51.162  1.00  0.00    -0.340 N 
HETATM   19  H13 UNL     1      24.836   6.099  51.782  1.00  0.00     0.167 HD
BRANCH  18  20
HETATM   20  C13 UNL     1      25.390   5.225  50.296  1.00  0.00     0.034 A 
HETATM   21  C14 UNL     1      26.017   4.012  49.985  1.00  0.00     0.029 A 
HETATM   22  C15 UNL     1      27.071   3.900  49.110  1.00  0.00     0.003 A 
HETATM   23  C16 UNL     1      27.513   5.063  48.520  1.00  0.00     0.016 A 
HETATM   24  C17 UNL     1      26.944   6.292  48.778  1.00  0.00     0.050 A 
HETATM   25  C19 UNL     1      25.890   6.368  49.661  1.00  0.00     0.045 A 
BRANCH  24  26
HETATM   26  C18 UNL     1      27.568   7.420  48.041  1.00  0.00     0.417 C 
HETATM   27  F1  UNL     1      28.274   8.194  48.927  1.00  0.00    -0.166 F 
HETATM   28  F2  UNL     1      28.485   6.847  47.160  1.00  0.00    -0.166 F 
HETATM   29  F3  UNL     1      26.659   8.126  47.286  1.00  0.00    -0.166 F 
ENDBRANCH  24  26
ENDBRANCH  18  20
ENDBRANCH  15  18
BRANCH   1  30
HETATM   30  O1  UNL     1      24.187   4.598  53.357  1.00  0.00    -0.391 OA
HETATM   31  H1  UNL     1      23.682   5.291  53.837  1.00  0.00     0.210 HD
ENDBRANCH   1  30
TORSDOF 4
ENDMDL
MODEL 6
REMARK VINA RESULT:      -9.3      3.652      7.586
REMARK  4 active torsions:
REMARK  status: ('A' for Active; 'I' for Inactive)
REMARK    1  A    between atoms: O1_1  and  C1_2 
REMARK    2  A    between atoms: C12_16  and  N4_17 
REMARK    3  A    between atoms: N4_17  and  C13_18 
REMARK    4  A    between atoms: C17_22  and  C18_23 
ROOT
HETATM    1  C1  UNL     1      24.416   3.334  49.306  1.00  0.00     0.159 C 
HETATM    2  C2  UNL     1      25.843   3.068  49.708  1.00  0.00     0.041 C 
HETATM    3  C3  UNL     1      26.844   3.892  48.935  1.00  0.00     0.043 C 
HETATM    4  C4  UNL     1      26.751   5.341  49.105  1.00  0.00    -0.031 A 
HETATM    5  C5  UNL     1      27.936   5.698  48.449  1.00  0.00     0.009 A 
HETATM    6  C6  UNL     1      28.363   7.012  48.306  1.00  0.00     0.001 A 
HETATM    7  C7  UNL     1      27.585   8.013  48.833  1.00  0.00     0.002 A 
HETATM    8  C8  UNL     1      26.406   7.742  49.494  1.00  0.00     0.030 A 
HETATM    9  C9  UNL     1      26.042   6.439  49.602  1.00  0.00     0.040 A 
HETATM   10  N1  UNL     1      24.795   6.469  50.330  1.00  0.00    -0.340 N 
HETATM   11  C10 UNL     1      23.923   5.414  50.807  1.00  0.00     0.142 A 
HETATM   12  N2  UNL     1      23.221   5.934  51.825  1.00  0.00    -0.224 NA
HETATM   13  C11 UNL     1      22.337   5.189  52.505  1.00  0.00     0.237 A 
HETATM   14  N3  UNL     1      22.192   3.909  52.122  1.00  0.00    -0.224 NA
HETATM   15  C12 UNL     1      22.885   3.378  51.108  1.00  0.00     0.142 A 
HETATM   16  C20 UNL     1      23.786   4.080  50.386  1.00  0.00     0.062 A 
HETATM   17  H11 UNL     1      24.435   7.416  50.574  1.00  0.00     0.167 HD
ENDROOT
BRANCH  15  18
HETATM   18  N4  UNL     1      22.691   2.015  50.803  1.00  0.00    -0.340 N 
HETATM   19  H13 UNL     1      22.486   1.277  50.113  1.00  0.00     0.167 HD
BRANCH  18  20
HETATM   20  C13 UNL     1      22.846   1.097  51.879  1.00  0.00     0.034 A 
HETATM   21  C14 UNL     1      21.878   0.358  52.569  1.00  0.00     0.029 A 
HETATM   22  C15 UNL     1      22.168  -0.514  53.591  1.00  0.00     0.003 A 
HETATM   23  C16 UNL     1      23.495  -0.649  53.933  1.00  0.00     0.016 A 
HETATM   24  C17 UNL     1      24.501   0.045  53.297  1.00  0.00     0.050 A 
HETATM   25  C19 UNL     1      24.175   0.911  52.277  1.00  0.00     0.045 A 
BRANCH  24  26
HETATM   26  C18 UNL     1      25.864  -0.243  53.815  1.00  0.00     0.417 C 
HETATM   27  F1  UNL     1      26.686   0.812  53.512  1.00  0.00    -0.166 F 
HETATM   28  F2  UNL     1      25.745  -0.299  55.204  1.00  0.00    -0.166 F 
HETATM   29  F3  UNL     1      26.343  -1.462  53.395  1.00  0.00    -0.166 F 
ENDBRANCH  24  26
ENDBRANCH  18  20
ENDBRANCH  15  18
BRANCH   1  30
HETATM   30  O1  UNL     1      23.740   2.337  48.704  1.00  0.00    -0.391 OA
HETATM   31  H1  UNL     1      24.200   1.839  47.994  1.00  0.00     0.210 HD
ENDBRANCH   1  30
TORSDOF 4
ENDMDL
MODEL 7
REMARK VINA RESULT:      -9.3      4.609      8.725
REMARK  4 active torsions:
REMARK  status: ('A' for Active; 'I' for Inactive)
REMARK    1  A    between atoms: O1_1  and  C1_2 
REMARK    2  A    between atoms: C12_16  and  N4_17 
REMARK    3  A    between atoms: N4_17  and  C13_18 
REMARK    4  A    between atoms: C17_22  and  C18_23 
ROOT
HETATM    1  C1  UNL     1      24.170   5.559  50.426  1.00  0.00     0.159 C 
HETATM    2  C2  UNL     1      23.760   5.654  48.981  1.00  0.00     0.041 C 
HETATM    3  C3  UNL     1      24.417   6.797  48.247  1.00  0.00     0.043 C 
HETATM    4  C4  UNL     1      25.874   6.738  48.140  1.00  0.00    -0.031 A 
HETATM    5  C5  UNL     1      26.054   7.794  47.237  1.00  0.00     0.009 A 
HETATM    6  C6  UNL     1      27.298   8.196  46.770  1.00  0.00     0.001 A 
HETATM    7  C7  UNL     1      28.410   7.525  47.215  1.00  0.00     0.002 A 
HETATM    8  C8  UNL     1      28.317   6.475  48.103  1.00  0.00     0.030 A 
HETATM    9  C9  UNL     1      27.073   6.129  48.523  1.00  0.00     0.040 A 
HETATM   10  N1  UNL     1      27.289   5.020  49.423  1.00  0.00    -0.340 N 
HETATM   11  C10 UNL     1      26.371   4.177  50.163  1.00  0.00     0.142 A 
HETATM   12  N2  UNL     1      27.024   3.031  50.408  1.00  0.00    -0.224 NA
HETATM   13  C11 UNL     1      26.426   2.022  51.058  1.00  0.00     0.237 A 
HETATM   14  N3  UNL     1      25.154   2.212  51.447  1.00  0.00    -0.224 NA
HETATM   15  C12 UNL     1      24.491   3.351  51.209  1.00  0.00     0.142 A 
HETATM   16  C20 UNL     1      25.042   4.400  50.562  1.00  0.00     0.062 A 
HETATM   17  H11 UNL     1      28.284   4.755  49.585  1.00  0.00     0.167 HD
ENDROOT
BRANCH  15  18
HETATM   18  N4  UNL     1      23.146   3.444  51.624  1.00  0.00    -0.340 N 
HETATM   19  H13 UNL     1      22.352   4.014  51.950  1.00  0.00     0.167 HD
BRANCH  18  20
HETATM   20  C13 UNL     1      22.395   2.235  51.611  1.00  0.00     0.034 A 
HETATM   21  C14 UNL     1      21.862   1.526  50.529  1.00  0.00     0.029 A 
HETATM   22  C15 UNL     1      21.161   0.350  50.656  1.00  0.00     0.003 A 
HETATM   23  C16 UNL     1      20.990  -0.134  51.934  1.00  0.00     0.016 A 
HETATM   24  C17 UNL     1      21.487   0.511  53.047  1.00  0.00     0.050 A 
HETATM   25  C19 UNL     1      22.184   1.687  52.882  1.00  0.00     0.045 A 
BRANCH  24  26
HETATM   26  C18 UNL     1      21.194  -0.175  54.331  1.00  0.00     0.417 C 
HETATM   27  F1  UNL     1      20.495  -1.326  54.071  1.00  0.00    -0.166 F 
HETATM   28  F2  UNL     1      22.430  -0.544  54.863  1.00  0.00    -0.166 F 
HETATM   29  F3  UNL     1      20.584   0.652  55.247  1.00  0.00    -0.166 F 
ENDBRANCH  24  26
ENDBRANCH  18  20
ENDBRANCH  15  18
BRANCH   1  30
HETATM   30  O1  UNL     1      23.230   5.796  51.361  1.00  0.00    -0.391 OA
HETATM   31  H1  UNL     1      23.462   6.404  52.097  1.00  0.00     0.210 HD
ENDBRANCH   1  30
TORSDOF 4
ENDMDL
MODEL 8
REMARK VINA RESULT:      -9.0      4.031      6.942
REMARK  4 active torsions:
REMARK  status: ('A' for Active; 'I' for Inactive)
REMARK    1  A    between atoms: O1_1  and  C1_2 
REMARK    2  A    between atoms: C12_16  and  N4_17 
REMARK    3  A    between atoms: N4_17  and  C13_18 
REMARK    4  A    between atoms: C17_22  and  C18_23 
ROOT
HETATM    1  C1  UNL     1      24.378   5.143  50.833  1.00  0.00     0.159 C 
HETATM    2  C2  UNL     1      24.163   6.443  51.560  1.00  0.00     0.041 C 
HETATM    3  C3  UNL     1      23.496   7.499  50.712  1.00  0.00     0.043 C 
HETATM    4  C4  UNL     1      22.145   7.190  50.248  1.00  0.00    -0.031 A 
HETATM    5  C5  UNL     1      21.816   8.449  49.730  1.00  0.00     0.009 A 
HETATM    6  C6  UNL     1      20.594   8.735  49.136  1.00  0.00     0.001 A 
HETATM    7  C7  UNL     1      19.659   7.734  49.051  1.00  0.00     0.002 A 
HETATM    8  C8  UNL     1      19.906   6.468  49.538  1.00  0.00     0.030 A 
HETATM    9  C9  UNL     1      21.119   6.250  50.108  1.00  0.00     0.040 A 
HETATM   10  N1  UNL     1      21.085   4.866  50.518  1.00  0.00    -0.340 N 
HETATM   11  C10 UNL     1      22.044   4.037  51.221  1.00  0.00     0.142 A 
HETATM   12  N2  UNL     1      21.342   3.043  51.787  1.00  0.00    -0.224 NA
HETATM   13  C11 UNL     1      21.948   2.114  52.541  1.00  0.00     0.237 A 
HETATM   14  N3  UNL     1      23.277   2.227  52.702  1.00  0.00    -0.224 NA
HETATM   15  C12 UNL     1      23.989   3.213  52.144  1.00  0.00     0.142 A 
HETATM   16  C20 UNL     1      23.434   4.174  51.373  1.00  0.00     0.062 A 
HETATM   17  H11 UNL     1      20.215   4.343  50.278  1.00  0.00     0.167 HD
ENDROOT
BRANCH  15  18
HETATM   18  N4  UNL     1      25.375   3.269  52.400  1.00  0.00    -0.340 N 
HETATM   19  H13 UNL     1      26.223   3.823  52.590  1.00  0.00     0.167 HD
BRANCH  18  20
HETATM   20  C13 UNL     1      26.053   2.022  52.487  1.00  0.00     0.034 A 
HETATM   21  C14 UNL     1      25.742   0.793  51.893  1.00  0.00     0.029 A 
HETATM   22  C15 UNL     1      26.500  -0.344  52.048  1.00  0.00     0.003 A 
HETATM   23  C16 UNL     1      27.623  -0.237  52.838  1.00  0.00     0.016 A 
HETATM   24  C17 UNL     1      27.991   0.940  53.453  1.00  0.00     0.050 A 
HETATM   25  C19 UNL     1      27.209   2.060  53.276  1.00  0.00     0.045 A 
BRANCH  24  26
HETATM   26  C18 UNL     1      29.234   0.844  54.261  1.00  0.00     0.417 C 
HETATM   27  F1  UNL     1      29.561   2.093  54.723  1.00  0.00    -0.166 F 
HETATM   28  F2  UNL     1      28.917   0.055  55.367  1.00  0.00    -0.166 F 
HETATM   29  F3  UNL     1      30.256   0.214  53.587  1.00  0.00    -0.166 F 
ENDBRANCH  24  26
ENDBRANCH  18  20
ENDBRANCH  15  18
BRANCH   1  30
HETATM   30  O1  UNL     1      25.647   4.766  50.585  1.00  0.00    -0.391 OA
HETATM   31  H1  UNL     1      26.195   4.481  51.350  1.00  0.00     0.210 HD
ENDBRANCH   1  30
TORSDOF 4
ENDMDL
MODEL 9
REMARK VINA RESULT:      -8.8      3.613      5.377
REMARK  4 active torsions:
REMARK  status: ('A' for Active; 'I' for Inactive)
REMARK    1  A    between atoms: O1_1  and  C1_2 
REMARK    2  A    between atoms: C12_16  and  N4_17 
REMARK    3  A    between atoms: N4_17  and  C13_18 
REMARK    4  A    between atoms: C17_22  and  C18_23 
ROOT
HETATM    1  C1  UNL     1      24.557   2.825  52.567  1.00  0.00     0.159 C 
HETATM    2  C2  UNL     1      25.604   2.569  51.516  1.00  0.00     0.041 C 
HETATM    3  C3  UNL     1      27.007   2.509  52.071  1.00  0.00     0.043 C 
HETATM    4  C4  UNL     1      27.274   1.436  53.026  1.00  0.00    -0.031 A 
HETATM    5  C5  UNL     1      28.664   1.580  53.110  1.00  0.00     0.009 A 
HETATM    6  C6  UNL     1      29.468   0.781  53.913  1.00  0.00     0.001 A 
HETATM    7  C7  UNL     1      28.871  -0.200  54.663  1.00  0.00     0.002 A 
HETATM    8  C8  UNL     1      27.508  -0.406  54.636  1.00  0.00     0.030 A 
HETATM    9  C9  UNL     1      26.776   0.407  53.832  1.00  0.00     0.040 A 
HETATM   10  N1  UNL     1      25.413  -0.041  54.006  1.00  0.00    -0.340 N 
HETATM   11  C10 UNL     1      24.167   0.380  53.397  1.00  0.00     0.142 A 
HETATM   12  N2  UNL     1      23.324  -0.658  53.505  1.00  0.00    -0.224 NA
HETATM   13  C11 UNL     1      22.082  -0.592  53.003  1.00  0.00     0.237 A 
HETATM   14  N3  UNL     1      21.728   0.551  52.392  1.00  0.00    -0.224 NA
HETATM   15  C12 UNL     1      22.559   1.594  52.278  1.00  0.00     0.142 A 
HETATM   16  C20 UNL     1      23.819   1.586  52.766  1.00  0.00     0.062 A 
HETATM   17  H11 UNL     1      25.275  -0.814  54.691  1.00  0.00     0.167 HD
ENDROOT
BRANCH  15  18
HETATM   18  N4  UNL     1      22.110   2.739  51.587  1.00  0.00    -0.340 N 
HETATM   19  H13 UNL     1      21.753   3.706  51.603  1.00  0.00     0.167 HD
BRANCH  18  20
HETATM   20  C13 UNL     1      22.126   2.668  50.166  1.00  0.00     0.034 A 
HETATM   21  C14 UNL     1      22.027   1.552  49.327  1.00  0.00     0.029 A 
HETATM   22  C15 UNL     1      22.041   1.625  47.954  1.00  0.00     0.003 A 
HETATM   23  C16 UNL     1      22.162   2.881  47.402  1.00  0.00     0.016 A 
HETATM   24  C17 UNL     1      22.264   4.023  48.166  1.00  0.00     0.050 A 
HETATM   25  C19 UNL     1      22.246   3.914  49.539  1.00  0.00     0.045 A 
BRANCH  24  26
HETATM   26  C18 UNL     1      22.385   5.276  47.377  1.00  0.00     0.417 C 
HETATM   27  F1  UNL     1      23.592   5.863  47.658  1.00  0.00    -0.166 F 
HETATM   28  F2  UNL     1      22.406   4.889  46.037  1.00  0.00    -0.166 F 
HETATM   29  F3  UNL     1      21.306   6.114  47.545  1.00  0.00    -0.166 F 
ENDBRANCH  24  26
ENDBRANCH  18  20
ENDBRANCH  15  18
BRANCH   1  30
HETATM   30  O1  UNL     1      23.891   3.995  52.514  1.00  0.00    -0.391 OA
HETATM   31  H1  UNL     1      22.963   4.005  52.836  1.00  0.00     0.210 HD
ENDBRANCH   1  30
TORSDOF 4
ENDMDL
