MODEL 1
REMARK VINA RESULT:      -7.4      0.000      0.000
REMARK  7 active torsions:
REMARK  status: ('A' for Active; 'I' for Inactive)
REMARK    1  A    between atoms: C8_8  and  C9_9 
REMARK    2  A    between atoms: C9_9  and  N1_10 
REMARK    3  A    between atoms: N1_10  and  C10_11 
REMARK    4  A    between atoms: C10_11  and  C11_12 
REMARK    5  A    between atoms: C12_13  and  N2_14 
REMARK    6  A    between atoms: N2_14  and  C13_15 
REMARK    7  A    between atoms: C13_15  and  C14_16 
ROOT
HETATM    1  C10 UNL     1      23.924   1.249  52.675  1.00  0.00     0.317 C 
ENDROOT
BRANCH   1   2
HETATM    2  N1  UNL     1      23.897  -0.002  52.984  1.00  0.00    -0.432 NA
BRANCH   2   3
HETATM    3  C9  UNL     1      24.423  -0.472  54.248  1.00  0.00     0.169 C 
BRANCH   3   4
HETATM    4  C8  UNL     1      25.878  -0.129  54.322  1.00  0.00     0.084 A 
HETATM    5  C7  UNL     1      27.073  -0.484  53.895  1.00  0.00     0.039 A 
HETATM    6  C2  UNL     1      27.788  -1.393  53.107  1.00  0.00    -0.030 A 
HETATM    7  C6  UNL     1      27.706   0.528  54.588  1.00  0.00     0.089 A 
HETATM    8  C1  UNL     1      27.154  -2.348  52.458  1.00  0.00     0.024 C 
HETATM    9  C3  UNL     1      29.157  -1.255  53.035  1.00  0.00     0.011 A 
HETATM   10  C4  UNL     1      29.763  -0.234  53.737  1.00  0.00     0.004 A 
HETATM   11  C5  UNL     1      29.077   0.671  54.519  1.00  0.00     0.038 A 
HETATM   12  O1  UNL     1      26.434   0.912  55.046  1.00  0.00    -0.311 OA
ENDBRANCH   3   4
ENDBRANCH   2   3
ENDBRANCH   1   2
BRANCH   1  13
HETATM   13  C11 UNL     1      24.050   2.576  52.086  1.00  0.00     0.019 C 
HETATM   14  C12 UNL     1      24.186   3.720  52.728  1.00  0.00     0.081 C 
BRANCH  14  15
HETATM   15  N2  UNL     1      24.265   4.702  51.703  1.00  0.00    -0.395 N 
HETATM   16  H11 UNL     1      24.203   5.697  52.066  1.00  0.00     0.159 HD
BRANCH  15  17
HETATM   17  C13 UNL     1      24.414   4.202  50.352  1.00  0.00     0.159 C 
BRANCH  17  18
HETATM   18  C14 UNL     1      25.576   4.830  49.680  1.00  0.00    -0.023 A 
HETATM   19  C15 UNL     1      26.694   4.143  49.277  1.00  0.00     0.012 A 
HETATM   20  C16 UNL     1      27.738   4.796  48.657  1.00  0.00     0.020 A 
HETATM   21  C17 UNL     1      27.649   6.144  48.446  1.00  0.00     0.116 A 
HETATM   22  N3  UNL     1      26.553   6.857  48.834  1.00  0.00    -0.273 NA
HETATM   23  C18 UNL     1      25.549   6.194  49.436  1.00  0.00     0.124 A 
ENDBRANCH  17  18
ENDBRANCH  15  17
ENDBRANCH  14  15
ENDBRANCH   1  13
TORSDOF 7
ENDMDL
MODEL 2
REMARK VINA RESULT:      -7.2      1.572      2.362
REMARK  7 active torsions:
REMARK  status: ('A' for Active; 'I' for Inactive)
REMARK    1  A    between atoms: C8_8  and  C9_9 
REMARK    2  A    between atoms: C9_9  and  N1_10 
REMARK    3  A    between atoms: N1_10  and  C10_11 
REMARK    4  A    between atoms: C10_11  and  C11_12 
REMARK    5  A    between atoms: C12_13  and  N2_14 
REMARK    6  A    between atoms: N2_14  and  C13_15 
REMARK    7  A    between atoms: C13_15  and  C14_16 
ROOT
HETATM    1  C10 UNL     1      25.039   2.307  51.078  1.00  0.00     0.317 C 
ENDROOT
BRANCH   1   2
HETATM    2  N1  UNL     1      24.493   1.362  51.762  1.00  0.00    -0.432 NA
BRANCH   2   3
HETATM    3  C9  UNL     1      24.664   1.282  53.197  1.00  0.00     0.169 C 
BRANCH   3   4
HETATM    4  C8  UNL     1      26.123   1.140  53.501  1.00  0.00     0.084 A 
HETATM    5  C7  UNL     1      27.147   0.314  53.420  1.00  0.00     0.039 A 
HETATM    6  C2  UNL     1      27.568  -0.956  53.009  1.00  0.00    -0.030 A 
HETATM    7  C6  UNL     1      28.018   1.213  54.000  1.00  0.00     0.089 A 
HETATM    8  C1  UNL     1      26.712  -1.792  52.458  1.00  0.00     0.024 C 
HETATM    9  C3  UNL     1      28.890  -1.295  53.199  1.00  0.00     0.011 A 
HETATM   10  C4  UNL     1      29.738  -0.376  53.781  1.00  0.00     0.004 A 
HETATM   11  C5  UNL     1      29.343   0.880  54.192  1.00  0.00     0.038 A 
HETATM   12  O1  UNL     1      26.930   2.099  54.089  1.00  0.00    -0.311 OA
ENDBRANCH   3   4
ENDBRANCH   2   3
ENDBRANCH   1   2
BRANCH   1  13
HETATM   13  C11 UNL     1      25.673   3.506  50.542  1.00  0.00     0.019 C 
HETATM   14  C12 UNL     1      25.138   4.707  50.436  1.00  0.00     0.081 C 
BRANCH  14  15
HETATM   15  N2  UNL     1      26.161   5.507  49.858  1.00  0.00    -0.395 N 
HETATM   16  H11 UNL     1      26.124   6.523  50.161  1.00  0.00     0.159 HD
BRANCH  15  17
HETATM   17  C13 UNL     1      27.075   4.825  48.964  1.00  0.00     0.159 C 
BRANCH  17  18
HETATM   18  C14 UNL     1      28.002   5.786  48.320  1.00  0.00    -0.023 A 
HETATM   19  C15 UNL     1      27.617   7.001  47.810  1.00  0.00     0.012 A 
HETATM   20  C16 UNL     1      28.538   7.843  47.224  1.00  0.00     0.020 A 
HETATM   21  C17 UNL     1      29.847   7.456  47.156  1.00  0.00     0.116 A 
HETATM   22  N3  UNL     1      30.263   6.255  47.652  1.00  0.00    -0.273 NA
HETATM   23  C18 UNL     1      29.343   5.452  48.219  1.00  0.00     0.124 A 
ENDBRANCH  17  18
ENDBRANCH  15  17
ENDBRANCH  14  15
ENDBRANCH   1  13
TORSDOF 7
ENDMDL
MODEL 3
REMARK VINA RESULT:      -7.0      1.905      7.250
REMARK  7 active torsions:
REMARK  status: ('A' for Active; 'I' for Inactive)
REMARK    1  A    between atoms: C8_8  and  C9_9 
REMARK    2  A    between atoms: C9_9  and  N1_10 
REMARK    3  A    between atoms: N1_10  and  C10_11 
REMARK    4  A    between atoms: C10_11  and  C11_12 
REMARK    5  A    between atoms: C12_13  and  N2_14 
REMARK    6  A    between atoms: N2_14  and  C13_15 
REMARK    7  A    between atoms: C13_15  and  C14_16 
ROOT
HETATM    1  C10 UNL     1      23.788   3.519  51.893  1.00  0.00     0.317 C 
ENDROOT
BRANCH   1   2
HETATM    2  N1  UNL     1      23.757   4.584  51.169  1.00  0.00    -0.432 NA
BRANCH   2   3
HETATM    3  C9  UNL     1      23.851   4.511  49.726  1.00  0.00     0.169 C 
BRANCH   3   4
HETATM    4  C8  UNL     1      25.278   4.714  49.325  1.00  0.00     0.084 A 
HETATM    5  C7  UNL     1      26.118   5.583  48.798  1.00  0.00     0.039 A 
HETATM    6  C2  UNL     1      26.254   6.870  48.266  1.00  0.00    -0.030 A 
HETATM    7  C6  UNL     1      27.191   4.721  48.892  1.00  0.00     0.089 A 
HETATM    8  C1  UNL     1      25.210   7.669  48.189  1.00  0.00     0.024 C 
HETATM    9  C3  UNL     1      27.501   7.264  47.832  1.00  0.00     0.011 A 
HETATM   10  C4  UNL     1      28.555   6.383  47.939  1.00  0.00     0.004 A 
HETATM   11  C5  UNL     1      28.442   5.111  48.459  1.00  0.00     0.038 A 
HETATM   12  O1  UNL     1      26.302   3.789  49.456  1.00  0.00    -0.311 OA
ENDBRANCH   3   4
ENDBRANCH   2   3
ENDBRANCH   1   2
BRANCH   1  13
HETATM   13  C11 UNL     1      24.092   2.351  52.710  1.00  0.00     0.019 C 
HETATM   14  C12 UNL     1      23.784   1.096  52.447  1.00  0.00     0.081 C 
BRANCH  14  15
HETATM   15  N2  UNL     1      24.302   0.359  53.548  1.00  0.00    -0.395 N 
HETATM   16  H11 UNL     1      24.023   0.758  54.491  1.00  0.00     0.159 HD
BRANCH  15  17
HETATM   17  C13 UNL     1      25.111  -0.796  53.217  1.00  0.00     0.159 C 
BRANCH  17  18
HETATM   18  C14 UNL     1      26.532  -0.566  53.571  1.00  0.00    -0.023 A 
HETATM   19  C15 UNL     1      27.586  -1.212  52.976  1.00  0.00     0.012 A 
HETATM   20  C16 UNL     1      28.884  -0.946  53.359  1.00  0.00     0.020 A 
HETATM   21  C17 UNL     1      29.112  -0.025  54.343  1.00  0.00     0.116 A 
HETATM   22  N3  UNL     1      28.088   0.635  54.956  1.00  0.00    -0.273 NA
HETATM   23  C18 UNL     1      26.831   0.355  54.562  1.00  0.00     0.124 A 
ENDBRANCH  17  18
ENDBRANCH  15  17
ENDBRANCH  14  15
ENDBRANCH   1  13
TORSDOF 7
ENDMDL
MODEL 4
REMARK VINA RESULT:      -7.0      1.897      3.037
REMARK  7 active torsions:
REMARK  status: ('A' for Active; 'I' for Inactive)
REMARK    1  A    between atoms: C8_8  and  C9_9 
REMARK    2  A    between atoms: C9_9  and  N1_10 
REMARK    3  A    between atoms: N1_10  and  C10_11 
REMARK    4  A    between atoms: C10_11  and  C11_12 
REMARK    5  A    between atoms: C12_13  and  N2_14 
REMARK    6  A    between atoms: N2_14  and  C13_15 
REMARK    7  A    between atoms: C13_15  and  C14_16 
ROOT
HETATM    1  C10 UNL     1      25.454   2.743  50.978  1.00  0.00     0.317 C 
ENDROOT
BRANCH   1   2
HETATM    2  N1  UNL     1      24.906   1.628  51.319  1.00  0.00    -0.432 NA
BRANCH   2   3
HETATM    3  C9  UNL     1      24.954   1.158  52.688  1.00  0.00     0.169 C 
BRANCH   3   4
HETATM    4  C8  UNL     1      26.151   0.274  52.852  1.00  0.00     0.084 A 
HETATM    5  C7  UNL     1      27.441   0.276  53.121  1.00  0.00     0.039 A 
HETATM    6  C2  UNL     1      28.548   1.075  53.429  1.00  0.00    -0.030 A 
HETATM    7  C6  UNL     1      27.546  -1.095  53.010  1.00  0.00     0.089 A 
HETATM    8  C1  UNL     1      28.416   2.382  53.528  1.00  0.00     0.024 C 
HETATM    9  C3  UNL     1      29.763   0.455  53.622  1.00  0.00     0.011 A 
HETATM   10  C4  UNL     1      29.838  -0.917  53.506  1.00  0.00     0.004 A 
HETATM   11  C5  UNL     1      28.760  -1.722  53.204  1.00  0.00     0.038 A 
HETATM   12  O1  UNL     1      26.170  -1.105  52.723  1.00  0.00    -0.311 OA
ENDBRANCH   3   4
ENDBRANCH   2   3
ENDBRANCH   1   2
BRANCH   1  13
HETATM   13  C11 UNL     1      26.128   3.877  50.358  1.00  0.00     0.019 C 
HETATM   14  C12 UNL     1      25.616   5.067  50.110  1.00  0.00     0.081 C 
BRANCH  14  15
HETATM   15  N2  UNL     1      26.676   5.797  49.505  1.00  0.00    -0.395 N 
HETATM   16  H11 UNL     1      26.686   6.824  49.771  1.00  0.00     0.159 HD
BRANCH  15  17
HETATM   17  C13 UNL     1      27.557   5.040  48.639  1.00  0.00     0.159 C 
BRANCH  17  18
HETATM   18  C14 UNL     1      28.620   5.907  48.079  1.00  0.00    -0.023 A 
HETATM   19  C15 UNL     1      29.954   5.579  48.070  1.00  0.00     0.012 A 
HETATM   20  C16 UNL     1      30.887   6.438  47.530  1.00  0.00     0.020 A 
HETATM   21  C17 UNL     1      30.471   7.628  47.001  1.00  0.00     0.116 A 
HETATM   22  N3  UNL     1      29.154   7.985  46.994  1.00  0.00    -0.273 NA
HETATM   23  C18 UNL     1      28.264   7.127  47.527  1.00  0.00     0.124 A 
ENDBRANCH  17  18
ENDBRANCH  15  17
ENDBRANCH  14  15
ENDBRANCH   1  13
TORSDOF 7
ENDMDL
MODEL 5
REMARK VINA RESULT:      -7.0      2.277      6.936
REMARK  7 active torsions:
REMARK  status: ('A' for Active; 'I' for Inactive)
REMARK    1  A    between atoms: C8_8  and  C9_9 
REMARK    2  A    between atoms: C9_9  and  N1_10 
REMARK    3  A    between atoms: N1_10  and  C10_11 
REMARK    4  A    between atoms: C10_11  and  C11_12 
REMARK    5  A    between atoms: C12_13  and  N2_14 
REMARK    6  A    between atoms: N2_14  and  C13_15 
REMARK    7  A    between atoms: C13_15  and  C14_16 
ROOT
HETATM    1  C10 UNL     1      23.179   3.010  50.849  1.00  0.00     0.317 C 
ENDROOT
BRANCH   1   2
HETATM    2  N1  UNL     1      23.028   4.224  50.444  1.00  0.00    -0.432 NA
BRANCH   2   3
HETATM    3  C9  UNL     1      23.621   5.332  51.163  1.00  0.00     0.169 C 
BRANCH   3   4
HETATM    4  C8  UNL     1      24.737   5.897  50.341  1.00  0.00     0.084 A 
HETATM    5  C7  UNL     1      25.839   5.582  49.689  1.00  0.00     0.039 A 
HETATM    6  C2  UNL     1      26.701   4.540  49.329  1.00  0.00    -0.030 A 
HETATM    7  C6  UNL     1      26.072   6.884  49.298  1.00  0.00     0.089 A 
HETATM    8  C1  UNL     1      26.450   3.307  49.718  1.00  0.00     0.024 C 
HETATM    9  C3  UNL     1      27.804   4.846  48.562  1.00  0.00     0.011 A 
HETATM   10  C4  UNL     1      28.012   6.156  48.184  1.00  0.00     0.004 A 
HETATM   11  C5  UNL     1      27.176   7.196  48.530  1.00  0.00     0.038 A 
HETATM   12  O1  UNL     1      24.898   7.227  49.990  1.00  0.00    -0.311 OA
ENDBRANCH   3   4
ENDBRANCH   2   3
ENDBRANCH   1   2
BRANCH   1  13
HETATM   13  C11 UNL     1      23.250   1.729  51.541  1.00  0.00     0.019 C 
HETATM   14  C12 UNL     1      24.205   1.316  52.351  1.00  0.00     0.081 C 
BRANCH  14  15
HETATM   15  N2  UNL     1      23.799   0.014  52.754  1.00  0.00    -0.395 N 
HETATM   16  H11 UNL     1      23.126  -0.446  52.075  1.00  0.00     0.159 HD
BRANCH  15  17
HETATM   17  C13 UNL     1      24.356  -0.470  54.001  1.00  0.00     0.159 C 
BRANCH  17  18
HETATM   18  C14 UNL     1      25.837  -0.438  53.966  1.00  0.00    -0.023 A 
HETATM   19  C15 UNL     1      26.598  -1.107  53.040  1.00  0.00     0.012 A 
HETATM   20  C16 UNL     1      27.975  -1.031  53.071  1.00  0.00     0.020 A 
HETATM   21  C17 UNL     1      28.579  -0.278  54.039  1.00  0.00     0.116 A 
HETATM   22  N3  UNL     1      27.852   0.399  54.975  1.00  0.00    -0.273 NA
HETATM   23  C18 UNL     1      26.510   0.307  54.921  1.00  0.00     0.124 A 
ENDBRANCH  17  18
ENDBRANCH  15  17
ENDBRANCH  14  15
ENDBRANCH   1  13
TORSDOF 7
ENDMDL
MODEL 6
REMARK VINA RESULT:      -6.9      3.588      6.777
REMARK  7 active torsions:
REMARK  status: ('A' for Active; 'I' for Inactive)
REMARK    1  A    between atoms: C8_8  and  C9_9 
REMARK    2  A    between atoms: C9_9  and  N1_10 
REMARK    3  A    between atoms: N1_10  and  C10_11 
REMARK    4  A    between atoms: C10_11  and  C11_12 
REMARK    5  A    between atoms: C12_13  and  N2_14 
REMARK    6  A    between atoms: N2_14  and  C13_15 
REMARK    7  A    between atoms: C13_15  and  C14_16 
ROOT
HETATM    1  C10 UNL     1      21.461  -0.392  54.210  1.00  0.00     0.317 C 
ENDROOT
BRANCH   1   2
HETATM    2  N1  UNL     1      20.308   0.072  53.871  1.00  0.00    -0.432 NA
BRANCH   2   3
HETATM    3  C9  UNL     1      20.058   0.550  52.528  1.00  0.00     0.169 C 
BRANCH   3   4
HETATM    4  C8  UNL     1      20.621   1.930  52.395  1.00  0.00     0.084 A 
HETATM    5  C7  UNL     1      21.712   2.606  52.093  1.00  0.00     0.039 A 
HETATM    6  C2  UNL     1      23.052   2.506  51.702  1.00  0.00    -0.030 A 
HETATM    7  C6  UNL     1      21.106   3.828  52.297  1.00  0.00     0.089 A 
HETATM    8  C1  UNL     1      23.602   1.325  51.515  1.00  0.00     0.024 C 
HETATM    9  C3  UNL     1      23.764   3.672  51.521  1.00  0.00     0.011 A 
HETATM   10  C4  UNL     1      23.132   4.880  51.731  1.00  0.00     0.004 A 
HETATM   11  C5  UNL     1      21.814   4.999  52.117  1.00  0.00     0.038 A 
HETATM   12  O1  UNL     1      19.939   3.115  52.620  1.00  0.00    -0.311 OA
ENDBRANCH   3   4
ENDBRANCH   2   3
ENDBRANCH   1   2
BRANCH   1  13
HETATM   13  C11 UNL     1      22.864  -0.721  54.430  1.00  0.00     0.019 C 
HETATM   14  C12 UNL     1      23.388  -1.287  55.500  1.00  0.00     0.081 C 
BRANCH  14  15
HETATM   15  N2  UNL     1      24.777  -1.386  55.212  1.00  0.00    -0.395 N 
HETATM   16  H11 UNL     1      25.333  -1.868  55.977  1.00  0.00     0.159 HD
BRANCH  15  17
HETATM   17  C13 UNL     1      25.207  -0.826  53.947  1.00  0.00     0.159 C 
BRANCH  17  18
HETATM   18  C14 UNL     1      26.657  -0.522  53.968  1.00  0.00    -0.023 A 
HETATM   19  C15 UNL     1      27.581  -1.128  53.152  1.00  0.00     0.012 A 
HETATM   20  C16 UNL     1      28.916  -0.794  53.229  1.00  0.00     0.020 A 
HETATM   21  C17 UNL     1      29.315   0.153  54.131  1.00  0.00     0.116 A 
HETATM   22  N3  UNL     1      28.424   0.774  54.957  1.00  0.00    -0.273 NA
HETATM   23  C18 UNL     1      27.127   0.428  54.861  1.00  0.00     0.124 A 
ENDBRANCH  17  18
ENDBRANCH  15  17
ENDBRANCH  14  15
ENDBRANCH   1  13
TORSDOF 7
ENDMDL
MODEL 7
REMARK VINA RESULT:      -6.9      1.971      4.013
REMARK  7 active torsions:
REMARK  status: ('A' for Active; 'I' for Inactive)
REMARK    1  A    between atoms: C8_8  and  C9_9 
REMARK    2  A    between atoms: C9_9  and  N1_10 
REMARK    3  A    between atoms: N1_10  and  C10_11 
REMARK    4  A    between atoms: C10_11  and  C11_12 
REMARK    5  A    between atoms: C12_13  and  N2_14 
REMARK    6  A    between atoms: N2_14  and  C13_15 
REMARK    7  A    between atoms: C13_15  and  C14_16 
ROOT
HETATM    1  C10 UNL     1      26.558   1.641  51.494  1.00  0.00     0.317 C 
ENDROOT
BRANCH   1   2
HETATM    2  N1  UNL     1      26.505   0.449  51.980  1.00  0.00    -0.432 NA
BRANCH   2   3
HETATM    3  C9  UNL     1      26.675   0.211  53.398  1.00  0.00     0.169 C 
BRANCH   3   4
HETATM    4  C8  UNL     1      25.385  -0.303  53.958  1.00  0.00     0.084 A 
HETATM    5  C7  UNL     1      24.075  -0.254  53.819  1.00  0.00     0.039 A 
HETATM    6  C2  UNL     1      23.019   0.293  53.082  1.00  0.00    -0.030 A 
HETATM    7  C6  UNL     1      23.853  -1.116  54.873  1.00  0.00     0.089 A 
HETATM    8  C1  UNL     1      23.263   1.113  52.081  1.00  0.00     0.024 C 
HETATM    9  C3  UNL     1      21.733  -0.054  53.435  1.00  0.00     0.011 A 
HETATM   10  C4  UNL     1      21.540  -0.919  54.492  1.00  0.00     0.004 A 
HETATM   11  C5  UNL     1      22.567  -1.467  55.231  1.00  0.00     0.038 A 
HETATM   12  O1  UNL     1      25.249  -1.174  55.026  1.00  0.00    -0.311 OA
ENDBRANCH   3   4
ENDBRANCH   2   3
ENDBRANCH   1   2
BRANCH   1  13
HETATM   13  C11 UNL     1      26.557   2.869  50.708  1.00  0.00     0.019 C 
HETATM   14  C12 UNL     1      25.634   3.811  50.708  1.00  0.00     0.081 C 
BRANCH  14  15
HETATM   15  N2  UNL     1      26.106   4.778  49.779  1.00  0.00    -0.395 N 
HETATM   16  H11 UNL     1      25.564   5.689  49.807  1.00  0.00     0.159 HD
BRANCH  15  17
HETATM   17  C13 UNL     1      27.231   4.378  48.959  1.00  0.00     0.159 C 
BRANCH  17  18
HETATM   18  C14 UNL     1      27.969   5.562  48.458  1.00  0.00    -0.023 A 
HETATM   19  C15 UNL     1      29.289   5.541  48.080  1.00  0.00     0.012 A 
HETATM   20  C16 UNL     1      29.909   6.684  47.623  1.00  0.00     0.020 A 
HETATM   21  C17 UNL     1      29.193   7.847  47.548  1.00  0.00     0.116 A 
HETATM   22  N3  UNL     1      27.880   7.902  47.915  1.00  0.00    -0.273 NA
HETATM   23  C18 UNL     1      27.300   6.771  48.358  1.00  0.00     0.124 A 
ENDBRANCH  17  18
ENDBRANCH  15  17
ENDBRANCH  14  15
ENDBRANCH   1  13
TORSDOF 7
ENDMDL
MODEL 8
REMARK VINA RESULT:      -6.5      2.283      3.567
REMARK  7 active torsions:
REMARK  status: ('A' for Active; 'I' for Inactive)
REMARK    1  A    between atoms: C8_8  and  C9_9 
REMARK    2  A    between atoms: C9_9  and  N1_10 
REMARK    3  A    between atoms: N1_10  and  C10_11 
REMARK    4  A    between atoms: C10_11  and  C11_12 
REMARK    5  A    between atoms: C12_13  and  N2_14 
REMARK    6  A    between atoms: N2_14  and  C13_15 
REMARK    7  A    between atoms: C13_15  and  C14_16 
ROOT
HETATM    1  C10 UNL     1      26.101   3.608  49.951  1.00  0.00     0.317 C 
ENDROOT
BRANCH   1   2
HETATM    2  N1  UNL     1      26.045   2.492  50.592  1.00  0.00    -0.432 NA
BRANCH   2   3
HETATM    3  C9  UNL     1      25.936   2.463  52.036  1.00  0.00     0.169 C 
BRANCH   3   4
HETATM    4  C8  UNL     1      27.164   1.820  52.599  1.00  0.00     0.084 A 
HETATM    5  C7  UNL     1      27.713   0.658  52.894  1.00  0.00     0.039 A 
HETATM    6  C2  UNL     1      27.535  -0.730  52.886  1.00  0.00    -0.030 A 
HETATM    7  C6  UNL     1      28.872   1.237  53.366  1.00  0.00     0.089 A 
HETATM    8  C1  UNL     1      26.416  -1.252  52.429  1.00  0.00     0.024 C 
HETATM    9  C3  UNL     1      28.558  -1.518  53.367  1.00  0.00     0.011 A 
HETATM   10  C4  UNL     1      29.706  -0.912  53.833  1.00  0.00     0.004 A 
HETATM   11  C5  UNL     1      29.900   0.453  53.849  1.00  0.00     0.038 A 
HETATM   12  O1  UNL     1      28.294   2.480  53.054  1.00  0.00    -0.311 OA
ENDBRANCH   3   4
ENDBRANCH   2   3
ENDBRANCH   1   2
BRANCH   1  13
HETATM   13  C11 UNL     1      26.430   4.861  49.282  1.00  0.00     0.019 C 
HETATM   14  C12 UNL     1      26.042   6.072  49.630  1.00  0.00     0.081 C 
BRANCH  14  15
HETATM   15  N2  UNL     1      26.630   6.931  48.660  1.00  0.00    -0.395 N 
HETATM   16  H11 UNL     1      26.029   7.773  48.423  1.00  0.00     0.159 HD
BRANCH  15  17
HETATM   17  C13 UNL     1      27.929   6.531  48.159  1.00  0.00     0.159 C 
BRANCH  17  18
HETATM   18  C14 UNL     1      28.973   7.503  48.561  1.00  0.00    -0.023 A 
HETATM   19  C15 UNL     1      30.317   7.221  48.582  1.00  0.00     0.012 A 
HETATM   20  C16 UNL     1      31.232   8.177  48.969  1.00  0.00     0.020 A 
HETATM   21  C17 UNL     1      30.786   9.417  49.333  1.00  0.00     0.116 A 
HETATM   22  N3  UNL     1      29.458   9.731  49.324  1.00  0.00    -0.273 NA
HETATM   23  C18 UNL     1      28.587   8.778  48.942  1.00  0.00     0.124 A 
ENDBRANCH  17  18
ENDBRANCH  15  17
ENDBRANCH  14  15
ENDBRANCH   1  13
TORSDOF 7
ENDMDL
MODEL 9
REMARK VINA RESULT:      -6.3      3.731      7.578
REMARK  7 active torsions:
REMARK  status: ('A' for Active; 'I' for Inactive)
REMARK    1  A    between atoms: C8_8  and  C9_9 
REMARK    2  A    between atoms: C9_9  and  N1_10 
REMARK    3  A    between atoms: N1_10  and  C10_11 
REMARK    4  A    between atoms: C10_11  and  C11_12 
REMARK    5  A    between atoms: C12_13  and  N2_14 
REMARK    6  A    between atoms: N2_14  and  C13_15 
REMARK    7  A    between atoms: C13_15  and  C14_16 
ROOT
HETATM    1  C10 UNL     1      21.229   4.708  51.248  1.00  0.00     0.317 C 
ENDROOT
BRANCH   1   2
HETATM    2  N1  UNL     1      21.201   5.674  50.395  1.00  0.00    -0.432 NA
BRANCH   2   3
HETATM    3  C9  UNL     1      21.619   5.475  49.024  1.00  0.00     0.169 C 
BRANCH   3   4
HETATM    4  C8  UNL     1      23.114   5.520  48.965  1.00  0.00     0.084 A 
HETATM    5  C7  UNL     1      24.205   4.805  49.157  1.00  0.00     0.039 A 
HETATM    6  C2  UNL     1      24.705   3.554  49.535  1.00  0.00    -0.030 A 
HETATM    7  C6  UNL     1      25.041   5.844  48.805  1.00  0.00     0.089 A 
HETATM    8  C1  UNL     1      23.881   2.582  49.866  1.00  0.00     0.024 C 
HETATM    9  C3  UNL     1      26.072   3.379  49.549  1.00  0.00     0.011 A 
HETATM   10  C4  UNL     1      26.885   4.435  49.192  1.00  0.00     0.004 A 
HETATM   11  C5  UNL     1      26.411   5.674  48.816  1.00  0.00     0.038 A 
HETATM   12  O1  UNL     1      23.883   6.612  48.597  1.00  0.00    -0.311 OA
ENDBRANCH   3   4
ENDBRANCH   2   3
ENDBRANCH   1   2
BRANCH   1  13
HETATM   13  C11 UNL     1      21.012   3.559  52.118  1.00  0.00     0.019 C 
HETATM   14  C12 UNL     1      20.161   2.569  51.928  1.00  0.00     0.081 C 
BRANCH  14  15
HETATM   15  N2  UNL     1      20.341   1.718  53.054  1.00  0.00    -0.395 N 
HETATM   16  H11 UNL     1      20.291   2.231  53.982  1.00  0.00     0.159 HD
BRANCH  15  17
HETATM   17  C13 UNL     1      20.560   0.316  52.764  1.00  0.00     0.159 C 
BRANCH  17  18
HETATM   18  C14 UNL     1      21.709  -0.211  53.537  1.00  0.00    -0.023 A 
HETATM   19  C15 UNL     1      23.023   0.040  53.227  1.00  0.00     0.012 A 
HETATM   20  C16 UNL     1      24.041  -0.486  53.993  1.00  0.00     0.020 A 
HETATM   21  C17 UNL     1      23.729  -1.265  55.072  1.00  0.00     0.116 A 
HETATM   22  N3  UNL     1      22.434  -1.535  55.408  1.00  0.00    -0.273 NA
HETATM   23  C18 UNL     1      21.460  -1.008  54.643  1.00  0.00     0.124 A 
ENDBRANCH  17  18
ENDBRANCH  15  17
ENDBRANCH  14  15
ENDBRANCH   1  13
TORSDOF 7
ENDMDL
