MODEL 1
REMARK VINA RESULT:      -7.4      0.000      0.000
REMARK  4 active torsions:
REMARK  status: ('A' for Active; 'I' for Inactive)
REMARK    1  A    between atoms: O1_2  and  C2_3 
REMARK    2  A    between atoms: C6_9  and  N3_10 
REMARK    3  A    between atoms: N3_10  and  C7_11 
REMARK    4  A    between atoms: C14_19  and  O2_20 
ROOT
HETATM    1  C2  UNL     1      20.278   0.077  52.596  1.00  0.00     0.103 A 
HETATM    2  C3  UNL     1      20.609  -0.596  53.753  1.00  0.00     0.072 A 
HETATM    3  C4  UNL     1      21.930  -0.725  54.117  1.00  0.00     0.075 A 
HETATM    4  N1  UNL     1      22.194  -1.397  55.264  1.00  0.00    -0.241 NA
HETATM    5  C5  UNL     1      23.472  -1.546  55.656  1.00  0.00     0.236 A 
HETATM    6  N2  UNL     1      24.463  -1.036  54.922  1.00  0.00    -0.224 NA
HETATM    7  C6  UNL     1      24.301  -0.359  53.780  1.00  0.00     0.142 A 
HETATM    8  C12 UNL     1      22.988  -0.217  53.393  1.00  0.00     0.042 A 
HETATM    9  C13 UNL     1      22.583   0.442  52.254  1.00  0.00     0.057 A 
HETATM   10  C14 UNL     1      21.290   0.610  51.826  1.00  0.00     0.102 A 
ENDROOT
BRANCH   7  11
HETATM   11  N3  UNL     1      25.327   0.191  52.984  1.00  0.00    -0.335 N 
HETATM   12  H6  UNL     1      25.118   0.742  52.156  1.00  0.00     0.168 HD
BRANCH  11  13
HETATM   13  C7  UNL     1      26.724   0.075  53.192  1.00  0.00     0.063 A 
HETATM   14  S1  UNL     1      27.658   1.349  53.647  1.00  0.00    -0.157 SA
HETATM   15  C8  UNL     1      29.404   0.973  53.853  1.00  0.00     0.038 A 
HETATM   16  H7  UNL     1      27.110   2.636  53.854  1.00  0.00     0.102 HD
HETATM   17  C9  UNL     1      29.762  -0.267  53.623  1.00  0.00     0.006 A 
HETATM   18  C10 UNL     1      28.788  -1.271  53.225  1.00  0.00     0.003 A 
HETATM   19  C11 UNL     1      27.503  -1.142  53.038  1.00  0.00     0.036 A 
ENDBRANCH  11  13
ENDBRANCH   7  11
BRANCH  10  20
HETATM   20  O2  UNL     1      20.972   1.292  50.657  1.00  0.00    -0.353 OA
HETATM   21  C15 UNL     1      21.596   2.564  50.436  1.00  0.00     0.210 C 
ENDBRANCH  10  20
BRANCH   1  22
HETATM   22  O1  UNL     1      18.960   0.224  52.200  1.00  0.00    -0.353 OA
HETATM   23  C1  UNL     1      18.043  -0.807  52.517  1.00  0.00     0.210 C 
ENDBRANCH   1  22
TORSDOF 4
ENDMDL
MODEL 2
REMARK VINA RESULT:      -7.2      3.565      7.201
REMARK  4 active torsions:
REMARK  status: ('A' for Active; 'I' for Inactive)
REMARK    1  A    between atoms: O1_2  and  C2_3 
REMARK    2  A    between atoms: C6_9  and  N3_10 
REMARK    3  A    between atoms: N3_10  and  C7_11 
REMARK    4  A    between atoms: C14_19  and  O2_20 
ROOT
HETATM    1  C2  UNL     1      27.334   0.008  53.741  1.00  0.00     0.103 A 
HETATM    2  C3  UNL     1      27.648   0.838  52.686  1.00  0.00     0.072 A 
HETATM    3  C4  UNL     1      26.697   1.695  52.182  1.00  0.00     0.075 A 
HETATM    4  N1  UNL     1      27.064   2.488  51.145  1.00  0.00    -0.241 NA
HETATM    5  C5  UNL     1      26.164   3.340  50.622  1.00  0.00     0.236 A 
HETATM    6  N2  UNL     1      24.928   3.402  51.123  1.00  0.00    -0.224 NA
HETATM    7  C6  UNL     1      24.476   2.663  52.141  1.00  0.00     0.142 A 
HETATM    8  C12 UNL     1      25.409   1.796  52.664  1.00  0.00     0.042 A 
HETATM    9  C13 UNL     1      25.168   0.940  53.715  1.00  0.00     0.057 A 
HETATM   10  C14 UNL     1      26.062   0.059  54.270  1.00  0.00     0.102 A 
ENDROOT
BRANCH   7  11
HETATM   11  N3  UNL     1      23.179   2.706  52.691  1.00  0.00    -0.335 N 
HETATM   12  H6  UNL     1      22.985   3.209  53.553  1.00  0.00     0.168 HD
BRANCH  11  13
HETATM   13  C7  UNL     1      22.009   2.099  52.169  1.00  0.00     0.063 A 
HETATM   14  S1  UNL     1      20.516   2.764  52.342  1.00  0.00    -0.157 SA
HETATM   15  C8  UNL     1      19.176   1.822  51.601  1.00  0.00     0.038 A 
HETATM   16  H7  UNL     1      20.321   3.985  53.029  1.00  0.00     0.102 HD
HETATM   17  C9  UNL     1      19.514   0.708  51.000  1.00  0.00     0.006 A 
HETATM   18  C10 UNL     1      20.900   0.271  50.944  1.00  0.00     0.003 A 
HETATM   19  C11 UNL     1      21.965   0.847  51.433  1.00  0.00     0.036 A 
ENDBRANCH  11  13
ENDBRANCH   7  11
BRANCH  10  20
HETATM   20  O2  UNL     1      25.731  -0.771  55.334  1.00  0.00    -0.353 OA
HETATM   21  C15 UNL     1      24.375  -1.230  55.426  1.00  0.00     0.210 C 
ENDBRANCH  10  20
BRANCH   1  22
HETATM   22  O1  UNL     1      28.267  -0.867  54.272  1.00  0.00    -0.353 OA
HETATM   23  C1  UNL     1      29.573  -0.871  53.726  1.00  0.00     0.210 C 
ENDBRANCH   1  22
TORSDOF 4
ENDMDL
MODEL 3
REMARK VINA RESULT:      -7.1      1.867      3.331
REMARK  4 active torsions:
REMARK  status: ('A' for Active; 'I' for Inactive)
REMARK    1  A    between atoms: O1_2  and  C2_3 
REMARK    2  A    between atoms: C6_9  and  N3_10 
REMARK    3  A    between atoms: N3_10  and  C7_11 
REMARK    4  A    between atoms: C14_19  and  O2_20 
ROOT
HETATM    1  C2  UNL     1      21.169   0.347  51.791  1.00  0.00     0.103 A 
HETATM    2  C3  UNL     1      21.711   1.226  50.879  1.00  0.00     0.072 A 
HETATM    3  C4  UNL     1      22.990   1.700  51.060  1.00  0.00     0.075 A 
HETATM    4  N1  UNL     1      23.470   2.561  50.129  1.00  0.00    -0.241 NA
HETATM    5  C5  UNL     1      24.716   3.049  50.269  1.00  0.00     0.236 A 
HETATM    6  N2  UNL     1      25.466   2.684  51.312  1.00  0.00    -0.224 NA
HETATM    7  C6  UNL     1      25.081   1.842  52.276  1.00  0.00     0.142 A 
HETATM    8  C12 UNL     1      23.803   1.354  52.118  1.00  0.00     0.042 A 
HETATM    9  C13 UNL     1      23.198   0.474  52.987  1.00  0.00     0.057 A 
HETATM   10  C14 UNL     1      21.931  -0.040  52.874  1.00  0.00     0.102 A 
ENDROOT
BRANCH   7  11
HETATM   11  N3  UNL     1      25.850   1.440  53.387  1.00  0.00    -0.335 N 
HETATM   12  H6  UNL     1      25.618   1.741  54.330  1.00  0.00     0.168 HD
BRANCH  11  13
HETATM   13  C7  UNL     1      26.995   0.604  53.375  1.00  0.00     0.063 A 
HETATM   14  S1  UNL     1      28.498   1.161  53.742  1.00  0.00    -0.157 SA
HETATM   15  C8  UNL     1      29.803  -0.074  53.664  1.00  0.00     0.038 A 
HETATM   16  H7  UNL     1      28.726   2.513  54.087  1.00  0.00     0.102 HD
HETATM   17  C9  UNL     1      29.435  -1.286  53.326  1.00  0.00     0.006 A 
HETATM   18  C10 UNL     1      28.045  -1.599  53.035  1.00  0.00     0.003 A 
HETATM   19  C11 UNL     1      27.004  -0.812  53.051  1.00  0.00     0.036 A 
ENDBRANCH  11  13
ENDBRANCH   7  11
BRANCH  10  20
HETATM   20  O2  UNL     1      21.397  -0.926  53.802  1.00  0.00    -0.353 OA
HETATM   21  C15 UNL     1      22.187  -1.237  54.959  1.00  0.00     0.210 C 
ENDBRANCH  10  20
BRANCH   1  22
HETATM   22  O1  UNL     1      19.885  -0.149  51.640  1.00  0.00    -0.353 OA
HETATM   23  C1  UNL     1      18.960   0.601  50.874  1.00  0.00     0.210 C 
ENDBRANCH   1  22
TORSDOF 4
ENDMDL
MODEL 4
REMARK VINA RESULT:      -7.1      1.922      2.796
REMARK  4 active torsions:
REMARK  status: ('A' for Active; 'I' for Inactive)
REMARK    1  A    between atoms: O1_2  and  C2_3 
REMARK    2  A    between atoms: C6_9  and  N3_10 
REMARK    3  A    between atoms: N3_10  and  C7_11 
REMARK    4  A    between atoms: C14_19  and  O2_20 
ROOT
HETATM    1  C2  UNL     1      22.426   1.979  50.283  1.00  0.00     0.103 A 
HETATM    2  C3  UNL     1      21.755   1.034  51.030  1.00  0.00     0.072 A 
HETATM    3  C4  UNL     1      22.374   0.447  52.109  1.00  0.00     0.075 A 
HETATM    4  N1  UNL     1      21.664  -0.475  52.806  1.00  0.00    -0.241 NA
HETATM    5  C5  UNL     1      22.233  -1.073  53.868  1.00  0.00     0.236 A 
HETATM    6  N2  UNL     1      23.480  -0.758  54.227  1.00  0.00    -0.224 NA
HETATM    7  C6  UNL     1      24.255   0.135  53.605  1.00  0.00     0.142 A 
HETATM    8  C12 UNL     1      23.658   0.738  52.520  1.00  0.00     0.042 A 
HETATM    9  C13 UNL     1      24.266   1.688  51.731  1.00  0.00     0.057 A 
HETATM   10  C14 UNL     1      23.715   2.316  50.642  1.00  0.00     0.102 A 
ENDROOT
BRANCH   7  11
HETATM   11  N3  UNL     1      25.572   0.488  53.961  1.00  0.00    -0.335 N 
HETATM   12  H6  UNL     1      25.777   1.362  54.438  1.00  0.00     0.168 HD
BRANCH  11  13
HETATM   13  C7  UNL     1      26.750  -0.266  53.731  1.00  0.00     0.063 A 
HETATM   14  S1  UNL     1      28.212   0.171  54.344  1.00  0.00    -0.157 SA
HETATM   15  C8  UNL     1      29.569  -0.932  53.927  1.00  0.00     0.038 A 
HETATM   16  H7  UNL     1      28.369   1.333  55.135  1.00  0.00     0.102 HD
HETATM   17  C9  UNL     1      29.266  -1.968  53.182  1.00  0.00     0.006 A 
HETATM   18  C10 UNL     1      27.904  -2.198  52.728  1.00  0.00     0.003 A 
HETATM   19  C11 UNL     1      26.831  -1.489  52.951  1.00  0.00     0.036 A 
ENDBRANCH  11  13
ENDBRANCH   7  11
BRANCH  10  20
HETATM   20  O2  UNL     1      24.403   3.267  49.899  1.00  0.00    -0.353 OA
HETATM   21  C15 UNL     1      25.832   3.305  50.024  1.00  0.00     0.210 C 
ENDBRANCH  10  20
BRANCH   1  22
HETATM   22  O1  UNL     1      21.833   2.589  49.191  1.00  0.00    -0.353 OA
HETATM   23  C1  UNL     1      20.877   1.856  48.448  1.00  0.00     0.210 C 
ENDBRANCH   1  22
TORSDOF 4
ENDMDL
MODEL 5
REMARK VINA RESULT:      -6.7      4.077      5.235
REMARK  4 active torsions:
REMARK  status: ('A' for Active; 'I' for Inactive)
REMARK    1  A    between atoms: O1_2  and  C2_3 
REMARK    2  A    between atoms: C6_9  and  N3_10 
REMARK    3  A    between atoms: N3_10  and  C7_11 
REMARK    4  A    between atoms: C14_19  and  O2_20 
ROOT
HETATM    1  C2  UNL     1      22.697   1.001  52.474  1.00  0.00     0.103 A 
HETATM    2  C3  UNL     1      23.830   0.980  53.260  1.00  0.00     0.072 A 
HETATM    3  C4  UNL     1      25.017   1.468  52.765  1.00  0.00     0.075 A 
HETATM    4  N1  UNL     1      26.097   1.421  53.583  1.00  0.00    -0.241 NA
HETATM    5  C5  UNL     1      27.277   1.888  53.138  1.00  0.00     0.236 A 
HETATM    6  N2  UNL     1      27.378   2.391  51.905  1.00  0.00    -0.224 NA
HETATM    7  C6  UNL     1      26.372   2.480  51.029  1.00  0.00     0.142 A 
HETATM    8  C12 UNL     1      25.172   1.997  51.501  1.00  0.00     0.042 A 
HETATM    9  C13 UNL     1      24.002   1.988  50.774  1.00  0.00     0.057 A 
HETATM   10  C14 UNL     1      22.784   1.518  51.198  1.00  0.00     0.102 A 
ENDROOT
BRANCH   7  11
HETATM   11  N3  UNL     1      26.448   3.006  49.723  1.00  0.00    -0.335 N 
HETATM   12  H6  UNL     1      26.359   2.409  48.905  1.00  0.00     0.168 HD
BRANCH  11  13
HETATM   13  C7  UNL     1      26.647   4.361  49.358  1.00  0.00     0.063 A 
HETATM   14  S1  UNL     1      25.587   5.550  49.767  1.00  0.00    -0.157 SA
HETATM   15  C8  UNL     1      26.039   7.195  49.200  1.00  0.00     0.038 A 
HETATM   16  H7  UNL     1      24.413   5.277  50.508  1.00  0.00     0.102 HD
HETATM   17  C9  UNL     1      27.157   7.288  48.522  1.00  0.00     0.006 A 
HETATM   18  C10 UNL     1      27.976   6.117  48.253  1.00  0.00     0.003 A 
HETATM   19  C11 UNL     1      27.774   4.875  48.599  1.00  0.00     0.036 A 
ENDBRANCH  11  13
ENDBRANCH   7  11
BRANCH  10  20
HETATM   20  O2  UNL     1      21.650   1.547  50.395  1.00  0.00    -0.353 OA
HETATM   21  C15 UNL     1      20.926   2.782  50.306  1.00  0.00     0.210 C 
ENDBRANCH  10  20
BRANCH   1  22
HETATM   22  O1  UNL     1      21.487   0.518  52.941  1.00  0.00    -0.353 OA
HETATM   23  C1  UNL     1      21.468  -0.746  53.579  1.00  0.00     0.210 C 
ENDBRANCH   1  22
TORSDOF 4
ENDMDL
MODEL 6
REMARK VINA RESULT:      -6.5      2.719      4.055
REMARK  4 active torsions:
REMARK  status: ('A' for Active; 'I' for Inactive)
REMARK    1  A    between atoms: O1_2  and  C2_3 
REMARK    2  A    between atoms: C6_9  and  N3_10 
REMARK    3  A    between atoms: N3_10  and  C7_11 
REMARK    4  A    between atoms: C14_19  and  O2_20 
ROOT
HETATM    1  C2  UNL     1      22.599   4.355  50.527  1.00  0.00     0.103 A 
HETATM    2  C3  UNL     1      21.888   3.562  51.402  1.00  0.00     0.072 A 
HETATM    3  C4  UNL     1      22.478   2.447  51.951  1.00  0.00     0.075 A 
HETATM    4  N1  UNL     1      21.729   1.706  52.805  1.00  0.00    -0.241 NA
HETATM    5  C5  UNL     1      22.268   0.608  53.363  1.00  0.00     0.236 A 
HETATM    6  N2  UNL     1      23.525   0.258  53.079  1.00  0.00    -0.224 NA
HETATM    7  C6  UNL     1      24.338   0.924  52.253  1.00  0.00     0.142 A 
HETATM    8  C12 UNL     1      23.770   2.045  51.690  1.00  0.00     0.042 A 
HETATM    9  C13 UNL     1      24.420   2.883  50.811  1.00  0.00     0.057 A 
HETATM   10  C14 UNL     1      23.898   4.008  50.223  1.00  0.00     0.102 A 
ENDROOT
BRANCH   7  11
HETATM   11  N3  UNL     1      25.667   0.579  51.934  1.00  0.00    -0.335 N 
HETATM   12  H6  UNL     1      25.896   0.093  51.072  1.00  0.00     0.168 HD
BRANCH  11  13
HETATM   13  C7  UNL     1      26.826   0.836  52.710  1.00  0.00     0.063 A 
HETATM   14  S1  UNL     1      27.610  -0.344  53.543  1.00  0.00    -0.157 SA
HETATM   15  C8  UNL     1      29.057   0.207  54.457  1.00  0.00     0.038 A 
HETATM   16  H7  UNL     1      27.163  -1.686  53.530  1.00  0.00     0.102 HD
HETATM   17  C9  UNL     1      29.344   1.484  54.373  1.00  0.00     0.006 A 
HETATM   18  C10 UNL     1      28.529   2.390  53.580  1.00  0.00     0.003 A 
HETATM   19  C11 UNL     1      27.463   2.132  52.872  1.00  0.00     0.036 A 
ENDBRANCH  11  13
ENDBRANCH   7  11
BRANCH  10  20
HETATM   20  O2  UNL     1      24.628   4.799  49.343  1.00  0.00    -0.353 OA
HETATM   21  C15 UNL     1      25.531   5.762  49.904  1.00  0.00     0.210 C 
ENDBRANCH  10  20
BRANCH   1  22
HETATM   22  O1  UNL     1      22.035   5.484  49.956  1.00  0.00    -0.353 OA
HETATM   23  C1  UNL     1      21.640   6.543  50.808  1.00  0.00     0.210 C 
ENDBRANCH   1  22
TORSDOF 4
ENDMDL
MODEL 7
REMARK VINA RESULT:      -6.5      8.809     12.206
REMARK  4 active torsions:
REMARK  status: ('A' for Active; 'I' for Inactive)
REMARK    1  A    between atoms: O1_2  and  C2_3 
REMARK    2  A    between atoms: C6_9  and  N3_10 
REMARK    3  A    between atoms: N3_10  and  C7_11 
REMARK    4  A    between atoms: C14_19  and  O2_20 
ROOT
HETATM    1  C2  UNL     1      33.332   6.155  47.978  1.00  0.00     0.103 A 
HETATM    2  C3  UNL     1      33.040   7.352  48.596  1.00  0.00     0.072 A 
HETATM    3  C4  UNL     1      31.734   7.770  48.697  1.00  0.00     0.075 A 
HETATM    4  N1  UNL     1      31.508   8.956  49.315  1.00  0.00    -0.241 NA
HETATM    5  C5  UNL     1      30.245   9.401  49.436  1.00  0.00     0.236 A 
HETATM    6  N2  UNL     1      29.230   8.681  48.952  1.00  0.00    -0.224 NA
HETATM    7  C6  UNL     1      29.354   7.504  48.330  1.00  0.00     0.142 A 
HETATM    8  C12 UNL     1      30.653   7.063  48.215  1.00  0.00     0.042 A 
HETATM    9  C13 UNL     1      31.018   5.880  47.613  1.00  0.00     0.057 A 
HETATM   10  C14 UNL     1      32.295   5.398  47.473  1.00  0.00     0.102 A 
ENDROOT
BRANCH   7  11
HETATM   11  N3  UNL     1      28.302   6.722  47.810  1.00  0.00    -0.335 N 
HETATM   12  H6  UNL     1      28.128   6.665  46.810  1.00  0.00     0.168 HD
BRANCH  11  13
HETATM   13  C7  UNL     1      27.376   5.939  48.544  1.00  0.00     0.063 A 
HETATM   14  S1  UNL     1      26.023   6.579  49.224  1.00  0.00    -0.157 SA
HETATM   15  C8  UNL     1      24.990   5.402  50.108  1.00  0.00     0.038 A 
HETATM   16  H7  UNL     1      25.714   7.955  49.112  1.00  0.00     0.102 HD
HETATM   17  C9  UNL     1      25.411   4.161  50.125  1.00  0.00     0.006 A 
HETATM   18  C10 UNL     1      26.645   3.773  49.461  1.00  0.00     0.003 A 
HETATM   19  C11 UNL     1      27.486   4.512  48.790  1.00  0.00     0.036 A 
ENDBRANCH  11  13
ENDBRANCH   7  11
BRANCH  10  20
HETATM   20  O2  UNL     1      32.574   4.189  46.848  1.00  0.00    -0.353 OA
HETATM   21  C15 UNL     1      32.771   3.037  47.680  1.00  0.00     0.210 C 
ENDBRANCH  10  20
BRANCH   1  22
HETATM   22  O1  UNL     1      34.636   5.704  47.858  1.00  0.00    -0.353 OA
HETATM   23  C1  UNL     1      35.524   5.918  48.940  1.00  0.00     0.210 C 
ENDBRANCH   1  22
TORSDOF 4
ENDMDL
MODEL 8
REMARK VINA RESULT:      -6.4      4.612      6.478
REMARK  4 active torsions:
REMARK  status: ('A' for Active; 'I' for Inactive)
REMARK    1  A    between atoms: O1_2  and  C2_3 
REMARK    2  A    between atoms: C6_9  and  N3_10 
REMARK    3  A    between atoms: N3_10  and  C7_11 
REMARK    4  A    between atoms: C14_19  and  O2_20 
ROOT
HETATM    1  C2  UNL     1      24.699   6.307  48.250  1.00  0.00     0.103 A 
HETATM    2  C3  UNL     1      23.700   5.452  48.664  1.00  0.00     0.072 A 
HETATM    3  C4  UNL     1      23.992   4.431  49.538  1.00  0.00     0.075 A 
HETATM    4  N1  UNL     1      22.969   3.622  49.911  1.00  0.00    -0.241 NA
HETATM    5  C5  UNL     1      23.211   2.611  50.764  1.00  0.00     0.236 A 
HETATM    6  N2  UNL     1      24.444   2.411  51.235  1.00  0.00    -0.224 NA
HETATM    7  C6  UNL     1      25.512   3.153  50.927  1.00  0.00     0.142 A 
HETATM    8  C12 UNL     1      25.247   4.184  50.053  1.00  0.00     0.042 A 
HETATM    9  C13 UNL     1      26.192   5.075  49.597  1.00  0.00     0.057 A 
HETATM   10  C14 UNL     1      25.978   6.115  48.728  1.00  0.00     0.102 A 
ENDROOT
BRANCH   7  11
HETATM   11  N3  UNL     1      26.824   2.967  51.408  1.00  0.00    -0.335 N 
HETATM   12  H6  UNL     1      27.573   3.613  51.172  1.00  0.00     0.168 HD
BRANCH  11  13
HETATM   13  C7  UNL     1      27.286   1.920  52.245  1.00  0.00     0.063 A 
HETATM   14  S1  UNL     1      28.320   2.182  53.497  1.00  0.00    -0.157 SA
HETATM   15  C8  UNL     1      28.773   0.711  54.425  1.00  0.00     0.038 A 
HETATM   16  H7  UNL     1      28.806   3.475  53.802  1.00  0.00     0.102 HD
HETATM   17  C9  UNL     1      28.242  -0.417  54.020  1.00  0.00     0.006 A 
HETATM   18  C10 UNL     1      27.338  -0.459  52.882  1.00  0.00     0.003 A 
HETATM   19  C11 UNL     1      26.925   0.519  52.122  1.00  0.00     0.036 A 
ENDBRANCH  11  13
ENDBRANCH   7  11
BRANCH  10  20
HETATM   20  O2  UNL     1      26.995   6.970  48.319  1.00  0.00    -0.353 OA
HETATM   21  C15 UNL     1      28.296   6.404  48.104  1.00  0.00     0.210 C 
ENDBRANCH  10  20
BRANCH   1  22
HETATM   22  O1  UNL     1      24.440   7.346  47.371  1.00  0.00    -0.353 OA
HETATM   23  C1  UNL     1      23.116   7.513  46.898  1.00  0.00     0.210 C 
ENDBRANCH   1  22
TORSDOF 4
ENDMDL
MODEL 9
REMARK VINA RESULT:      -6.4      3.690      6.678
REMARK  4 active torsions:
REMARK  status: ('A' for Active; 'I' for Inactive)
REMARK    1  A    between atoms: O1_2  and  C2_3 
REMARK    2  A    between atoms: C6_9  and  N3_10 
REMARK    3  A    between atoms: N3_10  and  C7_11 
REMARK    4  A    between atoms: C14_19  and  O2_20 
ROOT
HETATM    1  C2  UNL     1      25.758   4.144  49.921  1.00  0.00     0.103 A 
HETATM    2  C3  UNL     1      26.480   3.012  50.236  1.00  0.00     0.072 A 
HETATM    3  C4  UNL     1      25.991   2.124  51.166  1.00  0.00     0.075 A 
HETATM    4  N1  UNL     1      26.745   1.029  51.434  1.00  0.00    -0.241 NA
HETATM    5  C5  UNL     1      26.304   0.137  52.339  1.00  0.00     0.236 A 
HETATM    6  N2  UNL     1      25.138   0.331  52.960  1.00  0.00    -0.224 NA
HETATM    7  C6  UNL     1      24.329   1.376  52.762  1.00  0.00     0.142 A 
HETATM    8  C12 UNL     1      24.795   2.280  51.834  1.00  0.00     0.042 A 
HETATM    9  C13 UNL     1      24.129   3.429  51.470  1.00  0.00     0.057 A 
HETATM   10  C14 UNL     1      24.552   4.359  50.554  1.00  0.00     0.102 A 
ENDROOT
BRANCH   7  11
HETATM   11  N3  UNL     1      23.094   1.607  53.402  1.00  0.00    -0.335 N 
HETATM   12  H6  UNL     1      22.931   2.446  53.952  1.00  0.00     0.168 HD
BRANCH  11  13
HETATM   13  C7  UNL     1      21.953   0.766  53.386  1.00  0.00     0.063 A 
HETATM   14  S1  UNL     1      20.626   1.096  52.473  1.00  0.00    -0.157 SA
HETATM   15  C8  UNL     1      19.296  -0.107  52.606  1.00  0.00     0.038 A 
HETATM   16  H7  UNL     1      20.555   2.247  51.654  1.00  0.00     0.102 HD
HETATM   17  C9  UNL     1      19.510  -1.120  53.410  1.00  0.00     0.006 A 
HETATM   18  C10 UNL     1      20.758  -1.251  54.144  1.00  0.00     0.003 A 
HETATM   19  C11 UNL     1      21.798  -0.463  54.145  1.00  0.00     0.036 A 
ENDBRANCH  11  13
ENDBRANCH   7  11
BRANCH  10  20
HETATM   20  O2  UNL     1      23.813   5.495  50.247  1.00  0.00    -0.353 OA
HETATM   21  C15 UNL     1      23.871   6.597  51.163  1.00  0.00     0.210 C 
ENDBRANCH  10  20
BRANCH   1  22
HETATM   22  O1  UNL     1      26.220   5.058  48.989  1.00  0.00    -0.353 OA
HETATM   23  C1  UNL     1      27.589   5.017  48.629  1.00  0.00     0.210 C 
ENDBRANCH   1  22
TORSDOF 4
ENDMDL
