MODEL 1
REMARK VINA RESULT:      -7.4      0.000      0.000
REMARK  7 active torsions:
REMARK  status: ('A' for Active; 'I' for Inactive)
REMARK    1  A    between atoms: C4_5  and  O1_6 
REMARK    2  A    between atoms: C7_9  and  S1_10 
REMARK    3  A    between atoms: S1_10  and  O2_11 
REMARK    4  A    between atoms: C8_12  and  C9_13 
REMARK    5  A    between atoms: C10_14  and  N2_15 
REMARK    6  A    between atoms: C10_14  and  N3_16 
REMARK    7  A    between atoms: N3_16  and  C11_17 
ROOT
HETATM    1  C9  UNL     1      23.456   2.188  52.551  1.00  0.00     0.175 C 
HETATM    2  C10 UNL     1      24.635   2.700  52.284  1.00  0.00     0.083 C 
ENDROOT
BRANCH   1   3
HETATM    3  C8  UNL     1      22.651   1.108  53.017  1.00  0.00    -0.005 A 
HETATM    4  C2  UNL     1      22.779  -0.101  53.845  1.00  0.00     0.060 A 
HETATM    5  N1  UNL     1      24.019  -0.174  54.264  1.00  0.00    -0.294 NA
HETATM    6  C3  UNL     1      21.768  -1.060  54.169  1.00  0.00     0.064 A 
HETATM    7  C1  UNL     1      24.368  -1.293  55.098  1.00  0.00     0.178 C 
HETATM    8  C4  UNL     1      20.634  -0.722  53.609  1.00  0.00     0.052 A 
HETATM    9  C6  UNL     1      20.293   0.430  52.754  1.00  0.00     0.113 A 
HETATM   10  C7  UNL     1      21.427   1.342  52.497  1.00  0.00     0.021 A 
BRANCH   8  11
HETATM   11  O1  UNL     1      19.589  -1.580  53.855  1.00  0.00    -0.360 OA
HETATM   12  C5  UNL     1      18.288  -1.416  53.341  1.00  0.00     0.209 C 
ENDBRANCH   8  11
BRANCH  10  13
HETATM   13  S1  UNL     1      20.657   2.563  51.465  1.00  0.00     0.022 SA
BRANCH  13  14
HETATM   14  O2  UNL     1      19.588   3.553  52.278  1.00  0.00    -0.325 OA
HETATM   15  H10 UNL     1      20.055   4.131  52.931  1.00  0.00     0.228 HD
ENDBRANCH  13  14
ENDBRANCH  10  13
ENDBRANCH   1   3
BRANCH   2  16
HETATM   16  N2  UNL     1      24.602   4.046  51.761  1.00  0.00    -0.410 N 
HETATM   17  H12 UNL     1      25.484   4.619  51.646  1.00  0.00     0.151 HD
HETATM   18  H13 UNL     1      24.101   4.860  51.387  1.00  0.00     0.151 HD
ENDBRANCH   2  16
BRANCH   2  19
HETATM   19  N3  UNL     1      26.072   2.787  52.171  1.00  0.00    -0.368 N 
HETATM   20  H14 UNL     1      26.524   3.635  51.710  1.00  0.00     0.161 HD
BRANCH  19  21
HETATM   21  C11 UNL     1      26.971   1.763  52.648  1.00  0.00     0.030 A 
HETATM   22  C12 UNL     1      28.089   2.168  53.381  1.00  0.00     0.029 A 
HETATM   23  C13 UNL     1      29.040   1.345  53.910  1.00  0.00     0.004 A 
HETATM   24  C14 UNL     1      28.882  -0.014  53.698  1.00  0.00     0.019 A 
HETATM   25  C15 UNL     1      27.777  -0.453  52.970  1.00  0.00     0.013 A 
HETATM   26 BR1  UNL     1      27.557  -2.331  52.679  1.00  0.00    -0.051 Br
HETATM   27  C16 UNL     1      26.844   0.388  52.455  1.00  0.00     0.048 A 
ENDBRANCH  19  21
ENDBRANCH   2  19
TORSDOF 7
ENDMDL
MODEL 2
REMARK VINA RESULT:      -7.3      4.247      5.308
REMARK  7 active torsions:
REMARK  status: ('A' for Active; 'I' for Inactive)
REMARK    1  A    between atoms: C4_5  and  O1_6 
REMARK    2  A    between atoms: C7_9  and  S1_10 
REMARK    3  A    between atoms: S1_10  and  O2_11 
REMARK    4  A    between atoms: C8_12  and  C9_13 
REMARK    5  A    between atoms: C10_14  and  N2_15 
REMARK    6  A    between atoms: C10_14  and  N3_16 
REMARK    7  A    between atoms: N3_16  and  C11_17 
ROOT
HETATM    1  C9  UNL     1      23.430   4.234  52.370  1.00  0.00     0.175 C 
HETATM    2  C10 UNL     1      23.846   5.209  51.596  1.00  0.00     0.083 C 
ENDROOT
BRANCH   1   3
HETATM    3  C8  UNL     1      22.913   2.915  52.532  1.00  0.00    -0.005 A 
HETATM    4  C2  UNL     1      21.631   2.201  52.437  1.00  0.00     0.060 A 
HETATM    5  N1  UNL     1      20.709   3.069  52.099  1.00  0.00    -0.294 NA
HETATM    6  C3  UNL     1      21.377   0.811  52.663  1.00  0.00     0.064 A 
HETATM    7  C1  UNL     1      19.365   2.578  51.950  1.00  0.00     0.178 C 
HETATM    8  C4  UNL     1      22.488   0.199  52.985  1.00  0.00     0.052 A 
HETATM    9  C6  UNL     1      23.859   0.718  53.135  1.00  0.00     0.113 A 
HETATM   10  C7  UNL     1      23.984   2.167  52.874  1.00  0.00     0.021 A 
BRANCH   8  11
HETATM   11  O1  UNL     1      22.357  -1.148  53.226  1.00  0.00    -0.360 OA
HETATM   12  C5  UNL     1      21.532  -1.700  54.224  1.00  0.00     0.209 C 
ENDBRANCH   8  11
BRANCH  10  13
HETATM   13  S1  UNL     1      25.720   2.416  53.147  1.00  0.00     0.022 SA
BRANCH  13  14
HETATM   14  O2  UNL     1      26.294   1.682  54.531  1.00  0.00    -0.325 OA
HETATM   15  H10 UNL     1      25.707   1.862  55.306  1.00  0.00     0.228 HD
ENDBRANCH  13  14
ENDBRANCH  10  13
ENDBRANCH   1   3
BRANCH   2  16
HETATM   16  N2  UNL     1      24.267   6.399  52.300  1.00  0.00    -0.410 N 
HETATM   17  H12 UNL     1      23.575   7.018  52.807  1.00  0.00     0.151 HD
HETATM   18  H13 UNL     1      24.989   7.057  52.614  1.00  0.00     0.151 HD
ENDBRANCH   2  16
BRANCH   2  19
HETATM   19  N3  UNL     1      24.184   5.917  50.383  1.00  0.00    -0.368 N 
HETATM   20  H14 UNL     1      23.483   6.584  49.938  1.00  0.00     0.161 HD
BRANCH  19  21
HETATM   21  C11 UNL     1      25.448   5.769  49.702  1.00  0.00     0.030 A 
HETATM   22  C12 UNL     1      26.030   4.499  49.677  1.00  0.00     0.029 A 
HETATM   23  C13 UNL     1      27.215   4.173  49.083  1.00  0.00     0.004 A 
HETATM   24  C14 UNL     1      27.900   5.194  48.448  1.00  0.00     0.019 A 
HETATM   25  C15 UNL     1      27.349   6.475  48.453  1.00  0.00     0.013 A 
HETATM   26 BR1  UNL     1      28.295   7.887  47.576  1.00  0.00    -0.051 Br
HETATM   27  C16 UNL     1      26.167   6.773  49.053  1.00  0.00     0.048 A 
ENDBRANCH  19  21
ENDBRANCH   2  19
TORSDOF 7
ENDMDL
MODEL 3
REMARK VINA RESULT:      -7.3      4.035      6.943
REMARK  7 active torsions:
REMARK  status: ('A' for Active; 'I' for Inactive)
REMARK    1  A    between atoms: C4_5  and  O1_6 
REMARK    2  A    between atoms: C7_9  and  S1_10 
REMARK    3  A    between atoms: S1_10  and  O2_11 
REMARK    4  A    between atoms: C8_12  and  C9_13 
REMARK    5  A    between atoms: C10_14  and  N2_15 
REMARK    6  A    between atoms: C10_14  and  N3_16 
REMARK    7  A    between atoms: N3_16  and  C11_17 
ROOT
HETATM    1  C9  UNL     1      23.461   1.294  51.527  1.00  0.00     0.175 C 
HETATM    2  C10 UNL     1      22.289   1.740  51.138  1.00  0.00     0.083 C 
ENDROOT
BRANCH   1   3
HETATM    3  C8  UNL     1      24.308   0.755  52.540  1.00  0.00    -0.005 A 
HETATM    4  C2  UNL     1      24.218  -0.122  53.718  1.00  0.00     0.060 A 
HETATM    5  N1  UNL     1      22.971  -0.505  53.842  1.00  0.00    -0.294 NA
HETATM    6  C3  UNL     1      25.269  -0.518  54.604  1.00  0.00     0.064 A 
HETATM    7  C1  UNL     1      22.656  -1.377  54.942  1.00  0.00     0.178 C 
HETATM    8  C4  UNL     1      26.400   0.021  54.227  1.00  0.00     0.052 A 
HETATM    9  C6  UNL     1      26.706   0.915  53.096  1.00  0.00     0.113 A 
HETATM   10  C7  UNL     1      25.534   1.247  52.260  1.00  0.00     0.021 A 
BRANCH   8  11
HETATM   11  O1  UNL     1      27.482  -0.295  55.014  1.00  0.00    -0.360 OA
HETATM   12  C5  UNL     1      28.823  -0.068  54.649  1.00  0.00     0.209 C 
ENDBRANCH   8  11
BRANCH  10  13
HETATM   13  S1  UNL     1      26.270   2.309  51.043  1.00  0.00     0.022 SA
BRANCH  13  14
HETATM   14  O2  UNL     1      27.623   3.117  51.588  1.00  0.00    -0.325 OA
HETATM   15  H10 UNL     1      27.461   3.542  52.467  1.00  0.00     0.228 HD
ENDBRANCH  13  14
ENDBRANCH  10  13
ENDBRANCH   1   3
BRANCH   2  16
HETATM   16  N2  UNL     1      22.234   2.164  49.758  1.00  0.00    -0.410 N 
HETATM   17  H12 UNL     1      22.930   2.854  49.361  1.00  0.00     0.151 HD
HETATM   18  H13 UNL     1      21.814   2.146  48.822  1.00  0.00     0.151 HD
ENDBRANCH   2  16
BRANCH   2  19
HETATM   19  N3  UNL     1      20.895   2.110  51.214  1.00  0.00    -0.368 N 
HETATM   20  H14 UNL     1      20.606   3.132  51.131  1.00  0.00     0.161 HD
BRANCH  19  21
HETATM   21  C11 UNL     1      19.828   1.157  51.410  1.00  0.00     0.030 A 
HETATM   22  C12 UNL     1      19.837   0.404  52.586  1.00  0.00     0.029 A 
HETATM   23  C13 UNL     1      18.915  -0.538  52.941  1.00  0.00     0.004 A 
HETATM   24  C14 UNL     1      17.878  -0.765  52.053  1.00  0.00     0.019 A 
HETATM   25  C15 UNL     1      17.837  -0.030  50.869  1.00  0.00     0.013 A 
HETATM   26 BR1  UNL     1      16.404  -0.343  49.641  1.00  0.00    -0.051 Br
HETATM   27  C16 UNL     1      18.769   0.902  50.540  1.00  0.00     0.048 A 
ENDBRANCH  19  21
ENDBRANCH   2  19
TORSDOF 7
ENDMDL
MODEL 4
REMARK VINA RESULT:      -7.2      3.820      7.503
REMARK  7 active torsions:
REMARK  status: ('A' for Active; 'I' for Inactive)
REMARK    1  A    between atoms: C4_5  and  O1_6 
REMARK    2  A    between atoms: C7_9  and  S1_10 
REMARK    3  A    between atoms: S1_10  and  O2_11 
REMARK    4  A    between atoms: C8_12  and  C9_13 
REMARK    5  A    between atoms: C10_14  and  N2_15 
REMARK    6  A    between atoms: C10_14  and  N3_16 
REMARK    7  A    between atoms: N3_16  and  C11_17 
ROOT
HETATM    1  C9  UNL     1      23.396   0.047  53.576  1.00  0.00     0.175 C 
HETATM    2  C10 UNL     1      22.277  -0.395  54.103  1.00  0.00     0.083 C 
ENDROOT
BRANCH   1   3
HETATM    3  C8  UNL     1      24.091   0.965  52.736  1.00  0.00    -0.005 A 
HETATM    4  C2  UNL     1      23.832   2.198  51.976  1.00  0.00     0.060 A 
HETATM    5  N1  UNL     1      22.573   2.520  52.148  1.00  0.00    -0.294 NA
HETATM    6  C3  UNL     1      24.748   2.951  51.177  1.00  0.00     0.064 A 
HETATM    7  C1  UNL     1      22.100   3.706  51.485  1.00  0.00     0.178 C 
HETATM    8  C4  UNL     1      25.929   2.385  51.196  1.00  0.00     0.052 A 
HETATM    9  C6  UNL     1      26.397   1.166  51.881  1.00  0.00     0.113 A 
HETATM   10  C7  UNL     1      25.352   0.484  52.671  1.00  0.00     0.021 A 
BRANCH   8  11
HETATM   11  O1  UNL     1      26.890   3.029  50.455  1.00  0.00    -0.360 OA
HETATM   12  C5  UNL     1      26.619   4.006  49.477  1.00  0.00     0.209 C 
ENDBRANCH   8  11
BRANCH  10  13
HETATM   13  S1  UNL     1      26.260  -0.894  53.324  1.00  0.00     0.022 SA
BRANCH  13  14
HETATM   14  O2  UNL     1      27.160  -0.523  54.679  1.00  0.00    -0.325 OA
HETATM   15  H10 UNL     1      28.109  -0.777  54.564  1.00  0.00     0.228 HD
ENDBRANCH  13  14
ENDBRANCH  10  13
ENDBRANCH   1   3
BRANCH   2  16
HETATM   16  N2  UNL     1      22.435  -1.529  54.984  1.00  0.00    -0.410 N 
HETATM   17  H12 UNL     1      22.515  -1.411  56.032  1.00  0.00     0.151 HD
HETATM   18  H13 UNL     1      22.523  -2.538  55.155  1.00  0.00     0.151 HD
ENDBRANCH   2  16
BRANCH   2  19
HETATM   19  N3  UNL     1      20.865  -0.482  54.391  1.00  0.00    -0.368 N 
HETATM   20  H14 UNL     1      20.529  -0.628  55.391  1.00  0.00     0.161 HD
BRANCH  19  21
HETATM   21  C11 UNL     1      19.840  -0.390  53.379  1.00  0.00     0.030 A 
HETATM   22  C12 UNL     1      18.703  -1.188  53.529  1.00  0.00     0.029 A 
HETATM   23  C13 UNL     1      17.638  -1.232  52.677  1.00  0.00     0.004 A 
HETATM   24  C14 UNL     1      17.690  -0.411  51.564  1.00  0.00     0.019 A 
HETATM   25  C15 UNL     1      18.810   0.399  51.382  1.00  0.00     0.013 A 
HETATM   26 BR1  UNL     1      18.884   1.535  49.845  1.00  0.00    -0.051 Br
HETATM   27  C16 UNL     1      19.857   0.424  52.246  1.00  0.00     0.048 A 
ENDBRANCH  19  21
ENDBRANCH   2  19
TORSDOF 7
ENDMDL
MODEL 5
REMARK VINA RESULT:      -7.2      4.014      5.152
REMARK  7 active torsions:
REMARK  status: ('A' for Active; 'I' for Inactive)
REMARK    1  A    between atoms: C4_5  and  O1_6 
REMARK    2  A    between atoms: C7_9  and  S1_10 
REMARK    3  A    between atoms: S1_10  and  O2_11 
REMARK    4  A    between atoms: C8_12  and  C9_13 
REMARK    5  A    between atoms: C10_14  and  N2_15 
REMARK    6  A    between atoms: C10_14  and  N3_16 
REMARK    7  A    between atoms: N3_16  and  C11_17 
ROOT
HETATM    1  C9  UNL     1      25.083   1.960  52.311  1.00  0.00     0.175 C 
HETATM    2  C10 UNL     1      25.927   2.421  51.417  1.00  0.00     0.083 C 
ENDROOT
BRANCH   1   3
HETATM    3  C8  UNL     1      23.793   1.458  52.654  1.00  0.00    -0.005 A 
HETATM    4  C2  UNL     1      22.380   1.856  52.558  1.00  0.00     0.060 A 
HETATM    5  N1  UNL     1      22.330   3.028  51.974  1.00  0.00    -0.294 NA
HETATM    6  C3  UNL     1      21.228   1.134  53.004  1.00  0.00     0.064 A 
HETATM    7  C1  UNL     1      21.030   3.611  51.778  1.00  0.00     0.178 C 
HETATM    8  C4  UNL     1      21.592  -0.000  53.545  1.00  0.00     0.052 A 
HETATM    9  C6  UNL     1      22.932  -0.584  53.740  1.00  0.00     0.113 A 
HETATM   10  C7  UNL     1      24.033   0.263  53.236  1.00  0.00     0.021 A 
BRANCH   8  11
HETATM   11  O1  UNL     1      20.559  -0.777  54.011  1.00  0.00    -0.360 OA
HETATM   12  C5  UNL     1      19.274  -0.819  53.434  1.00  0.00     0.209 C 
ENDBRANCH   8  11
BRANCH  10  13
HETATM   13  S1  UNL     1      25.445  -0.736  53.637  1.00  0.00     0.022 SA
BRANCH  13  14
HETATM   14  O2  UNL     1      26.008  -0.507  55.191  1.00  0.00    -0.325 OA
HETATM   15  H10 UNL     1      26.572   0.304  55.256  1.00  0.00     0.228 HD
ENDBRANCH  13  14
ENDBRANCH  10  13
ENDBRANCH   1   3
BRANCH   2  16
HETATM   16  N2  UNL     1      27.232   2.756  51.939  1.00  0.00    -0.410 N 
HETATM   17  H12 UNL     1      28.043   2.080  51.883  1.00  0.00     0.151 HD
HETATM   18  H13 UNL     1      27.883   3.399  52.404  1.00  0.00     0.151 HD
ENDBRANCH   2  16
BRANCH   2  19
HETATM   19  N3  UNL     1      26.431   2.844  50.131  1.00  0.00    -0.368 N 
HETATM   20  H14 UNL     1      26.840   2.130  49.454  1.00  0.00     0.161 HD
BRANCH  19  21
HETATM   21  C11 UNL     1      26.428   4.218  49.689  1.00  0.00     0.030 A 
HETATM   22  C12 UNL     1      27.456   4.630  48.838  1.00  0.00     0.029 A 
HETATM   23  C13 UNL     1      27.613   5.884  48.322  1.00  0.00     0.004 A 
HETATM   24  C14 UNL     1      26.667   6.830  48.674  1.00  0.00     0.019 A 
HETATM   25  C15 UNL     1      25.627   6.454  49.522  1.00  0.00     0.013 A 
HETATM   26 BR1  UNL     1      24.318   7.761  50.009  1.00  0.00    -0.051 Br
HETATM   27  C16 UNL     1      25.493   5.198  50.022  1.00  0.00     0.048 A 
ENDBRANCH  19  21
ENDBRANCH   2  19
TORSDOF 7
ENDMDL
MODEL 6
REMARK VINA RESULT:      -7.1      4.586      6.090
REMARK  7 active torsions:
REMARK  status: ('A' for Active; 'I' for Inactive)
REMARK    1  A    between atoms: C4_5  and  O1_6 
REMARK    2  A    between atoms: C7_9  and  S1_10 
REMARK    3  A    between atoms: S1_10  and  O2_11 
REMARK    4  A    between atoms: C8_12  and  C9_13 
REMARK    5  A    between atoms: C10_14  and  N2_15 
REMARK    6  A    between atoms: C10_14  and  N3_16 
REMARK    7  A    between atoms: N3_16  and  C11_17 
ROOT
HETATM    1  C9  UNL     1      24.803   2.531  53.168  1.00  0.00     0.175 C 
HETATM    2  C10 UNL     1      24.464   3.623  52.521  1.00  0.00     0.083 C 
ENDROOT
BRANCH   1   3
HETATM    3  C8  UNL     1      25.215   1.167  53.165  1.00  0.00    -0.005 A 
HETATM    4  C2  UNL     1      24.620  -0.178  53.198  1.00  0.00     0.060 A 
HETATM    5  N1  UNL     1      23.318  -0.042  53.243  1.00  0.00    -0.294 NA
HETATM    6  C3  UNL     1      25.293  -1.441  53.187  1.00  0.00     0.064 A 
HETATM    7  C1  UNL     1      22.530  -1.245  53.283  1.00  0.00     0.178 C 
HETATM    8  C4  UNL     1      26.588  -1.258  53.139  1.00  0.00     0.052 A 
HETATM    9  C6  UNL     1      27.380  -0.015  53.100  1.00  0.00     0.113 A 
HETATM   10  C7  UNL     1      26.564   1.216  53.117  1.00  0.00     0.021 A 
BRANCH   8  11
HETATM   11  O1  UNL     1      27.334  -2.412  53.125  1.00  0.00    -0.360 OA
HETATM   12  C5  UNL     1      28.741  -2.447  53.074  1.00  0.00     0.209 C 
ENDBRANCH   8  11
BRANCH  10  13
HETATM   13  S1  UNL     1      27.826   2.464  53.064  1.00  0.00     0.022 SA
BRANCH  13  14
HETATM   14  O2  UNL     1      29.374   1.858  53.201  1.00  0.00    -0.325 OA
HETATM   15  H10 UNL     1      29.686   1.465  52.349  1.00  0.00     0.228 HD
ENDBRANCH  13  14
ENDBRANCH  10  13
ENDBRANCH   1   3
BRANCH   2  16
HETATM   16  N2  UNL     1      24.135   4.746  53.367  1.00  0.00    -0.410 N 
HETATM   17  H12 UNL     1      24.256   4.705  54.417  1.00  0.00     0.151 HD
HETATM   18  H13 UNL     1      23.795   5.705  53.508  1.00  0.00     0.151 HD
ENDBRANCH   2  16
BRANCH   2  19
HETATM   19  N3  UNL     1      24.186   4.497  51.405  1.00  0.00    -0.368 N 
HETATM   20  H14 UNL     1      23.197   4.856  51.239  1.00  0.00     0.161 HD
BRANCH  19  21
HETATM   21  C11 UNL     1      25.190   4.924  50.460  1.00  0.00     0.030 A 
HETATM   22  C12 UNL     1      26.076   3.961  49.972  1.00  0.00     0.029 A 
HETATM   23  C13 UNL     1      27.083   4.180  49.077  1.00  0.00     0.004 A 
HETATM   24  C14 UNL     1      27.238   5.474  48.612  1.00  0.00     0.019 A 
HETATM   25  C15 UNL     1      26.371   6.461  49.078  1.00  0.00     0.013 A 
HETATM   26 BR1  UNL     1      26.583   8.251  48.436  1.00  0.00    -0.051 Br
HETATM   27  C16 UNL     1      25.376   6.216  49.970  1.00  0.00     0.048 A 
ENDBRANCH  19  21
ENDBRANCH   2  19
TORSDOF 7
ENDMDL
MODEL 7
REMARK VINA RESULT:      -7.1      4.227      6.601
REMARK  7 active torsions:
REMARK  status: ('A' for Active; 'I' for Inactive)
REMARK    1  A    between atoms: C4_5  and  O1_6 
REMARK    2  A    between atoms: C7_9  and  S1_10 
REMARK    3  A    between atoms: S1_10  and  O2_11 
REMARK    4  A    between atoms: C8_12  and  C9_13 
REMARK    5  A    between atoms: C10_14  and  N2_15 
REMARK    6  A    between atoms: C10_14  and  N3_16 
REMARK    7  A    between atoms: N3_16  and  C11_17 
ROOT
HETATM    1  C9  UNL     1      22.570   1.098  52.439  1.00  0.00     0.175 C 
HETATM    2  C10 UNL     1      21.610   1.981  52.286  1.00  0.00     0.083 C 
ENDROOT
BRANCH   1   3
HETATM    3  C8  UNL     1      23.926   0.784  52.745  1.00  0.00    -0.005 A 
HETATM    4  C2  UNL     1      25.282   1.173  52.326  1.00  0.00     0.060 A 
HETATM    5  N1  UNL     1      25.170   2.084  51.391  1.00  0.00    -0.294 NA
HETATM    6  C3  UNL     1      26.532   0.678  52.815  1.00  0.00     0.064 A 
HETATM    7  C1  UNL     1      26.388   2.609  50.833  1.00  0.00     0.178 C 
HETATM    8  C4  UNL     1      26.325  -0.222  53.743  1.00  0.00     0.052 A 
HETATM    9  C6  UNL     1      25.068  -0.750  54.303  1.00  0.00     0.113 A 
HETATM   10  C7  UNL     1      23.852  -0.156  53.711  1.00  0.00     0.021 A 
BRANCH   8  11
HETATM   11  O1  UNL     1      27.465  -0.766  54.284  1.00  0.00    -0.360 OA
HETATM   12  C5  UNL     1      28.582  -0.018  54.703  1.00  0.00     0.209 C 
ENDBRANCH   8  11
BRANCH  10  13
HETATM   13  S1  UNL     1      22.581  -1.014  54.606  1.00  0.00     0.022 SA
BRANCH  13  14
HETATM   14  O2  UNL     1      23.145  -1.853  55.933  1.00  0.00    -0.325 OA
HETATM   15  H10 UNL     1      22.768  -2.767  55.971  1.00  0.00     0.228 HD
ENDBRANCH  13  14
ENDBRANCH  10  13
ENDBRANCH   1   3
BRANCH   2  16
HETATM   16  N2  UNL     1      20.330   1.420  51.916  1.00  0.00    -0.410 N 
HETATM   17  H12 UNL     1      19.491   1.481  52.557  1.00  0.00     0.151 HD
HETATM   18  H13 UNL     1      19.716   0.919  51.264  1.00  0.00     0.151 HD
ENDBRANCH   2  16
BRANCH   2  19
HETATM   19  N3  UNL     1      20.955   3.268  52.249  1.00  0.00    -0.368 N 
HETATM   20  H14 UNL     1      19.955   3.371  52.601  1.00  0.00     0.161 HD
BRANCH  19  21
HETATM   21  C11 UNL     1      21.582   4.464  51.739  1.00  0.00     0.030 A 
HETATM   22  C12 UNL     1      22.921   4.688  52.069  1.00  0.00     0.029 A 
HETATM   23  C13 UNL     1      23.673   5.758  51.678  1.00  0.00     0.004 A 
HETATM   24  C14 UNL     1      23.051   6.706  50.884  1.00  0.00     0.019 A 
HETATM   25  C15 UNL     1      21.714   6.514  50.536  1.00  0.00     0.013 A 
HETATM   26 BR1  UNL     1      20.853   7.823  49.439  1.00  0.00    -0.051 Br
HETATM   27  C16 UNL     1      20.988   5.440  50.939  1.00  0.00     0.048 A 
ENDBRANCH  19  21
ENDBRANCH   2  19
TORSDOF 7
ENDMDL
MODEL 8
REMARK VINA RESULT:      -7.1      4.314      6.618
REMARK  7 active torsions:
REMARK  status: ('A' for Active; 'I' for Inactive)
REMARK    1  A    between atoms: C4_5  and  O1_6 
REMARK    2  A    between atoms: C7_9  and  S1_10 
REMARK    3  A    between atoms: S1_10  and  O2_11 
REMARK    4  A    between atoms: C8_12  and  C9_13 
REMARK    5  A    between atoms: C10_14  and  N2_15 
REMARK    6  A    between atoms: C10_14  and  N3_16 
REMARK    7  A    between atoms: N3_16  and  C11_17 
ROOT
HETATM    1  C9  UNL     1      22.699   0.747  52.175  1.00  0.00     0.175 C 
HETATM    2  C10 UNL     1      21.907   0.930  51.143  1.00  0.00     0.083 C 
ENDROOT
BRANCH   1   3
HETATM    3  C8  UNL     1      24.007   0.607  52.722  1.00  0.00    -0.005 A 
HETATM    4  C2  UNL     1      25.371   1.110  52.495  1.00  0.00     0.060 A 
HETATM    5  N1  UNL     1      25.333   1.932  51.476  1.00  0.00    -0.294 NA
HETATM    6  C3  UNL     1      26.561   0.792  53.223  1.00  0.00     0.064 A 
HETATM    7  C1  UNL     1      26.572   2.544  51.077  1.00  0.00     0.178 C 
HETATM    8  C4  UNL     1      26.287  -0.055  54.183  1.00  0.00     0.052 A 
HETATM    9  C6  UNL     1      25.009  -0.675  54.578  1.00  0.00     0.113 A 
HETATM   10  C7  UNL     1      23.860  -0.262  53.745  1.00  0.00     0.021 A 
BRANCH   8  11
HETATM   11  O1  UNL     1      27.364  -0.430  54.948  1.00  0.00    -0.360 OA
HETATM   12  C5  UNL     1      28.647   0.144  54.850  1.00  0.00     0.209 C 
ENDBRANCH   8  11
BRANCH  10  13
HETATM   13  S1  UNL     1      22.543  -1.186  54.497  1.00  0.00     0.022 SA
BRANCH  13  14
HETATM   14  O2  UNL     1      22.989  -1.968  55.902  1.00  0.00    -0.325 OA
HETATM   15  H10 UNL     1      23.936  -1.793  56.128  1.00  0.00     0.228 HD
ENDBRANCH  13  14
ENDBRANCH  10  13
ENDBRANCH   1   3
BRANCH   2  16
HETATM   16  N2  UNL     1      20.498   0.955  51.462  1.00  0.00    -0.410 N 
HETATM   17  H12 UNL     1      20.139   1.390  52.357  1.00  0.00     0.151 HD
HETATM   18  H13 UNL     1      19.518   0.741  51.248  1.00  0.00     0.151 HD
ENDBRANCH   2  16
BRANCH   2  19
HETATM   19  N3  UNL     1      21.508   1.142  49.771  1.00  0.00    -0.368 N 
HETATM   20  H14 UNL     1      20.919   0.413  49.265  1.00  0.00     0.161 HD
BRANCH  19  21
HETATM   21  C11 UNL     1      21.874   2.311  49.008  1.00  0.00     0.030 A 
HETATM   22  C12 UNL     1      22.598   3.313  49.659  1.00  0.00     0.029 A 
HETATM   23  C13 UNL     1      23.030   4.481  49.100  1.00  0.00     0.004 A 
HETATM   24  C14 UNL     1      22.720   4.690  47.767  1.00  0.00     0.019 A 
HETATM   25  C15 UNL     1      21.998   3.711  47.086  1.00  0.00     0.013 A 
HETATM   26 BR1  UNL     1      21.571   3.998  45.244  1.00  0.00    -0.051 Br
HETATM   27  C16 UNL     1      21.581   2.556  47.667  1.00  0.00     0.048 A 
ENDBRANCH  19  21
ENDBRANCH   2  19
TORSDOF 7
ENDMDL
MODEL 9
REMARK VINA RESULT:      -7.1      4.069      5.893
REMARK  7 active torsions:
REMARK  status: ('A' for Active; 'I' for Inactive)
REMARK    1  A    between atoms: C4_5  and  O1_6 
REMARK    2  A    between atoms: C7_9  and  S1_10 
REMARK    3  A    between atoms: S1_10  and  O2_11 
REMARK    4  A    between atoms: C8_12  and  C9_13 
REMARK    5  A    between atoms: C10_14  and  N2_15 
REMARK    6  A    between atoms: C10_14  and  N3_16 
REMARK    7  A    between atoms: N3_16  and  C11_17 
ROOT
HETATM    1  C9  UNL     1      23.507   1.418  51.383  1.00  0.00     0.175 C 
HETATM    2  C10 UNL     1      22.972   2.496  50.857  1.00  0.00     0.083 C 
ENDROOT
BRANCH   1   3
HETATM    3  C8  UNL     1      24.308   0.795  52.384  1.00  0.00    -0.005 A 
HETATM    4  C2  UNL     1      24.144  -0.062  53.569  1.00  0.00     0.060 A 
HETATM    5  N1  UNL     1      22.866  -0.308  53.716  1.00  0.00    -0.294 NA
HETATM    6  C3  UNL     1      25.161  -0.566  54.439  1.00  0.00     0.064 A 
HETATM    7  C1  UNL     1      22.477  -1.136  54.826  1.00  0.00     0.178 C 
HETATM    8  C4  UNL     1      26.338  -0.154  54.040  1.00  0.00     0.052 A 
HETATM    9  C6  UNL     1      26.719   0.697  52.899  1.00  0.00     0.113 A 
HETATM   10  C7  UNL     1      25.575   1.150  52.081  1.00  0.00     0.021 A 
BRANCH   8  11
HETATM   11  O1  UNL     1      27.392  -0.582  54.810  1.00  0.00    -0.360 OA
HETATM   12  C5  UNL     1      28.611   0.110  54.945  1.00  0.00     0.209 C 
ENDBRANCH   8  11
BRANCH  10  13
HETATM   13  S1  UNL     1      26.400   2.122  50.845  1.00  0.00     0.022 SA
BRANCH  13  14
HETATM   14  O2  UNL     1      27.512   3.197  51.470  1.00  0.00    -0.325 OA
HETATM   15  H10 UNL     1      27.765   2.959  52.396  1.00  0.00     0.228 HD
ENDBRANCH  13  14
ENDBRANCH  10  13
ENDBRANCH   1   3
BRANCH   2  16
HETATM   16  N2  UNL     1      22.175   2.257  49.676  1.00  0.00    -0.410 N 
HETATM   17  H12 UNL     1      22.520   1.639  48.889  1.00  0.00     0.151 HD
HETATM   18  H13 UNL     1      21.327   2.391  49.113  1.00  0.00     0.151 HD
ENDBRANCH   2  16
BRANCH   2  19
HETATM   19  N3  UNL     1      22.639   3.891  50.690  1.00  0.00    -0.368 N 
HETATM   20  H14 UNL     1      21.621   4.203  50.686  1.00  0.00     0.161 HD
BRANCH  19  21
HETATM   21  C11 UNL     1      23.627   4.929  50.511  1.00  0.00     0.030 A 
HETATM   22  C12 UNL     1      23.422   6.143  51.170  1.00  0.00     0.029 A 
HETATM   23  C13 UNL     1      24.247   7.230  51.119  1.00  0.00     0.004 A 
HETATM   24  C14 UNL     1      25.387   7.116  50.344  1.00  0.00     0.019 A 
HETATM   25  C15 UNL     1      25.623   5.918  49.672  1.00  0.00     0.013 A 
HETATM   26 BR1  UNL     1      27.200   5.759  48.600  1.00  0.00    -0.051 Br
HETATM   27  C16 UNL     1      24.786   4.851  49.740  1.00  0.00     0.048 A 
ENDBRANCH  19  21
ENDBRANCH   2  19
TORSDOF 7
ENDMDL
