MODEL 1
REMARK VINA RESULT:      -8.0      0.000      0.000
REMARK  6 active torsions:
REMARK  status: ('A' for Active; 'I' for Inactive)
REMARK    1  A    between atoms: O1_2  and  C2_3 
REMARK    2  A    between atoms: C6_9  and  C7_10 
REMARK    3  A    between atoms: C9_14  and  C10_15 
REMARK    4  A    between atoms: C10_15  and  C11_16 
REMARK    5  A    between atoms: C11_16  and  N5_17 
REMARK    6  A    between atoms: C14_21  and  O2_22 
ROOT
HETATM    1  C2  UNL     1      22.150   1.127  51.504  1.00  0.00     0.103 A 
HETATM    2  C3  UNL     1      21.864   0.182  52.465  1.00  0.00     0.072 A 
HETATM    3  C4  UNL     1      22.849  -0.160  53.356  1.00  0.00     0.073 A 
HETATM    4  N1  UNL     1      22.562  -1.090  54.298  1.00  0.00    -0.241 NA
HETATM    5  C5  UNL     1      23.518  -1.443  55.187  1.00  0.00     0.234 A 
HETATM    6  N2  UNL     1      24.738  -0.905  55.169  1.00  0.00    -0.237 NA
HETATM    7  C6  UNL     1      25.107   0.011  54.285  1.00  0.00     0.120 A 
HETATM    8  C12 UNL     1      24.124   0.360  53.387  1.00  0.00     0.028 A 
HETATM    9  C13 UNL     1      24.351   1.298  52.404  1.00  0.00     0.056 A 
HETATM   10  C14 UNL     1      23.406   1.689  51.477  1.00  0.00     0.102 A 
ENDROOT
BRANCH   7  11
HETATM   11  C7  UNL     1      26.439   0.600  54.262  1.00  0.00     0.202 A 
HETATM   12  N3  UNL     1      26.962   1.813  54.352  1.00  0.00    -0.128 NA
HETATM   13  N4  UNL     1      28.226   2.134  54.307  1.00  0.00    -0.158 NA
HETATM   14  C8  UNL     1      29.183   1.216  54.156  1.00  0.00     0.172 A 
HETATM   15  C9  UNL     1      28.728  -0.059  54.055  1.00  0.00     0.079 A 
HETATM   16  N6  UNL     1      27.432  -0.283  54.112  1.00  0.00    -0.224 NA
BRANCH  15  17
HETATM   17  C10 UNL     1      29.701  -1.148  53.886  1.00  0.00     0.049 C 
BRANCH  17  18
HETATM   18  C11 UNL     1      29.523  -2.145  53.070  1.00  0.00     0.082 C 
BRANCH  18  19
HETATM   19  N5  UNL     1      28.563  -3.164  53.317  1.00  0.00    -0.408 N 
HETATM   20  H9  UNL     1      27.670  -2.795  53.725  1.00  0.00     0.155 HD
HETATM   21  H10 UNL     1      28.918  -4.109  53.048  1.00  0.00     0.155 HD
ENDBRANCH  18  19
ENDBRANCH  17  18
ENDBRANCH  15  17
ENDBRANCH   7  11
BRANCH  10  22
HETATM   22  O2  UNL     1      23.602   2.626  50.480  1.00  0.00    -0.353 OA
HETATM   23  C15 UNL     1      24.582   3.616  50.451  1.00  0.00     0.210 C 
ENDBRANCH  10  22
BRANCH   1  24
HETATM   24  O1  UNL     1      21.158   1.477  50.600  1.00  0.00    -0.353 OA
HETATM   25  C1  UNL     1      21.075   0.803  49.359  1.00  0.00     0.210 C 
ENDBRANCH   1  24
TORSDOF 6
ENDMDL
MODEL 2
REMARK VINA RESULT:      -7.5      1.304      2.500
REMARK  6 active torsions:
REMARK  status: ('A' for Active; 'I' for Inactive)
REMARK    1  A    between atoms: O1_2  and  C2_3 
REMARK    2  A    between atoms: C6_9  and  C7_10 
REMARK    3  A    between atoms: C9_14  and  C10_15 
REMARK    4  A    between atoms: C10_15  and  C11_16 
REMARK    5  A    between atoms: C11_16  and  N5_17 
REMARK    6  A    between atoms: C14_21  and  O2_22 
ROOT
HETATM    1  C2  UNL     1      22.754   2.398  51.667  1.00  0.00     0.103 A 
HETATM    2  C3  UNL     1      22.048   1.698  52.621  1.00  0.00     0.072 A 
HETATM    3  C4  UNL     1      22.695   0.707  53.314  1.00  0.00     0.073 A 
HETATM    4  N1  UNL     1      21.996   0.023  54.251  1.00  0.00    -0.241 NA
HETATM    5  C5  UNL     1      22.613  -0.958  54.947  1.00  0.00     0.234 A 
HETATM    6  N2  UNL     1      23.892  -1.277  54.743  1.00  0.00    -0.237 NA
HETATM    7  C6  UNL     1      24.653  -0.661  53.849  1.00  0.00     0.120 A 
HETATM    8  C12 UNL     1      24.010   0.335  53.149  1.00  0.00     0.028 A 
HETATM    9  C13 UNL     1      24.664   1.068  52.183  1.00  0.00     0.056 A 
HETATM   10  C14 UNL     1      24.074   2.078  51.449  1.00  0.00     0.102 A 
ENDROOT
BRANCH   7  11
HETATM   11  C7  UNL     1      26.049  -1.007  53.624  1.00  0.00     0.202 A 
HETATM   12  N3  UNL     1      26.727  -2.051  53.171  1.00  0.00    -0.128 NA
HETATM   13  N4  UNL     1      28.021  -2.158  53.044  1.00  0.00    -0.158 NA
HETATM   14  C8  UNL     1      28.849  -1.166  53.378  1.00  0.00     0.172 A 
HETATM   15  C9  UNL     1      28.231  -0.054  53.853  1.00  0.00     0.079 A 
HETATM   16  N6  UNL     1      26.918  -0.041  53.944  1.00  0.00    -0.224 NA
BRANCH  15  17
HETATM   17  C10 UNL     1      29.051   1.099  54.250  1.00  0.00     0.049 C 
BRANCH  17  18
HETATM   18  C11 UNL     1      28.791   2.320  53.886  1.00  0.00     0.082 C 
BRANCH  18  19
HETATM   19  N5  UNL     1      27.467   2.837  53.863  1.00  0.00    -0.408 N 
HETATM   20  H9  UNL     1      27.124   3.043  52.894  1.00  0.00     0.155 HD
HETATM   21  H10 UNL     1      27.064   2.923  54.823  1.00  0.00     0.155 HD
ENDBRANCH  18  19
ENDBRANCH  17  18
ENDBRANCH  15  17
ENDBRANCH   7  11
BRANCH  10  22
HETATM   22  O2  UNL     1      24.701   2.831  50.475  1.00  0.00    -0.353 OA
HETATM   23  C15 UNL     1      26.066   3.099  50.382  1.00  0.00     0.210 C 
ENDBRANCH  10  22
BRANCH   1  24
HETATM   24  O1  UNL     1      22.104   3.401  50.962  1.00  0.00    -0.353 OA
HETATM   25  C1  UNL     1      20.860   3.888  51.428  1.00  0.00     0.210 C 
ENDBRANCH   1  24
TORSDOF 6
ENDMDL
MODEL 3
REMARK VINA RESULT:      -7.3      3.169      5.899
REMARK  6 active torsions:
REMARK  status: ('A' for Active; 'I' for Inactive)
REMARK    1  A    between atoms: O1_2  and  C2_3 
REMARK    2  A    between atoms: C6_9  and  C7_10 
REMARK    3  A    between atoms: C9_14  and  C10_15 
REMARK    4  A    between atoms: C10_15  and  C11_16 
REMARK    5  A    between atoms: C11_16  and  N5_17 
REMARK    6  A    between atoms: C14_21  and  O2_22 
ROOT
HETATM    1  C2  UNL     1      26.508   0.357  54.336  1.00  0.00     0.103 A 
HETATM    2  C3  UNL     1      25.441  -0.484  54.106  1.00  0.00     0.072 A 
HETATM    3  C4  UNL     1      24.333   0.025  53.478  1.00  0.00     0.073 A 
HETATM    4  N1  UNL     1      23.288  -0.808  53.255  1.00  0.00    -0.241 NA
HETATM    5  C5  UNL     1      22.185  -0.328  52.637  1.00  0.00     0.234 A 
HETATM    6  N2  UNL     1      22.090   0.941  52.237  1.00  0.00    -0.237 NA
HETATM    7  C6  UNL     1      23.062   1.825  52.413  1.00  0.00     0.120 A 
HETATM    8  C12 UNL     1      24.178   1.322  53.043  1.00  0.00     0.028 A 
HETATM    9  C13 UNL     1      25.275   2.115  53.300  1.00  0.00     0.056 A 
HETATM   10  C14 UNL     1      26.420   1.668  53.927  1.00  0.00     0.102 A 
ENDROOT
BRANCH   7  11
HETATM   11  C7  UNL     1      22.961   3.211  51.979  1.00  0.00     0.202 A 
HETATM   12  N3  UNL     1      22.273   4.287  52.328  1.00  0.00    -0.128 NA
HETATM   13  N4  UNL     1      22.335   5.474  51.790  1.00  0.00    -0.158 NA
HETATM   14  C8  UNL     1      23.150   5.746  50.769  1.00  0.00     0.172 A 
HETATM   15  C9  UNL     1      23.895   4.691  50.348  1.00  0.00     0.079 A 
HETATM   16  N6  UNL     1      23.762   3.530  50.955  1.00  0.00    -0.224 NA
BRANCH  15  17
HETATM   17  C10 UNL     1      24.827   4.882  49.227  1.00  0.00     0.049 C 
BRANCH  17  18
HETATM   18  C11 UNL     1      26.114   4.734  49.335  1.00  0.00     0.082 C 
BRANCH  18  19
HETATM   19  N5  UNL     1      26.704   3.974  50.383  1.00  0.00    -0.408 N 
HETATM   20  H9  UNL     1      27.431   4.508  50.916  1.00  0.00     0.155 HD
HETATM   21  H10 UNL     1      26.307   3.010  50.438  1.00  0.00     0.155 HD
ENDBRANCH  18  19
ENDBRANCH  17  18
ENDBRANCH  15  17
ENDBRANCH   7  11
BRANCH  10  22
HETATM   22  O2  UNL     1      27.536   2.437  54.199  1.00  0.00    -0.353 OA
HETATM   23  C15 UNL     1      28.651   2.602  53.380  1.00  0.00     0.210 C 
ENDBRANCH  10  22
BRANCH   1  24
HETATM   24  O1  UNL     1      27.631  -0.151  54.971  1.00  0.00    -0.353 OA
HETATM   25  C1  UNL     1      28.654  -0.756  54.203  1.00  0.00     0.210 C 
ENDBRANCH   1  24
TORSDOF 6
ENDMDL
MODEL 4
REMARK VINA RESULT:      -7.0      2.629      6.178
REMARK  6 active torsions:
REMARK  status: ('A' for Active; 'I' for Inactive)
REMARK    1  A    between atoms: O1_2  and  C2_3 
REMARK    2  A    between atoms: C6_9  and  C7_10 
REMARK    3  A    between atoms: C9_14  and  C10_15 
REMARK    4  A    between atoms: C10_15  and  C11_16 
REMARK    5  A    between atoms: C11_16  and  N5_17 
REMARK    6  A    between atoms: C14_21  and  O2_22 
ROOT
HETATM    1  C2  UNL     1      27.510   0.909  53.091  1.00  0.00     0.103 A 
HETATM    2  C3  UNL     1      27.054   0.054  54.070  1.00  0.00     0.072 A 
HETATM    3  C4  UNL     1      25.708  -0.196  54.142  1.00  0.00     0.073 A 
HETATM    4  N1  UNL     1      25.266  -1.037  55.108  1.00  0.00    -0.241 NA
HETATM    5  C5  UNL     1      23.942  -1.298  55.198  1.00  0.00     0.234 A 
HETATM    6  N2  UNL     1      23.053  -0.754  54.366  1.00  0.00    -0.237 NA
HETATM    7  C6  UNL     1      23.394   0.079  53.393  1.00  0.00     0.120 A 
HETATM    8  C12 UNL     1      24.744   0.335  53.314  1.00  0.00     0.028 A 
HETATM    9  C13 UNL     1      25.259   1.180  52.356  1.00  0.00     0.056 A 
HETATM   10  C14 UNL     1      26.601   1.475  52.227  1.00  0.00     0.102 A 
ENDROOT
BRANCH   7  11
HETATM   11  C7  UNL     1      22.426   0.675  52.484  1.00  0.00     0.202 A 
HETATM   12  N3  UNL     1      21.603   0.255  51.535  1.00  0.00    -0.128 NA
HETATM   13  N4  UNL     1      20.790   0.980  50.815  1.00  0.00    -0.158 NA
HETATM   14  C8  UNL     1      20.697   2.302  50.970  1.00  0.00     0.172 A 
HETATM   15  C9  UNL     1      21.511   2.815  51.929  1.00  0.00     0.079 A 
HETATM   16  N6  UNL     1      22.297   2.002  52.603  1.00  0.00    -0.224 NA
BRANCH  15  17
HETATM   17  C10 UNL     1      21.487   4.263  52.181  1.00  0.00     0.049 C 
BRANCH  17  18
HETATM   18  C11 UNL     1      22.521   5.034  52.016  1.00  0.00     0.082 C 
BRANCH  18  19
HETATM   19  N5  UNL     1      23.601   5.060  52.940  1.00  0.00    -0.408 N 
HETATM   20  H9  UNL     1      23.600   5.914  53.547  1.00  0.00     0.155 HD
HETATM   21  H10 UNL     1      24.212   4.217  52.851  1.00  0.00     0.155 HD
ENDBRANCH  18  19
ENDBRANCH  17  18
ENDBRANCH  15  17
ENDBRANCH   7  11
BRANCH  10  22
HETATM   22  O2  UNL     1      27.148   2.319  51.279  1.00  0.00    -0.353 OA
HETATM   23  C15 UNL     1      26.461   3.243  50.494  1.00  0.00     0.210 C 
ENDBRANCH  10  22
BRANCH   1  24
HETATM   24  O1  UNL     1      28.871   1.165  53.013  1.00  0.00    -0.353 OA
HETATM   25  C1  UNL     1      29.770   0.412  53.805  1.00  0.00     0.210 C 
ENDBRANCH   1  24
TORSDOF 6
ENDMDL
MODEL 5
REMARK VINA RESULT:      -6.9      1.944      2.757
REMARK  6 active torsions:
REMARK  status: ('A' for Active; 'I' for Inactive)
REMARK    1  A    between atoms: O1_2  and  C2_3 
REMARK    2  A    between atoms: C6_9  and  C7_10 
REMARK    3  A    between atoms: C9_14  and  C10_15 
REMARK    4  A    between atoms: C10_15  and  C11_16 
REMARK    5  A    between atoms: C11_16  and  N5_17 
REMARK    6  A    between atoms: C14_21  and  O2_22 
ROOT
HETATM    1  C2  UNL     1      19.749  -0.085  52.422  1.00  0.00     0.103 A 
HETATM    2  C3  UNL     1      20.099  -0.821  53.533  1.00  0.00     0.072 A 
HETATM    3  C4  UNL     1      21.412  -0.820  53.929  1.00  0.00     0.073 A 
HETATM    4  N1  UNL     1      21.749  -1.545  55.022  1.00  0.00    -0.241 NA
HETATM    5  C5  UNL     1      23.038  -1.558  55.430  1.00  0.00     0.234 A 
HETATM    6  N2  UNL     1      23.992  -0.879  54.793  1.00  0.00    -0.237 NA
HETATM    7  C6  UNL     1      23.754  -0.143  53.717  1.00  0.00     0.120 A 
HETATM    8  C12 UNL     1      22.438  -0.139  53.313  1.00  0.00     0.028 A 
HETATM    9  C13 UNL     1      22.029   0.577  52.210  1.00  0.00     0.056 A 
HETATM   10  C14 UNL     1      20.726   0.620  51.757  1.00  0.00     0.102 A 
ENDROOT
BRANCH   7  11
HETATM   11  C7  UNL     1      24.794   0.599  53.019  1.00  0.00     0.202 A 
HETATM   12  N3  UNL     1      24.895   1.304  51.902  1.00  0.00    -0.128 NA
HETATM   13  N4  UNL     1      25.956   1.909  51.443  1.00  0.00    -0.158 NA
HETATM   14  C8  UNL     1      27.123   1.881  52.091  1.00  0.00     0.172 A 
HETATM   15  C9  UNL     1      27.103   1.176  53.252  1.00  0.00     0.079 A 
HETATM   16  N6  UNL     1      25.983   0.599  53.632  1.00  0.00    -0.224 NA
BRANCH  15  17
HETATM   17  C10 UNL     1      28.337   1.081  54.045  1.00  0.00     0.049 C 
BRANCH  17  18
HETATM   18  C11 UNL     1      28.790  -0.037  54.531  1.00  0.00     0.082 C 
BRANCH  18  19
HETATM   19  N5  UNL     1      28.565  -1.286  53.891  1.00  0.00    -0.408 N 
HETATM   20  H9  UNL     1      29.451  -1.808  53.686  1.00  0.00     0.155 HD
HETATM   21  H10 UNL     1      27.548  -1.468  53.735  1.00  0.00     0.155 HD
ENDBRANCH  18  19
ENDBRANCH  17  18
ENDBRANCH  15  17
ENDBRANCH   7  11
BRANCH  10  22
HETATM   22  O2  UNL     1      20.284   1.328  50.656  1.00  0.00    -0.353 OA
HETATM   23  C15 UNL     1      20.735   1.191  49.344  1.00  0.00     0.210 C 
ENDBRANCH  10  22
BRANCH   1  24
HETATM   24  O1  UNL     1      18.423  -0.084  52.016  1.00  0.00    -0.353 OA
HETATM   25  C1  UNL     1      17.467  -0.826  52.750  1.00  0.00     0.210 C 
ENDBRANCH   1  24
TORSDOF 6
ENDMDL
MODEL 6
REMARK VINA RESULT:      -6.9      2.579      6.376
REMARK  6 active torsions:
REMARK  status: ('A' for Active; 'I' for Inactive)
REMARK    1  A    between atoms: O1_2  and  C2_3 
REMARK    2  A    between atoms: C6_9  and  C7_10 
REMARK    3  A    between atoms: C9_14  and  C10_15 
REMARK    4  A    between atoms: C10_15  and  C11_16 
REMARK    5  A    between atoms: C11_16  and  N5_17 
REMARK    6  A    between atoms: C14_21  and  O2_22 
ROOT
HETATM    1  C2  UNL     1      27.425   0.884  53.354  1.00  0.00     0.103 A 
HETATM    2  C3  UNL     1      26.935   0.006  54.295  1.00  0.00     0.072 A 
HETATM    3  C4  UNL     1      25.586  -0.241  54.315  1.00  0.00     0.073 A 
HETATM    4  N1  UNL     1      25.110  -1.107  55.243  1.00  0.00    -0.241 NA
HETATM    5  C5  UNL     1      23.783  -1.365  55.282  1.00  0.00     0.234 A 
HETATM    6  N2  UNL     1      22.923  -0.797  54.435  1.00  0.00    -0.237 NA
HETATM    7  C6  UNL     1      23.299   0.060  53.496  1.00  0.00     0.120 A 
HETATM    8  C12 UNL     1      24.652   0.314  53.469  1.00  0.00     0.028 A 
HETATM    9  C13 UNL     1      25.200   1.182  52.552  1.00  0.00     0.056 A 
HETATM   10  C14 UNL     1      26.547   1.476  52.475  1.00  0.00     0.102 A 
ENDROOT
BRANCH   7  11
HETATM   11  C7  UNL     1      22.363   0.683  52.571  1.00  0.00     0.202 A 
HETATM   12  N3  UNL     1      22.369   1.708  51.733  1.00  0.00    -0.128 NA
HETATM   13  N4  UNL     1      21.391   2.110  50.969  1.00  0.00    -0.158 NA
HETATM   14  C8  UNL     1      20.208   1.491  50.950  1.00  0.00     0.172 A 
HETATM   15  C9  UNL     1      20.119   0.424  51.785  1.00  0.00     0.079 A 
HETATM   16  N6  UNL     1      21.162   0.095  52.518  1.00  0.00    -0.224 NA
BRANCH  15  17
HETATM   17  C10 UNL     1      18.858  -0.330  51.842  1.00  0.00     0.049 C 
BRANCH  17  18
HETATM   18  C11 UNL     1      18.313  -0.728  52.954  1.00  0.00     0.082 C 
BRANCH  18  19
HETATM   19  N5  UNL     1      18.974  -1.616  53.845  1.00  0.00    -0.408 N 
HETATM   20  H9  UNL     1      20.004  -1.431  53.920  1.00  0.00     0.155 HD
HETATM   21  H10 UNL     1      18.315  -2.303  54.274  1.00  0.00     0.155 HD
ENDBRANCH  18  19
ENDBRANCH  17  18
ENDBRANCH  15  17
ENDBRANCH   7  11
BRANCH  10  22
HETATM   22  O2  UNL     1      27.127   2.342  51.568  1.00  0.00    -0.353 OA
HETATM   23  C15 UNL     1      26.495   2.967  50.495  1.00  0.00     0.210 C 
ENDBRANCH  10  22
BRANCH   1  24
HETATM   24  O1  UNL     1      28.788   1.139  53.329  1.00  0.00    -0.353 OA
HETATM   25  C1  UNL     1      29.698   0.097  53.625  1.00  0.00     0.210 C 
ENDBRANCH   1  24
TORSDOF 6
ENDMDL
MODEL 7
REMARK VINA RESULT:      -6.8      2.957      6.646
REMARK  6 active torsions:
REMARK  status: ('A' for Active; 'I' for Inactive)
REMARK    1  A    between atoms: O1_2  and  C2_3 
REMARK    2  A    between atoms: C6_9  and  C7_10 
REMARK    3  A    between atoms: C9_14  and  C10_15 
REMARK    4  A    between atoms: C10_15  and  C11_16 
REMARK    5  A    between atoms: C11_16  and  N5_17 
REMARK    6  A    between atoms: C14_21  and  O2_22 
ROOT
HETATM    1  C2  UNL     1      27.222   0.208  53.717  1.00  0.00     0.103 A 
HETATM    2  C3  UNL     1      27.595   1.235  52.877  1.00  0.00     0.072 A 
HETATM    3  C4  UNL     1      26.645   1.779  52.051  1.00  0.00     0.073 A 
HETATM    4  N1  UNL     1      27.018   2.788  51.228  1.00  0.00    -0.241 NA
HETATM    5  C5  UNL     1      26.098   3.340  50.405  1.00  0.00     0.234 A 
HETATM    6  N2  UNL     1      24.831   2.925  50.376  1.00  0.00    -0.237 NA
HETATM    7  C6  UNL     1      24.377   1.946  51.145  1.00  0.00     0.120 A 
HETATM    8  C12 UNL     1      25.325   1.394  51.977  1.00  0.00     0.028 A 
HETATM    9  C13 UNL     1      25.011   0.366  52.838  1.00  0.00     0.056 A 
HETATM   10  C14 UNL     1      25.916  -0.228  53.694  1.00  0.00     0.102 A 
ENDROOT
BRANCH   7  11
HETATM   11  C7  UNL     1      22.995   1.490  51.115  1.00  0.00     0.202 A 
HETATM   12  N3  UNL     1      22.073   1.255  50.193  1.00  0.00    -0.128 NA
HETATM   13  N4  UNL     1      20.853   0.835  50.385  1.00  0.00    -0.158 NA
HETATM   14  C8  UNL     1      20.376   0.581  51.605  1.00  0.00     0.172 A 
HETATM   15  C9  UNL     1      21.263   0.798  52.611  1.00  0.00     0.079 A 
HETATM   16  N6  UNL     1      22.473   1.223  52.317  1.00  0.00    -0.224 NA
BRANCH  15  17
HETATM   17  C10 UNL     1      20.839   0.549  53.996  1.00  0.00     0.049 C 
BRANCH  17  18
HETATM   18  C11 UNL     1      21.256  -0.462  54.701  1.00  0.00     0.082 C 
BRANCH  18  19
HETATM   19  N5  UNL     1      21.873  -1.596  54.106  1.00  0.00    -0.408 N 
HETATM   20  H9  UNL     1      22.919  -1.530  54.087  1.00  0.00     0.155 HD
HETATM   21  H10 UNL     1      21.171  -2.301  53.788  1.00  0.00     0.155 HD
ENDBRANCH  18  19
ENDBRANCH  17  18
ENDBRANCH  15  17
ENDBRANCH   7  11
BRANCH  10  22
HETATM   22  O2  UNL     1      25.634  -1.260  54.568  1.00  0.00    -0.353 OA
HETATM   23  C15 UNL     1      24.897  -1.171  55.748  1.00  0.00     0.210 C 
ENDBRANCH  10  22
BRANCH   1  24
HETATM   24  O1  UNL     1      28.178  -0.347  54.553  1.00  0.00    -0.353 OA
HETATM   25  C1  UNL     1      29.447  -0.692  54.032  1.00  0.00     0.210 C 
ENDBRANCH   1  24
TORSDOF 6
ENDMDL
MODEL 8
REMARK VINA RESULT:      -6.8      3.479      7.292
REMARK  6 active torsions:
REMARK  status: ('A' for Active; 'I' for Inactive)
REMARK    1  A    between atoms: O1_2  and  C2_3 
REMARK    2  A    between atoms: C6_9  and  C7_10 
REMARK    3  A    between atoms: C9_14  and  C10_15 
REMARK    4  A    between atoms: C10_15  and  C11_16 
REMARK    5  A    between atoms: C11_16  and  N5_17 
REMARK    6  A    between atoms: C14_21  and  O2_22 
ROOT
HETATM    1  C2  UNL     1      27.387   0.186  53.903  1.00  0.00     0.103 A 
HETATM    2  C3  UNL     1      27.761   1.078  52.922  1.00  0.00     0.072 A 
HETATM    3  C4  UNL     1      26.779   1.763  52.254  1.00  0.00     0.073 A 
HETATM    4  N1  UNL     1      27.154   2.639  51.291  1.00  0.00    -0.241 NA
HETATM    5  C5  UNL     1      26.202   3.325  50.619  1.00  0.00     0.234 A 
HETATM    6  N2  UNL     1      24.902   3.170  50.873  1.00  0.00    -0.237 NA
HETATM    7  C6  UNL     1      24.444   2.338  51.796  1.00  0.00     0.120 A 
HETATM    8  C12 UNL     1      25.424   1.646  52.472  1.00  0.00     0.028 A 
HETATM    9  C13 UNL     1      25.111   0.741  53.462  1.00  0.00     0.056 A 
HETATM   10  C14 UNL     1      26.048   0.019  54.173  1.00  0.00     0.102 A 
ENDROOT
BRANCH   7  11
HETATM   11  C7  UNL     1      23.025   2.165  52.075  1.00  0.00     0.202 A 
HETATM   12  N3  UNL     1      22.258   1.260  52.664  1.00  0.00    -0.128 NA
HETATM   13  N4  UNL     1      20.962   1.300  52.813  1.00  0.00    -0.158 NA
HETATM   14  C8  UNL     1      20.229   2.320  52.362  1.00  0.00     0.172 A 
HETATM   15  C9  UNL     1      20.944   3.295  51.743  1.00  0.00     0.079 A 
HETATM   16  N6  UNL     1      22.250   3.165  51.640  1.00  0.00    -0.224 NA
BRANCH  15  17
HETATM   17  C10 UNL     1      20.233   4.465  51.208  1.00  0.00     0.049 C 
BRANCH  17  18
HETATM   18  C11 UNL     1      20.838   5.517  50.741  1.00  0.00     0.082 C 
BRANCH  18  19
HETATM   19  N5  UNL     1      21.856   6.190  51.469  1.00  0.00    -0.408 N 
HETATM   20  H9  UNL     1      22.816   5.819  51.269  1.00  0.00     0.155 HD
HETATM   21  H10 UNL     1      21.468   6.941  52.082  1.00  0.00     0.155 HD
ENDBRANCH  18  19
ENDBRANCH  17  18
ENDBRANCH  15  17
ENDBRANCH   7  11
BRANCH  10  22
HETATM   22  O2  UNL     1      25.766  -0.895  55.170  1.00  0.00    -0.353 OA
HETATM   23  C15 UNL     1      24.503  -1.241  55.647  1.00  0.00     0.210 C 
ENDBRANCH  10  22
BRANCH   1  24
HETATM   24  O1  UNL     1      28.376  -0.510  54.582  1.00  0.00    -0.353 OA
HETATM   25  C1  UNL     1      29.566  -0.868  53.906  1.00  0.00     0.210 C 
ENDBRANCH   1  24
TORSDOF 6
ENDMDL
MODEL 9
REMARK VINA RESULT:      -6.7      2.643      5.393
REMARK  6 active torsions:
REMARK  status: ('A' for Active; 'I' for Inactive)
REMARK    1  A    between atoms: O1_2  and  C2_3 
REMARK    2  A    between atoms: C6_9  and  C7_10 
REMARK    3  A    between atoms: C9_14  and  C10_15 
REMARK    4  A    between atoms: C10_15  and  C11_16 
REMARK    5  A    between atoms: C11_16  and  N5_17 
REMARK    6  A    between atoms: C14_21  and  O2_22 
ROOT
HETATM    1  C2  UNL     1      22.613  -0.231  52.906  1.00  0.00     0.103 A 
HETATM    2  C3  UNL     1      23.688  -0.367  53.758  1.00  0.00     0.072 A 
HETATM    3  C4  UNL     1      24.812   0.380  53.513  1.00  0.00     0.073 A 
HETATM    4  N1  UNL     1      25.865   0.242  54.354  1.00  0.00    -0.241 NA
HETATM    5  C5  UNL     1      26.984   0.968  54.132  1.00  0.00     0.234 A 
HETATM    6  N2  UNL     1      27.087   1.820  53.111  1.00  0.00    -0.237 NA
HETATM    7  C6  UNL     1      26.108   2.020  52.240  1.00  0.00     0.120 A 
HETATM    8  C12 UNL     1      24.976   1.274  52.478  1.00  0.00     0.028 A 
HETATM    9  C13 UNL     1      23.871   1.367  51.662  1.00  0.00     0.056 A 
HETATM   10  C14 UNL     1      22.709   0.646  51.850  1.00  0.00     0.102 A 
ENDROOT
BRANCH   7  11
HETATM   11  C7  UNL     1      26.218   2.949  51.124  1.00  0.00     0.202 A 
HETATM   12  N3  UNL     1      27.081   3.193  50.149  1.00  0.00    -0.128 NA
HETATM   13  N4  UNL     1      26.985   4.103  49.219  1.00  0.00    -0.158 NA
HETATM   14  C8  UNL     1      25.944   4.935  49.148  1.00  0.00     0.172 A 
HETATM   15  C9  UNL     1      25.009   4.749  50.115  1.00  0.00     0.079 A 
HETATM   16  N6  UNL     1      25.194   3.803  51.012  1.00  0.00    -0.224 NA
BRANCH  15  17
HETATM   17  C10 UNL     1      23.820   5.613  50.128  1.00  0.00     0.049 C 
BRANCH  17  18
HETATM   18  C11 UNL     1      23.643   6.572  50.989  1.00  0.00     0.082 C 
BRANCH  18  19
HETATM   19  N5  UNL     1      24.490   6.742  52.117  1.00  0.00    -0.408 N 
HETATM   20  H9  UNL     1      24.245   7.585  52.690  1.00  0.00     0.155 HD
HETATM   21  H10 UNL     1      25.215   5.993  52.179  1.00  0.00     0.155 HD
ENDBRANCH  18  19
ENDBRANCH  17  18
ENDBRANCH  15  17
ENDBRANCH   7  11
BRANCH  10  22
HETATM   22  O2  UNL     1      21.584   0.717  51.050  1.00  0.00    -0.353 OA
HETATM   23  C15 UNL     1      21.523   1.197  49.743  1.00  0.00     0.210 C 
ENDBRANCH  10  22
BRANCH   1  24
HETATM   24  O1  UNL     1      21.474  -0.984  53.148  1.00  0.00    -0.353 OA
HETATM   25  C1  UNL     1      21.231  -1.484  54.449  1.00  0.00     0.210 C 
ENDBRANCH   1  24
TORSDOF 6
ENDMDL
