MODEL 1
REMARK VINA RESULT:      -7.9      0.000      0.000
REMARK  1 active torsions:
REMARK  status: ('A' for Active; 'I' for Inactive)
REMARK       I    between atoms: C2_2  and  N1_4 
REMARK    1  A    between atoms: N2_7  and  C5_8 
ROOT
HETATM    1  C5  UNL     1      25.334   1.595  52.793  1.00  0.00     0.234 C 
HETATM    2  C6  UNL     1      26.040   1.948  51.516  1.00  0.00     0.061 C 
HETATM    3  C7  UNL     1      25.145   3.091  51.312  1.00  0.00     0.091 C 
HETATM    4  N3  UNL     1      24.085   2.780  50.240  1.00  0.00    -0.370 N 
HETATM    5  C8  UNL     1      23.112   1.870  51.033  1.00  0.00     0.297 A 
HETATM    6  C9  UNL     1      22.475   1.140  52.205  1.00  0.00     0.073 A 
HETATM    7  C10 UNL     1      23.154   1.828  51.398  1.00  0.00     0.248 A 
HETATM    8  N4  UNL     1      22.433   1.501  50.292  1.00  0.00     0.086 N 
HETATM    9  C11 UNL     1      21.329   0.685  50.143  1.00  0.00     0.371 A 
HETATM   10  N5  UNL     1      22.346   1.509  49.928  1.00  0.00    -0.042 NA
HETATM   11  C12 UNL     1      24.212   2.414  52.461  1.00  0.00     0.090 C 
HETATM   12  H12 UNL     1      23.987   3.059  49.297  1.00  0.00     0.157 HD
ENDROOT
BRANCH   1  13
HETATM   13  N2  UNL     1      25.189   0.148  52.936  1.00  0.00     0.096 N 
HETATM   14  C4  UNL     1      25.294  -0.286  54.286  1.00  0.00     0.292 C 
HETATM   15  C3  UNL     1      26.617   0.068  54.955  1.00  0.00     0.156 C 
HETATM   16  N1  UNL     1      27.673  -0.323  54.046  1.00  0.00    -0.349 N 
HETATM   17  C2  UNL     1      28.971   0.190  54.313  1.00  0.00     0.215 C 
HETATM   18  C14 UNL     1      27.237  -1.202  52.968  1.00  0.00     0.156 C 
HETATM   19  C1  UNL     1      30.173  -0.108  53.481  1.00  0.00     0.117 C 
HETATM   20  O1  UNL     1      28.825   0.905  55.363  1.00  0.00    -0.274 OA
HETATM   21  C13 UNL     1      26.164  -0.532  52.134  1.00  0.00     0.292 C 
ENDBRANCH   1  13
TORSDOF 1
ENDMDL
MODEL 2
REMARK VINA RESULT:      -7.1      2.608      5.551
REMARK  1 active torsions:
REMARK  status: ('A' for Active; 'I' for Inactive)
REMARK       I    between atoms: C2_2  and  N1_4 
REMARK    1  A    between atoms: N2_7  and  C5_8 
ROOT
HETATM    1  C5  UNL     1      25.500   1.692  51.845  1.00  0.00     0.234 C 
HETATM    2  C6  UNL     1      26.536   2.390  52.680  1.00  0.00     0.061 C 
HETATM    3  C7  UNL     1      27.347   1.170  52.732  1.00  0.00     0.091 C 
HETATM    4  N3  UNL     1      27.211   0.472  54.097  1.00  0.00    -0.370 N 
HETATM    5  C8  UNL     1      25.817  -0.191  53.958  1.00  0.00     0.297 A 
HETATM    6  C9  UNL     1      24.519  -0.669  53.324  1.00  0.00     0.073 A 
HETATM    7  C10 UNL     1      25.643  -0.189  53.632  1.00  0.00     0.248 A 
HETATM    8  N4  UNL     1      25.605  -0.567  54.938  1.00  0.00     0.086 N 
HETATM    9  C11 UNL     1      24.640  -1.249  55.653  1.00  0.00     0.371 A 
HETATM   10  N5  UNL     1      25.736  -0.597  55.288  1.00  0.00    -0.042 NA
HETATM   11  C12 UNL     1      26.020   0.405  52.184  1.00  0.00     0.090 C 
HETATM   12  H12 UNL     1      27.811   0.414  54.880  1.00  0.00     0.157 HD
ENDROOT
BRANCH   1  13
HETATM   13  N2  UNL     1      24.149   2.083  52.240  1.00  0.00     0.096 N 
HETATM   14  C4  UNL     1      23.258   2.180  51.136  1.00  0.00     0.292 C 
HETATM   15  C3  UNL     1      23.688   3.183  50.073  1.00  0.00     0.156 C 
HETATM   16  N1  UNL     1      24.034   4.410  50.758  1.00  0.00    -0.349 N 
HETATM   17  C2  UNL     1      24.756   5.380  50.012  1.00  0.00     0.215 C 
HETATM   18  C14 UNL     1      23.581   4.467  52.143  1.00  0.00     0.156 C 
HETATM   19  C1  UNL     1      25.194   6.696  50.559  1.00  0.00     0.117 C 
HETATM   20  O1  UNL     1      24.905   4.852  48.856  1.00  0.00    -0.274 OA
HETATM   21  C13 UNL     1      24.178   3.330  52.947  1.00  0.00     0.292 C 
ENDBRANCH   1  13
TORSDOF 1
ENDMDL
MODEL 3
REMARK VINA RESULT:      -6.8      2.225      5.992
REMARK  1 active torsions:
REMARK  status: ('A' for Active; 'I' for Inactive)
REMARK       I    between atoms: C2_2  and  N1_4 
REMARK    1  A    between atoms: N2_7  and  C5_8 
ROOT
HETATM    1  C5  UNL     1      25.664   0.582  53.390  1.00  0.00     0.234 C 
HETATM    2  C6  UNL     1      25.617  -0.379  52.237  1.00  0.00     0.061 C 
HETATM    3  C7  UNL     1      26.002  -1.486  53.118  1.00  0.00     0.091 C 
HETATM    4  N3  UNL     1      27.483  -1.859  52.924  1.00  0.00    -0.370 N 
HETATM    5  C8  UNL     1      28.185  -0.708  53.690  1.00  0.00     0.297 A 
HETATM    6  C9  UNL     1      28.369   0.514  54.576  1.00  0.00     0.073 A 
HETATM    7  C10 UNL     1      27.985  -0.472  53.892  1.00  0.00     0.248 A 
HETATM    8  N4  UNL     1      29.223  -0.834  53.461  1.00  0.00     0.086 N 
HETATM    9  C11 UNL     1      30.464  -0.283  53.711  1.00  0.00     0.371 A 
HETATM   10  N5  UNL     1      29.470  -1.044  53.273  1.00  0.00    -0.042 NA
HETATM   11  C12 UNL     1      26.410  -0.335  54.192  1.00  0.00     0.090 C 
HETATM   12  H12 UNL     1      27.928  -2.612  52.463  1.00  0.00     0.157 HD
ENDROOT
BRANCH   1  13
HETATM   13  N2  UNL     1      26.238   1.864  52.987  1.00  0.00     0.096 N 
HETATM   14  C4  UNL     1      25.496   2.977  53.471  1.00  0.00     0.292 C 
HETATM   15  C3  UNL     1      24.044   3.007  53.010  1.00  0.00     0.156 C 
HETATM   16  N1  UNL     1      24.046   2.779  51.580  1.00  0.00    -0.349 N 
HETATM   17  C2  UNL     1      22.798   2.454  50.982  1.00  0.00     0.215 C 
HETATM   18  C14 UNL     1      25.355   2.918  50.956  1.00  0.00     0.156 C 
HETATM   19  C1  UNL     1      22.617   2.186  49.526  1.00  0.00     0.117 C 
HETATM   20  O1  UNL     1      21.965   2.457  51.952  1.00  0.00    -0.274 OA
HETATM   21  C13 UNL     1      26.341   1.938  51.559  1.00  0.00     0.292 C 
ENDBRANCH   1  13
TORSDOF 1
ENDMDL
MODEL 4
REMARK VINA RESULT:      -6.6      2.970      5.459
REMARK  1 active torsions:
REMARK  status: ('A' for Active; 'I' for Inactive)
REMARK       I    between atoms: C2_2  and  N1_4 
REMARK    1  A    between atoms: N2_7  and  C5_8 
ROOT
HETATM    1  C5  UNL     1      24.380   2.141  52.027  1.00  0.00     0.234 C 
HETATM    2  C6  UNL     1      25.363   2.179  53.163  1.00  0.00     0.061 C 
HETATM    3  C7  UNL     1      25.699   0.769  52.947  1.00  0.00     0.091 C 
HETATM    4  N3  UNL     1      25.032  -0.128  54.005  1.00  0.00    -0.370 N 
HETATM    5  C8  UNL     1      23.571  -0.165  53.490  1.00  0.00     0.297 A 
HETATM    6  C9  UNL     1      22.372   0.045  52.576  1.00  0.00     0.073 A 
HETATM    7  C10 UNL     1      23.487  -0.021  53.160  1.00  0.00     0.248 A 
HETATM    8  N4  UNL     1      23.028  -0.654  54.272  1.00  0.00     0.086 N 
HETATM    9  C11 UNL     1      21.757  -1.071  54.613  1.00  0.00     0.371 A 
HETATM   10  N5  UNL     1      23.057  -0.813  54.610  1.00  0.00    -0.042 NA
HETATM   11  C12 UNL     1      24.361   0.712  52.023  1.00  0.00     0.090 C 
HETATM   12  H12 UNL     1      25.382  -0.591  54.805  1.00  0.00     0.157 HD
ENDROOT
BRANCH   1  13
HETATM   13  N2  UNL     1      23.176   2.906  52.342  1.00  0.00     0.096 N 
HETATM   14  C4  UNL     1      22.362   3.146  51.201  1.00  0.00     0.292 C 
HETATM   15  C3  UNL     1      23.061   3.912  50.085  1.00  0.00     0.156 C 
HETATM   16  N1  UNL     1      23.711   5.054  50.693  1.00  0.00    -0.349 N 
HETATM   17  C2  UNL     1      24.677   5.736  49.905  1.00  0.00     0.215 C 
HETATM   18  C14 UNL     1      23.266   5.340  52.051  1.00  0.00     0.156 C 
HETATM   19  C1  UNL     1      25.442   6.928  50.372  1.00  0.00     0.117 C 
HETATM   20  O1  UNL     1      24.700   5.097  48.798  1.00  0.00    -0.274 OA
HETATM   21  C13 UNL     1      23.524   4.153  52.957  1.00  0.00     0.292 C 
ENDBRANCH   1  13
TORSDOF 1
ENDMDL
MODEL 5
REMARK VINA RESULT:      -6.4      2.165      3.343
REMARK  1 active torsions:
REMARK  status: ('A' for Active; 'I' for Inactive)
REMARK       I    between atoms: C2_2  and  N1_4 
REMARK    1  A    between atoms: N2_7  and  C5_8 
ROOT
HETATM    1  C5  UNL     1      23.454   0.821  52.149  1.00  0.00     0.234 C 
HETATM    2  C6  UNL     1      22.953   0.485  53.524  1.00  0.00     0.061 C 
HETATM    3  C7  UNL     1      21.731  -0.096  52.960  1.00  0.00     0.091 C 
HETATM    4  N3  UNL     1      20.535   0.857  53.130  1.00  0.00    -0.370 N 
HETATM    5  C8  UNL     1      20.821   1.900  52.019  1.00  0.00     0.297 A 
HETATM    6  C9  UNL     1      21.474   2.561  50.815  1.00  0.00     0.073 A 
HETATM    7  C10 UNL     1      21.093   1.841  51.776  1.00  0.00     0.248 A 
HETATM    8  N4  UNL     1      20.099   2.672  52.190  1.00  0.00     0.086 N 
HETATM    9  C11 UNL     1      19.677   3.890  51.696  1.00  0.00     0.371 A 
HETATM   10  N5  UNL     1      19.815   2.780  52.409  1.00  0.00    -0.042 NA
HETATM   11  C12 UNL     1      22.156   0.648  51.577  1.00  0.00     0.090 C 
HETATM   12  H12 UNL     1      19.762   0.856  53.746  1.00  0.00     0.157 HD
ENDROOT
BRANCH   1  13
HETATM   13  N2  UNL     1      24.113   2.125  52.129  1.00  0.00     0.096 N 
HETATM   14  C4  UNL     1      25.218   2.170  51.235  1.00  0.00     0.292 C 
HETATM   15  C3  UNL     1      26.312   1.155  51.542  1.00  0.00     0.156 C 
HETATM   16  N1  UNL     1      26.597   1.249  52.958  1.00  0.00    -0.349 N 
HETATM   17  C2  UNL     1      27.353   0.191  53.531  1.00  0.00     0.215 C 
HETATM   18  C14 UNL     1      26.053   2.440  53.597  1.00  0.00     0.156 C 
HETATM   19  C1  UNL     1      27.736   0.125  54.972  1.00  0.00     0.117 C 
HETATM   20  O1  UNL     1      27.585  -0.605  52.558  1.00  0.00    -0.274 OA
HETATM   21  C13 UNL     1      24.545   2.484  53.448  1.00  0.00     0.292 C 
ENDBRANCH   1  13
TORSDOF 1
ENDMDL
MODEL 6
REMARK VINA RESULT:      -6.4      8.320      9.954
REMARK  1 active torsions:
REMARK  status: ('A' for Active; 'I' for Inactive)
REMARK       I    between atoms: C2_2  and  N1_4 
REMARK    1  A    between atoms: N2_7  and  C5_8 
ROOT
HETATM    1  C5  UNL     1      30.678   6.552  47.386  1.00  0.00     0.234 C 
HETATM    2  C6  UNL     1      30.244   5.666  48.519  1.00  0.00     0.061 C 
HETATM    3  C7  UNL     1      28.843   5.790  48.106  1.00  0.00     0.091 C 
HETATM    4  N3  UNL     1      28.079   6.761  49.025  1.00  0.00    -0.370 N 
HETATM    5  C8  UNL     1      28.588   8.129  48.505  1.00  0.00     0.297 A 
HETATM    6  C9  UNL     1      29.295   9.151  47.626  1.00  0.00     0.073 A 
HETATM    7  C10 UNL     1      28.794   8.146  48.198  1.00  0.00     0.248 A 
HETATM    8  N4  UNL     1      28.203   8.838  49.208  1.00  0.00     0.086 N 
HETATM    9  C11 UNL     1      28.179  10.191  49.483  1.00  0.00     0.371 A 
HETATM   10  N5  UNL     1      27.999   8.878  49.520  1.00  0.00    -0.042 NA
HETATM   11  C12 UNL     1      29.347   7.029  47.180  1.00  0.00     0.090 C 
HETATM   12  H12 UNL     1      27.425   6.617  49.752  1.00  0.00     0.157 HD
ENDROOT
BRANCH   1  13
HETATM   13  N2  UNL     1      31.744   7.461  47.802  1.00  0.00     0.096 N 
HETATM   14  C4  UNL     1      32.634   7.789  46.742  1.00  0.00     0.292 C 
HETATM   15  C3  UNL     1      33.332   6.587  46.118  1.00  0.00     0.156 C 
HETATM   16  N1  UNL     1      33.856   5.786  47.204  1.00  0.00    -0.349 N 
HETATM   17  C2  UNL     1      34.271   4.465  46.884  1.00  0.00     0.215 C 
HETATM   18  C14 UNL     1      33.879   6.470  48.491  1.00  0.00     0.156 C 
HETATM   19  C1  UNL     1      34.833   3.504  47.877  1.00  0.00     0.117 C 
HETATM   20  O1  UNL     1      34.046   4.351  45.631  1.00  0.00    -0.274 OA
HETATM   21  C13 UNL     1      32.482   6.896  48.894  1.00  0.00     0.292 C 
ENDBRANCH   1  13
TORSDOF 1
ENDMDL
MODEL 7
REMARK VINA RESULT:      -6.4      3.074      6.259
REMARK  1 active torsions:
REMARK  status: ('A' for Active; 'I' for Inactive)
REMARK       I    between atoms: C2_2  and  N1_4 
REMARK    1  A    between atoms: N2_7  and  C5_8 
ROOT
HETATM    1  C5  UNL     1      23.423   1.669  51.672  1.00  0.00     0.234 C 
HETATM    2  C6  UNL     1      23.461   3.014  52.340  1.00  0.00     0.061 C 
HETATM    3  C7  UNL     1      24.878   3.166  51.998  1.00  0.00     0.091 C 
HETATM    4  N3  UNL     1      25.774   2.913  53.224  1.00  0.00    -0.370 N 
HETATM    5  C8  UNL     1      25.730   1.366  53.314  1.00  0.00     0.297 A 
HETATM    6  C9  UNL     1      25.441  -0.079  52.938  1.00  0.00     0.073 A 
HETATM    7  C10 UNL     1      25.573   1.169  53.043  1.00  0.00     0.248 A 
HETATM    8  N4  UNL     1      26.216   1.142  54.242  1.00  0.00     0.086 N 
HETATM    9  C11 UNL     1      26.585   0.081  55.044  1.00  0.00     0.371 A 
HETATM   10  N5  UNL     1      26.386   1.292  54.541  1.00  0.00    -0.042 NA
HETATM   11  C12 UNL     1      24.848   1.574  51.664  1.00  0.00     0.090 C 
HETATM   12  H12 UNL     1      26.275   3.520  53.822  1.00  0.00     0.157 HD
ENDROOT
BRANCH   1  13
HETATM   13  N2  UNL     1      22.614   0.721  52.436  1.00  0.00     0.096 N 
HETATM   14  C4  UNL     1      21.844  -0.140  51.606  1.00  0.00     0.292 C 
HETATM   15  C3  UNL     1      20.874   0.587  50.682  1.00  0.00     0.156 C 
HETATM   16  N1  UNL     1      20.156   1.551  51.489  1.00  0.00    -0.349 N 
HETATM   17  C2  UNL     1      19.428   2.553  50.793  1.00  0.00     0.215 C 
HETATM   18  C14 UNL     1      20.292   1.345  52.925  1.00  0.00     0.156 C 
HETATM   19  C1  UNL     1      18.636   3.625  51.463  1.00  0.00     0.117 C 
HETATM   20  O1  UNL     1      19.629   2.298  49.556  1.00  0.00    -0.274 OA
HETATM   21  C13 UNL     1      21.748   1.421  53.339  1.00  0.00     0.292 C 
ENDBRANCH   1  13
TORSDOF 1
ENDMDL
MODEL 8
REMARK VINA RESULT:      -6.3      2.959      6.180
REMARK  1 active torsions:
REMARK  status: ('A' for Active; 'I' for Inactive)
REMARK       I    between atoms: C2_2  and  N1_4 
REMARK    1  A    between atoms: N2_7  and  C5_8 
ROOT
HETATM    1  C5  UNL     1      23.248   2.285  52.088  1.00  0.00     0.234 C 
HETATM    2  C6  UNL     1      22.389   1.069  51.887  1.00  0.00     0.061 C 
HETATM    3  C7  UNL     1      22.662   0.623  53.256  1.00  0.00     0.091 C 
HETATM    4  N3  UNL     1      23.687  -0.525  53.270  1.00  0.00    -0.370 N 
HETATM    5  C8  UNL     1      25.007   0.247  53.019  1.00  0.00     0.297 A 
HETATM    6  C9  UNL     1      25.969   1.412  52.840  1.00  0.00     0.073 A 
HETATM    7  C10 UNL     1      25.009   0.617  53.022  1.00  0.00     0.248 A 
HETATM    8  N4  UNL     1      25.737  -0.521  52.869  1.00  0.00     0.086 N 
HETATM    9  C11 UNL     1      27.080  -0.705  52.605  1.00  0.00     0.371 A 
HETATM   10  N5  UNL     1      25.791  -0.892  52.855  1.00  0.00    -0.042 NA
HETATM   11  C12 UNL     1      23.861   1.722  53.250  1.00  0.00     0.090 C 
HETATM   12  H12 UNL     1      23.596  -1.500  53.408  1.00  0.00     0.157 HD
ENDROOT
BRANCH   1  13
HETATM   13  N2  UNL     1      24.036   2.580  50.894  1.00  0.00     0.096 N 
HETATM   14  C4  UNL     1      24.619   3.878  50.926  1.00  0.00     0.292 C 
HETATM   15  C3  UNL     1      23.610   5.013  51.051  1.00  0.00     0.156 C 
HETATM   16  N1  UNL     1      22.573   4.772  50.070  1.00  0.00    -0.349 N 
HETATM   17  C2  UNL     1      21.373   5.520  50.209  1.00  0.00     0.215 C 
HETATM   18  C14 UNL     1      22.923   3.776  49.065  1.00  0.00     0.156 C 
HETATM   19  C1  UNL     1      20.203   5.398  49.292  1.00  0.00     0.117 C 
HETATM   20  O1  UNL     1      21.565   6.249  51.242  1.00  0.00    -0.274 OA
HETATM   21  C13 UNL     1      23.229   2.443  49.718  1.00  0.00     0.292 C 
ENDBRANCH   1  13
TORSDOF 1
ENDMDL
MODEL 9
REMARK VINA RESULT:      -6.2      3.896      5.567
REMARK  1 active torsions:
REMARK  status: ('A' for Active; 'I' for Inactive)
REMARK       I    between atoms: C2_2  and  N1_4 
REMARK    1  A    between atoms: N2_7  and  C5_8 
ROOT
HETATM    1  C5  UNL     1      22.433   3.506  51.169  1.00  0.00     0.234 C 
HETATM    2  C6  UNL     1      22.987   4.022  52.466  1.00  0.00     0.061 C 
HETATM    3  C7  UNL     1      22.856   5.404  51.997  1.00  0.00     0.091 C 
HETATM    4  N3  UNL     1      24.221   5.980  51.580  1.00  0.00    -0.370 N 
HETATM    5  C8  UNL     1      24.429   5.295  50.205  1.00  0.00     0.297 A 
HETATM    6  C9  UNL     1      24.132   4.480  48.956  1.00  0.00     0.073 A 
HETATM    7  C10 UNL     1      24.154   5.101  50.052  1.00  0.00     0.248 A 
HETATM    8  N4  UNL     1      25.435   5.544  49.937  1.00  0.00     0.086 N 
HETATM    9  C11 UNL     1      26.368   5.356  48.937  1.00  0.00     0.371 A 
HETATM   10  N5  UNL     1      25.743   5.727  50.046  1.00  0.00    -0.042 NA
HETATM   11  C12 UNL     1      22.652   4.759  50.518  1.00  0.00     0.090 C 
HETATM   12  H12 UNL     1      24.837   6.619  52.015  1.00  0.00     0.157 HD
ENDROOT
BRANCH   1  13
HETATM   13  N2  UNL     1      23.138   2.303  50.733  1.00  0.00     0.096 N 
HETATM   14  C4  UNL     1      22.280   1.359  50.104  1.00  0.00     0.292 C 
HETATM   15  C3  UNL     1      21.133   0.875  50.983  1.00  0.00     0.156 C 
HETATM   16  N1  UNL     1      21.700   0.509  52.263  1.00  0.00    -0.349 N 
HETATM   17  C2  UNL     1      20.790   0.328  53.339  1.00  0.00     0.215 C 
HETATM   18  C14 UNL     1      23.152   0.380  52.256  1.00  0.00     0.156 C 
HETATM   19  C1  UNL     1      21.200  -0.048  54.723  1.00  0.00     0.117 C 
HETATM   20  O1  UNL     1      19.640   0.557  52.831  1.00  0.00    -0.274 OA
HETATM   21  C13 UNL     1      23.802   1.685  51.844  1.00  0.00     0.292 C 
ENDBRANCH   1  13
TORSDOF 1
ENDMDL
