MODEL 1
REMARK VINA RESULT:      -5.9      0.000      0.000
REMARK  11 active torsions:
REMARK  status: ('A' for Active; 'I' for Inactive)
REMARK    1  A    between atoms: C2_2  and  C3_3 
REMARK    2  A    between atoms: C3_3  and  C4_4 
REMARK    3  A    between atoms: C4_4  and  N1_5 
REMARK    4  A    between atoms: N1_5  and  C5_6 
REMARK    5  A    between atoms: N1_5  and  C15_22 
REMARK    6  A    between atoms: C5_6  and  C6_7 
REMARK    7  A    between atoms: C7_8  and  C8_9 
REMARK       I    between atoms: C8_9  and  N2_11 
REMARK    8  A    between atoms: N2_11  and  C9_12 
REMARK    9  A    between atoms: C12_16  and  O2_17 
REMARK   10  A    between atoms: C15_22  and  C16_23 
REMARK   11  A    between atoms: C16_23  and  C17_24 
ROOT
HETATM    1  C8  UNL     1      26.434   3.997  49.852  1.00  0.00     0.302 C 
HETATM    2  O1  UNL     1      27.160   3.206  49.160  1.00  0.00    -0.258 OA
HETATM    3  N2  UNL     1      26.041   3.660  51.172  1.00  0.00    -0.299 N 
HETATM    4  H12 UNL     1      25.460   4.371  51.664  1.00  0.00     0.171 HD
ENDROOT
BRANCH   1   5
HETATM    5  C7  UNL     1      26.081   5.212  49.150  1.00  0.00    -0.004 C 
HETATM    6  C6  UNL     1      25.777   6.232  48.583  1.00  0.00    -0.077 C 
BRANCH   6   7
HETATM    7  C5  UNL     1      25.384   7.502  47.900  1.00  0.00     0.212 C 
BRANCH   7   8
HETATM    8  N1  UNL     1      23.986   7.687  48.185  1.00  0.00    -0.403 N 
BRANCH   8   9
HETATM    9  C4  UNL     1      23.072   7.657  47.154  1.00  0.00     0.117 C 
BRANCH   9  10
HETATM   10  C3  UNL     1      22.655   6.346  46.558  1.00  0.00     0.019 C 
BRANCH  10  11
HETATM   11  C2  UNL     1      21.754   5.454  47.337  1.00  0.00    -0.003 C 
HETATM   12  C1  UNL     1      22.613   4.294  47.891  1.00  0.00     0.005 C 
ENDBRANCH  10  11
ENDBRANCH   9  10
ENDBRANCH   8   9
BRANCH   8  13
HETATM   13  C15 UNL     1      23.700   8.071  49.483  1.00  0.00     0.117 C 
BRANCH  13  14
HETATM   14  C16 UNL     1      22.314   7.983  49.990  1.00  0.00     0.019 C 
BRANCH  14  15
HETATM   15  C17 UNL     1      21.902   6.873  50.877  1.00  0.00    -0.003 C 
HETATM   16  C18 UNL     1      23.004   5.907  51.184  1.00  0.00     0.005 C 
ENDBRANCH  14  15
ENDBRANCH  13  14
ENDBRANCH   8  13
ENDBRANCH   7   8
ENDBRANCH   6   7
ENDBRANCH   1   5
BRANCH   3  17
HETATM   17  C9  UNL     1      26.434   2.402  51.764  1.00  0.00     0.148 C 
HETATM   18  C10 UNL     1      25.496   1.449  51.635  1.00  0.00     0.067 C 
HETATM   19  S1  UNL     1      25.285   0.825  53.093  1.00  0.00    -0.099 SA
HETATM   20  C11 UNL     1      24.364  -0.361  54.105  1.00  0.00     0.104 A 
HETATM   21  C13 UNL     1      26.895   0.633  53.965  1.00  0.00     0.113 A 
HETATM   22  C12 UNL     1      25.355  -0.734  54.940  1.00  0.00     0.169 A 
HETATM   23  N3  UNL     1      26.658  -0.235  54.884  1.00  0.00    -0.216 NA
HETATM   24  C14 UNL     1      27.973   1.505  53.403  1.00  0.00     0.158 C 
HETATM   25  N4  UNL     1      27.672   2.271  52.408  1.00  0.00    -0.239 NA
BRANCH  22  26
HETATM   26  O2  UNL     1      24.979  -1.692  55.909  1.00  0.00    -0.344 OA
HETATM   27  H14 UNL     1      24.246  -1.534  56.571  1.00  0.00     0.219 HD
ENDBRANCH  22  26
ENDBRANCH   3  17
TORSDOF 11
ENDMDL
MODEL 2
REMARK VINA RESULT:      -5.9      1.492      2.711
REMARK  11 active torsions:
REMARK  status: ('A' for Active; 'I' for Inactive)
REMARK    1  A    between atoms: C2_2  and  C3_3 
REMARK    2  A    between atoms: C3_3  and  C4_4 
REMARK    3  A    between atoms: C4_4  and  N1_5 
REMARK    4  A    between atoms: N1_5  and  C5_6 
REMARK    5  A    between atoms: N1_5  and  C15_22 
REMARK    6  A    between atoms: C5_6  and  C6_7 
REMARK    7  A    between atoms: C7_8  and  C8_9 
REMARK       I    between atoms: C8_9  and  N2_11 
REMARK    8  A    between atoms: N2_11  and  C9_12 
REMARK    9  A    between atoms: C12_16  and  O2_17 
REMARK   10  A    between atoms: C15_22  and  C16_23 
REMARK   11  A    between atoms: C16_23  and  C17_24 
ROOT
HETATM    1  C8  UNL     1      26.529   3.931  49.868  1.00  0.00     0.302 C 
HETATM    2  O1  UNL     1      27.121   3.073  49.129  1.00  0.00    -0.258 OA
HETATM    3  N2  UNL     1      26.224   3.642  51.222  1.00  0.00    -0.299 N 
HETATM    4  H12 UNL     1      25.753   4.406  51.750  1.00  0.00     0.171 HD
ENDROOT
BRANCH   1   5
HETATM    5  C7  UNL     1      26.223   5.166  49.179  1.00  0.00    -0.004 C 
HETATM    6  C6  UNL     1      25.957   6.184  48.591  1.00  0.00    -0.077 C 
BRANCH   6   7
HETATM    7  C5  UNL     1      25.619   7.432  47.840  1.00  0.00     0.212 C 
BRANCH   7   8
HETATM    8  N1  UNL     1      25.170   8.377  48.827  1.00  0.00    -0.403 N 
BRANCH   8   9
HETATM    9  C4  UNL     1      23.869   8.324  49.277  1.00  0.00     0.117 C 
BRANCH   9  10
HETATM   10  C3  UNL     1      23.576   7.877  50.677  1.00  0.00     0.019 C 
BRANCH  10  11
HETATM   11  C2  UNL     1      22.774   6.641  50.887  1.00  0.00    -0.003 C 
HETATM   12  C1  UNL     1      22.310   6.146  49.498  1.00  0.00     0.005 C 
ENDBRANCH  10  11
ENDBRANCH   9  10
ENDBRANCH   8   9
BRANCH   8  13
HETATM   13  C15 UNL     1      26.061   9.398  49.108  1.00  0.00     0.117 C 
BRANCH  13  14
HETATM   14  C16 UNL     1      27.183   9.162  50.042  1.00  0.00     0.019 C 
BRANCH  14  15
HETATM   15  C17 UNL     1      28.582   9.384  49.616  1.00  0.00    -0.003 C 
HETATM   16  C18 UNL     1      29.130   8.291  48.754  1.00  0.00     0.005 C 
ENDBRANCH  14  15
ENDBRANCH  13  14
ENDBRANCH   8  13
ENDBRANCH   7   8
ENDBRANCH   6   7
ENDBRANCH   1   5
BRANCH   3  17
HETATM   17  C9  UNL     1      26.556   2.360  51.799  1.00  0.00     0.148 C 
HETATM   18  C10 UNL     1      25.577   1.452  51.652  1.00  0.00     0.067 C 
HETATM   19  S1  UNL     1      25.328   0.819  53.100  1.00  0.00    -0.099 SA
HETATM   20  C11 UNL     1      24.348  -0.338  54.090  1.00  0.00     0.104 A 
HETATM   21  C13 UNL     1      26.922   0.543  53.979  1.00  0.00     0.113 A 
HETATM   22  C12 UNL     1      25.315  -0.766  54.926  1.00  0.00     0.169 A 
HETATM   23  N3  UNL     1      26.641  -0.327  54.884  1.00  0.00    -0.216 NA
HETATM   24  C14 UNL     1      28.042   1.372  53.435  1.00  0.00     0.158 C 
HETATM   25  N4  UNL     1      27.783   2.164  52.449  1.00  0.00    -0.239 NA
BRANCH  22  26
HETATM   26  O2  UNL     1      24.890  -1.720  55.879  1.00  0.00    -0.344 OA
HETATM   27  H14 UNL     1      24.581  -2.637  55.626  1.00  0.00     0.219 HD
ENDBRANCH  22  26
ENDBRANCH   3  17
TORSDOF 11
ENDMDL
MODEL 3
REMARK VINA RESULT:      -5.8      5.386      8.463
REMARK  11 active torsions:
REMARK  status: ('A' for Active; 'I' for Inactive)
REMARK    1  A    between atoms: C2_2  and  C3_3 
REMARK    2  A    between atoms: C3_3  and  C4_4 
REMARK    3  A    between atoms: C4_4  and  N1_5 
REMARK    4  A    between atoms: N1_5  and  C5_6 
REMARK    5  A    between atoms: N1_5  and  C15_22 
REMARK    6  A    between atoms: C5_6  and  C6_7 
REMARK    7  A    between atoms: C7_8  and  C8_9 
REMARK       I    between atoms: C8_9  and  N2_11 
REMARK    8  A    between atoms: N2_11  and  C9_12 
REMARK    9  A    between atoms: C12_16  and  O2_17 
REMARK   10  A    between atoms: C15_22  and  C16_23 
REMARK   11  A    between atoms: C16_23  and  C17_24 
ROOT
HETATM    1  C8  UNL     1      28.112   5.801  48.468  1.00  0.00     0.302 C 
HETATM    2  O1  UNL     1      27.824   6.693  47.600  1.00  0.00    -0.258 OA
HETATM    3  N2  UNL     1      29.439   5.648  48.945  1.00  0.00    -0.299 N 
HETATM    4  H12 UNL     1      29.576   4.904  49.661  1.00  0.00     0.171 HD
ENDROOT
BRANCH   1   5
HETATM    5  C7  UNL     1      26.972   5.009  48.875  1.00  0.00    -0.004 C 
HETATM    6  C6  UNL     1      26.019   4.362  49.230  1.00  0.00    -0.077 C 
BRANCH   6   7
HETATM    7  C5  UNL     1      24.839   3.570  49.695  1.00  0.00     0.212 C 
BRANCH   7   8
HETATM    8  N1  UNL     1      25.196   3.051  50.989  1.00  0.00    -0.403 N 
BRANCH   8   9
HETATM    9  C4  UNL     1      26.246   2.167  51.099  1.00  0.00     0.117 C 
BRANCH   9  10
HETATM   10  C3  UNL     1      27.058   2.118  52.359  1.00  0.00     0.019 C 
BRANCH  10  11
HETATM   11  C2  UNL     1      27.423   0.793  52.931  1.00  0.00    -0.003 C 
HETATM   12  C1  UNL     1      26.728  -0.291  52.074  1.00  0.00     0.005 C 
ENDBRANCH  10  11
ENDBRANCH   9  10
ENDBRANCH   8   9
BRANCH   8  13
HETATM   13  C15 UNL     1      24.310   3.357  52.007  1.00  0.00     0.117 C 
BRANCH  13  14
HETATM   14  C16 UNL     1      23.091   2.541  52.193  1.00  0.00     0.019 C 
BRANCH  14  15
HETATM   15  C17 UNL     1      23.121   1.077  51.981  1.00  0.00    -0.003 C 
HETATM   16  C18 UNL     1      23.254   0.288  53.245  1.00  0.00     0.005 C 
ENDBRANCH  14  15
ENDBRANCH  13  14
ENDBRANCH   8  13
ENDBRANCH   7   8
ENDBRANCH   6   7
ENDBRANCH   1   5
BRANCH   3  17
HETATM   17  C9  UNL     1      30.506   6.483  48.446  1.00  0.00     0.148 C 
HETATM   18  C10 UNL     1      31.410   5.800  47.723  1.00  0.00     0.067 C 
HETATM   19  S1  UNL     1      32.846   6.189  48.313  1.00  0.00    -0.099 SA
HETATM   20  C11 UNL     1      34.634   5.919  48.223  1.00  0.00     0.104 A 
HETATM   21  C13 UNL     1      32.928   7.985  48.709  1.00  0.00     0.113 A 
HETATM   22  C12 UNL     1      35.046   7.174  48.496  1.00  0.00     0.169 A 
HETATM   23  N3  UNL     1      34.187   8.246  48.747  1.00  0.00    -0.216 NA
HETATM   24  C14 UNL     1      31.579   8.609  48.883  1.00  0.00     0.158 C 
HETATM   25  N4  UNL     1      30.542   7.853  48.744  1.00  0.00    -0.239 NA
BRANCH  22  26
HETATM   26  O2  UNL     1      36.450   7.342  48.512  1.00  0.00    -0.344 OA
HETATM   27  H14 UNL     1      37.073   6.657  48.892  1.00  0.00     0.219 HD
ENDBRANCH  22  26
ENDBRANCH   3  17
TORSDOF 11
ENDMDL
MODEL 4
REMARK VINA RESULT:      -5.8      0.487      2.095
REMARK  11 active torsions:
REMARK  status: ('A' for Active; 'I' for Inactive)
REMARK    1  A    between atoms: C2_2  and  C3_3 
REMARK    2  A    between atoms: C3_3  and  C4_4 
REMARK    3  A    between atoms: C4_4  and  N1_5 
REMARK    4  A    between atoms: N1_5  and  C5_6 
REMARK    5  A    between atoms: N1_5  and  C15_22 
REMARK    6  A    between atoms: C5_6  and  C6_7 
REMARK    7  A    between atoms: C7_8  and  C8_9 
REMARK       I    between atoms: C8_9  and  N2_11 
REMARK    8  A    between atoms: N2_11  and  C9_12 
REMARK    9  A    between atoms: C12_16  and  O2_17 
REMARK   10  A    between atoms: C15_22  and  C16_23 
REMARK   11  A    between atoms: C16_23  and  C17_24 
ROOT
HETATM    1  C8  UNL     1      26.402   4.100  49.809  1.00  0.00     0.302 C 
HETATM    2  O1  UNL     1      27.127   3.322  49.101  1.00  0.00    -0.258 OA
HETATM    3  N2  UNL     1      26.011   3.737  51.123  1.00  0.00    -0.299 N 
HETATM    4  H12 UNL     1      25.431   4.438  51.630  1.00  0.00     0.171 HD
ENDROOT
BRANCH   1   5
HETATM    5  C7  UNL     1      26.048   5.328  49.132  1.00  0.00    -0.004 C 
HETATM    6  C6  UNL     1      25.767   6.362  48.580  1.00  0.00    -0.077 C 
BRANCH   6   7
HETATM    7  C5  UNL     1      25.431   7.658  47.914  1.00  0.00     0.212 C 
BRANCH   7   8
HETATM    8  N1  UNL     1      23.997   7.684  47.803  1.00  0.00    -0.403 N 
BRANCH   8   9
HETATM    9  C4  UNL     1      23.261   8.448  48.681  1.00  0.00     0.117 C 
BRANCH   9  10
HETATM   10  C3  UNL     1      23.318   8.166  50.152  1.00  0.00     0.019 C 
BRANCH  10  11
HETATM   11  C2  UNL     1      22.287   7.281  50.758  1.00  0.00    -0.003 C 
HETATM   12  C1  UNL     1      22.983   5.957  51.149  1.00  0.00     0.005 C 
ENDBRANCH  10  11
ENDBRANCH   9  10
ENDBRANCH   8   9
BRANCH   8  13
HETATM   13  C15 UNL     1      23.462   6.768  46.913  1.00  0.00     0.117 C 
BRANCH  13  14
HETATM   14  C16 UNL     1      22.356   5.885  47.339  1.00  0.00     0.019 C 
BRANCH  14  15
HETATM   15  C17 UNL     1      22.621   4.490  47.756  1.00  0.00    -0.003 C 
HETATM   16  C18 UNL     1      21.885   3.469  46.946  1.00  0.00     0.005 C 
ENDBRANCH  14  15
ENDBRANCH  13  14
ENDBRANCH   8  13
ENDBRANCH   7   8
ENDBRANCH   6   7
ENDBRANCH   1   5
BRANCH   3  17
HETATM   17  C9  UNL     1      26.405   2.468  51.690  1.00  0.00     0.148 C 
HETATM   18  C10 UNL     1      25.457   1.523  51.564  1.00  0.00     0.067 C 
HETATM   19  S1  UNL     1      25.266   0.880  53.016  1.00  0.00    -0.099 SA
HETATM   20  C11 UNL     1      24.354  -0.314  54.026  1.00  0.00     0.104 A 
HETATM   21  C13 UNL     1      26.890   0.663  53.857  1.00  0.00     0.113 A 
HETATM   22  C12 UNL     1      25.356  -0.707  54.838  1.00  0.00     0.169 A 
HETATM   23  N3  UNL     1      26.662  -0.217  54.767  1.00  0.00    -0.216 NA
HETATM   24  C14 UNL     1      27.965   1.535  53.289  1.00  0.00     0.158 C 
HETATM   25  N4  UNL     1      27.653   2.317  52.310  1.00  0.00    -0.239 NA
BRANCH  22  26
HETATM   26  O2  UNL     1      24.990  -1.677  55.800  1.00  0.00    -0.344 OA
HETATM   27  H14 UNL     1      25.197  -2.649  55.692  1.00  0.00     0.219 HD
ENDBRANCH  22  26
ENDBRANCH   3  17
TORSDOF 11
ENDMDL
MODEL 5
REMARK VINA RESULT:      -5.8      2.025      2.614
REMARK  11 active torsions:
REMARK  status: ('A' for Active; 'I' for Inactive)
REMARK    1  A    between atoms: C2_2  and  C3_3 
REMARK    2  A    between atoms: C3_3  and  C4_4 
REMARK    3  A    between atoms: C4_4  and  N1_5 
REMARK    4  A    between atoms: N1_5  and  C5_6 
REMARK    5  A    between atoms: N1_5  and  C15_22 
REMARK    6  A    between atoms: C5_6  and  C6_7 
REMARK    7  A    between atoms: C7_8  and  C8_9 
REMARK       I    between atoms: C8_9  and  N2_11 
REMARK    8  A    between atoms: N2_11  and  C9_12 
REMARK    9  A    between atoms: C12_16  and  O2_17 
REMARK   10  A    between atoms: C15_22  and  C16_23 
REMARK   11  A    between atoms: C16_23  and  C17_24 
ROOT
HETATM    1  C8  UNL     1      25.895   3.264  50.839  1.00  0.00     0.302 C 
HETATM    2  O1  UNL     1      26.811   2.525  50.341  1.00  0.00    -0.258 OA
HETATM    3  N2  UNL     1      25.353   2.991  52.121  1.00  0.00    -0.299 N 
HETATM    4  H12 UNL     1      24.620   3.653  52.450  1.00  0.00     0.171 HD
ENDROOT
BRANCH   1   5
HETATM    5  C7  UNL     1      25.499   4.350  49.970  1.00  0.00    -0.004 C 
HETATM    6  C6  UNL     1      25.150   5.247  49.243  1.00  0.00    -0.077 C 
BRANCH   6   7
HETATM    7  C5  UNL     1      24.698   6.344  48.334  1.00  0.00     0.212 C 
BRANCH   7   8
HETATM    8  N1  UNL     1      23.263   6.251  48.286  1.00  0.00    -0.403 N 
BRANCH   8   9
HETATM    9  C4  UNL     1      22.670   5.304  47.481  1.00  0.00     0.117 C 
BRANCH   9  10
HETATM   10  C3  UNL     1      21.959   4.136  48.094  1.00  0.00     0.019 C 
BRANCH  10  11
HETATM   11  C2  UNL     1      22.650   2.819  48.152  1.00  0.00    -0.003 C 
HETATM   12  C1  UNL     1      22.096   2.056  49.377  1.00  0.00     0.005 C 
ENDBRANCH  10  11
ENDBRANCH   9  10
ENDBRANCH   8   9
BRANCH   8  13
HETATM   13  C15 UNL     1      22.589   7.272  48.933  1.00  0.00     0.117 C 
BRANCH  13  14
HETATM   14  C16 UNL     1      22.442   7.242  50.404  1.00  0.00     0.019 C 
BRANCH  14  15
HETATM   15  C17 UNL     1      21.598   6.218  51.059  1.00  0.00    -0.003 C 
HETATM   16  C18 UNL     1      22.378   5.187  51.811  1.00  0.00     0.005 C 
ENDBRANCH  14  15
ENDBRANCH  13  14
ENDBRANCH   8  13
ENDBRANCH   7   8
ENDBRANCH   6   7
ENDBRANCH   1   5
BRANCH   3  17
HETATM   17  C9  UNL     1      25.810   1.858  52.892  1.00  0.00     0.148 C 
HETATM   18  C10 UNL     1      26.852   2.152  53.688  1.00  0.00     0.067 C 
HETATM   19  S1  UNL     1      27.959   1.031  53.413  1.00  0.00    -0.099 SA
HETATM   20  C11 UNL     1      29.627   0.436  53.793  1.00  0.00     0.104 A 
HETATM   21  C13 UNL     1      27.183  -0.629  53.235  1.00  0.00     0.113 A 
HETATM   22  C12 UNL     1      29.390  -0.891  53.737  1.00  0.00     0.169 A 
HETATM   23  N3  UNL     1      28.145  -1.455  53.453  1.00  0.00    -0.216 NA
HETATM   24  C14 UNL     1      25.729  -0.562  52.890  1.00  0.00     0.158 C 
HETATM   25  N4  UNL     1      25.194   0.606  52.756  1.00  0.00    -0.239 NA
BRANCH  22  26
HETATM   26  O2  UNL     1      30.520  -1.702  53.993  1.00  0.00    -0.344 OA
HETATM   27  H14 UNL     1      30.553  -2.673  53.756  1.00  0.00     0.219 HD
ENDBRANCH  22  26
ENDBRANCH   3  17
TORSDOF 11
ENDMDL
MODEL 6
REMARK VINA RESULT:      -5.7      5.391      8.489
REMARK  11 active torsions:
REMARK  status: ('A' for Active; 'I' for Inactive)
REMARK    1  A    between atoms: C2_2  and  C3_3 
REMARK    2  A    between atoms: C3_3  and  C4_4 
REMARK    3  A    between atoms: C4_4  and  N1_5 
REMARK    4  A    between atoms: N1_5  and  C5_6 
REMARK    5  A    between atoms: N1_5  and  C15_22 
REMARK    6  A    between atoms: C5_6  and  C6_7 
REMARK    7  A    between atoms: C7_8  and  C8_9 
REMARK       I    between atoms: C8_9  and  N2_11 
REMARK    8  A    between atoms: N2_11  and  C9_12 
REMARK    9  A    between atoms: C12_16  and  O2_17 
REMARK   10  A    between atoms: C15_22  and  C16_23 
REMARK   11  A    between atoms: C16_23  and  C17_24 
ROOT
HETATM    1  C8  UNL     1      28.180   5.658  48.507  1.00  0.00     0.302 C 
HETATM    2  O1  UNL     1      27.865   6.534  47.633  1.00  0.00    -0.258 OA
HETATM    3  N2  UNL     1      29.518   5.525  48.959  1.00  0.00    -0.299 N 
HETATM    4  H12 UNL     1      29.679   4.792  49.681  1.00  0.00     0.171 HD
ENDROOT
BRANCH   1   5
HETATM    5  C7  UNL     1      27.058   4.859  48.949  1.00  0.00    -0.004 C 
HETATM    6  C6  UNL     1      26.117   4.190  49.296  1.00  0.00    -0.077 C 
BRANCH   6   7
HETATM    7  C5  UNL     1      24.940   3.363  49.703  1.00  0.00     0.212 C 
BRANCH   7   8
HETATM    8  N1  UNL     1      25.229   2.890  51.030  1.00  0.00    -0.403 N 
BRANCH   8   9
HETATM    9  C4  UNL     1      24.398   3.238  52.072  1.00  0.00     0.117 C 
BRANCH   9  10
HETATM   10  C3  UNL     1      23.069   2.562  52.231  1.00  0.00     0.019 C 
BRANCH  10  11
HETATM   11  C2  UNL     1      22.912   1.160  51.757  1.00  0.00    -0.003 C 
HETATM   12  C1  UNL     1      23.016   0.236  52.992  1.00  0.00     0.005 C 
ENDBRANCH  10  11
ENDBRANCH   9  10
ENDBRANCH   8   9
BRANCH   8  13
HETATM   13  C15 UNL     1      26.453   2.260  51.173  1.00  0.00     0.117 C 
BRANCH  13  14
HETATM   14  C16 UNL     1      26.522   0.903  51.757  1.00  0.00     0.019 C 
BRANCH  14  15
HETATM   15  C17 UNL     1      27.239   0.662  53.028  1.00  0.00    -0.003 C 
HETATM   16  C18 UNL     1      26.418   0.948  54.246  1.00  0.00     0.005 C 
ENDBRANCH  14  15
ENDBRANCH  13  14
ENDBRANCH   8  13
ENDBRANCH   7   8
ENDBRANCH   6   7
ENDBRANCH   1   5
BRANCH   3  17
HETATM   17  C9  UNL     1      30.566   6.365  48.426  1.00  0.00     0.148 C 
HETATM   18  C10 UNL     1      31.505   5.670  47.762  1.00  0.00     0.067 C 
HETATM   19  S1  UNL     1      32.916   6.145  48.349  1.00  0.00    -0.099 SA
HETATM   20  C11 UNL     1      34.713   5.932  48.305  1.00  0.00     0.104 A 
HETATM   21  C13 UNL     1      32.930   7.963  48.635  1.00  0.00     0.113 A 
HETATM   22  C12 UNL     1      35.078   7.215  48.506  1.00  0.00     0.169 A 
HETATM   23  N3  UNL     1      34.179   8.269  48.677  1.00  0.00    -0.216 NA
HETATM   24  C14 UNL     1      31.558   8.549  48.748  1.00  0.00     0.158 C 
HETATM   25  N4  UNL     1      30.550   7.751  48.639  1.00  0.00    -0.239 NA
BRANCH  22  26
HETATM   26  O2  UNL     1      36.475   7.432  48.534  1.00  0.00    -0.344 OA
HETATM   27  H14 UNL     1      36.892   8.305  48.280  1.00  0.00     0.219 HD
ENDBRANCH  22  26
ENDBRANCH   3  17
TORSDOF 11
ENDMDL
MODEL 7
REMARK VINA RESULT:      -5.7      3.287      5.180
REMARK  11 active torsions:
REMARK  status: ('A' for Active; 'I' for Inactive)
REMARK    1  A    between atoms: C2_2  and  C3_3 
REMARK    2  A    between atoms: C3_3  and  C4_4 
REMARK    3  A    between atoms: C4_4  and  N1_5 
REMARK    4  A    between atoms: N1_5  and  C5_6 
REMARK    5  A    between atoms: N1_5  and  C15_22 
REMARK    6  A    between atoms: C5_6  and  C6_7 
REMARK    7  A    between atoms: C7_8  and  C8_9 
REMARK       I    between atoms: C8_9  and  N2_11 
REMARK    8  A    between atoms: N2_11  and  C9_12 
REMARK    9  A    between atoms: C12_16  and  O2_17 
REMARK   10  A    between atoms: C15_22  and  C16_23 
REMARK   11  A    between atoms: C16_23  and  C17_24 
ROOT
HETATM    1  C8  UNL     1      26.426   3.192  50.636  1.00  0.00     0.302 C 
HETATM    2  O1  UNL     1      26.826   2.138  50.035  1.00  0.00    -0.258 OA
HETATM    3  N2  UNL     1      26.010   3.147  51.991  1.00  0.00    -0.299 N 
HETATM    4  H12 UNL     1      25.711   4.057  52.400  1.00  0.00     0.171 HD
ENDROOT
BRANCH   1   5
HETATM    5  C7  UNL     1      26.445   4.371  49.798  1.00  0.00    -0.004 C 
HETATM    6  C6  UNL     1      26.467   5.365  49.116  1.00  0.00    -0.077 C 
BRANCH   6   7
HETATM    7  C5  UNL     1      26.491   6.613  48.293  1.00  0.00     0.212 C 
BRANCH   7   8
HETATM    8  N1  UNL     1      27.826   7.136  48.408  1.00  0.00    -0.403 N 
BRANCH   8   9
HETATM    9  C4  UNL     1      28.025   8.365  48.999  1.00  0.00     0.117 C 
BRANCH   9  10
HETATM   10  C3  UNL     1      28.402   9.549  48.160  1.00  0.00     0.019 C 
BRANCH  10  11
HETATM   11  C2  UNL     1      29.834   9.942  48.069  1.00  0.00    -0.003 C 
HETATM   12  C1  UNL     1      30.427   9.874  49.496  1.00  0.00     0.005 C 
ENDBRANCH  10  11
ENDBRANCH   9  10
ENDBRANCH   8   9
BRANCH   8  13
HETATM   13  C15 UNL     1      28.796   6.418  47.732  1.00  0.00     0.117 C 
BRANCH  13  14
HETATM   14  C16 UNL     1      30.000   5.948  48.450  1.00  0.00     0.019 C 
BRANCH  14  15
HETATM   15  C17 UNL     1      31.331   6.521  48.152  1.00  0.00    -0.003 C 
HETATM   16  C18 UNL     1      32.419   6.018  49.047  1.00  0.00     0.005 C 
ENDBRANCH  14  15
ENDBRANCH  13  14
ENDBRANCH   8  13
ENDBRANCH   7   8
ENDBRANCH   6   7
ENDBRANCH   1   5
BRANCH   3  17
HETATM   17  C9  UNL     1      26.008   1.903  52.725  1.00  0.00     0.148 C 
HETATM   18  C10 UNL     1      27.141   1.705  53.421  1.00  0.00     0.067 C 
HETATM   19  S1  UNL     1      27.644   0.232  53.054  1.00  0.00    -0.099 SA
HETATM   20  C11 UNL     1      28.930  -1.022  53.287  1.00  0.00     0.104 A 
HETATM   21  C13 UNL     1      26.228  -0.941  52.957  1.00  0.00     0.113 A 
HETATM   22  C12 UNL     1      28.152  -2.123  53.260  1.00  0.00     0.169 A 
HETATM   23  N3  UNL     1      26.766  -2.102  53.093  1.00  0.00    -0.216 NA
HETATM   24  C14 UNL     1      24.915  -0.257  52.744  1.00  0.00     0.158 C 
HETATM   25  N4  UNL     1      24.913   1.031  52.652  1.00  0.00    -0.239 NA
BRANCH  22  26
HETATM   26  O2  UNL     1      28.852  -3.342  53.418  1.00  0.00    -0.344 OA
HETATM   27  H14 UNL     1      28.891  -3.833  54.289  1.00  0.00     0.219 HD
ENDBRANCH  22  26
ENDBRANCH   3  17
TORSDOF 11
ENDMDL
MODEL 8
REMARK VINA RESULT:      -5.7      2.170      3.319
REMARK  11 active torsions:
REMARK  status: ('A' for Active; 'I' for Inactive)
REMARK    1  A    between atoms: C2_2  and  C3_3 
REMARK    2  A    between atoms: C3_3  and  C4_4 
REMARK    3  A    between atoms: C4_4  and  N1_5 
REMARK    4  A    between atoms: N1_5  and  C5_6 
REMARK    5  A    between atoms: N1_5  and  C15_22 
REMARK    6  A    between atoms: C5_6  and  C6_7 
REMARK    7  A    between atoms: C7_8  and  C8_9 
REMARK       I    between atoms: C8_9  and  N2_11 
REMARK    8  A    between atoms: N2_11  and  C9_12 
REMARK    9  A    between atoms: C12_16  and  O2_17 
REMARK   10  A    between atoms: C15_22  and  C16_23 
REMARK   11  A    between atoms: C16_23  and  C17_24 
ROOT
HETATM    1  C8  UNL     1      25.926   3.257  50.812  1.00  0.00     0.302 C 
HETATM    2  O1  UNL     1      26.836   2.512  50.313  1.00  0.00    -0.258 OA
HETATM    3  N2  UNL     1      25.374   2.980  52.088  1.00  0.00    -0.299 N 
HETATM    4  H12 UNL     1      24.647   3.648  52.419  1.00  0.00     0.171 HD
ENDROOT
BRANCH   1   5
HETATM    5  C7  UNL     1      25.550   4.356  49.951  1.00  0.00    -0.004 C 
HETATM    6  C6  UNL     1      25.248   5.264  49.217  1.00  0.00    -0.077 C 
BRANCH   6   7
HETATM    7  C5  UNL     1      24.893   6.383  48.291  1.00  0.00     0.212 C 
BRANCH   7   8
HETATM    8  N1  UNL     1      25.387   7.582  48.914  1.00  0.00    -0.403 N 
BRANCH   8   9
HETATM    9  C4  UNL     1      26.743   7.748  49.090  1.00  0.00     0.117 C 
BRANCH   9  10
HETATM   10  C3  UNL     1      27.601   8.185  47.941  1.00  0.00     0.019 C 
BRANCH  10  11
HETATM   11  C2  UNL     1      28.490   7.188  47.284  1.00  0.00    -0.003 C 
HETATM   12  C1  UNL     1      28.707   6.029  48.284  1.00  0.00     0.005 C 
ENDBRANCH  10  11
ENDBRANCH   9  10
ENDBRANCH   8   9
BRANCH   8  13
HETATM   13  C15 UNL     1      24.414   8.402  49.459  1.00  0.00     0.117 C 
BRANCH  13  14
HETATM   14  C16 UNL     1      23.676   7.969  50.665  1.00  0.00     0.019 C 
BRANCH  14  15
HETATM   15  C17 UNL     1      22.258   7.555  50.575  1.00  0.00    -0.003 C 
HETATM   16  C18 UNL     1      22.005   6.163  51.062  1.00  0.00     0.005 C 
ENDBRANCH  14  15
ENDBRANCH  13  14
ENDBRANCH   8  13
ENDBRANCH   7   8
ENDBRANCH   6   7
ENDBRANCH   1   5
BRANCH   3  17
HETATM   17  C9  UNL     1      25.811   1.833  52.851  1.00  0.00     0.148 C 
HETATM   18  C10 UNL     1      26.829   2.116  53.682  1.00  0.00     0.067 C 
HETATM   19  S1  UNL     1      27.947   1.002  53.419  1.00  0.00    -0.099 SA
HETATM   20  C11 UNL     1      29.604   0.404  53.837  1.00  0.00     0.104 A 
HETATM   21  C13 UNL     1      27.182  -0.656  53.188  1.00  0.00     0.113 A 
HETATM   22  C12 UNL     1      29.374  -0.922  53.750  1.00  0.00     0.169 A 
HETATM   23  N3  UNL     1      28.138  -1.484  53.419  1.00  0.00    -0.216 NA
HETATM   24  C14 UNL     1      25.738  -0.586  52.802  1.00  0.00     0.158 C 
HETATM   25  N4  UNL     1      25.203   0.582  52.674  1.00  0.00    -0.239 NA
BRANCH  22  26
HETATM   26  O2  UNL     1      30.498  -1.734  54.023  1.00  0.00    -0.344 OA
HETATM   27  H14 UNL     1      30.653  -2.613  53.572  1.00  0.00     0.219 HD
ENDBRANCH  22  26
ENDBRANCH   3  17
TORSDOF 11
ENDMDL
MODEL 9
REMARK VINA RESULT:      -5.6      1.487      2.762
REMARK  11 active torsions:
REMARK  status: ('A' for Active; 'I' for Inactive)
REMARK    1  A    between atoms: C2_2  and  C3_3 
REMARK    2  A    between atoms: C3_3  and  C4_4 
REMARK    3  A    between atoms: C4_4  and  N1_5 
REMARK    4  A    between atoms: N1_5  and  C5_6 
REMARK    5  A    between atoms: N1_5  and  C15_22 
REMARK    6  A    between atoms: C5_6  and  C6_7 
REMARK    7  A    between atoms: C7_8  and  C8_9 
REMARK       I    between atoms: C8_9  and  N2_11 
REMARK    8  A    between atoms: N2_11  and  C9_12 
REMARK    9  A    between atoms: C12_16  and  O2_17 
REMARK   10  A    between atoms: C15_22  and  C16_23 
REMARK   11  A    between atoms: C16_23  and  C17_24 
ROOT
HETATM    1  C8  UNL     1      26.441   4.089  49.834  1.00  0.00     0.302 C 
HETATM    2  O1  UNL     1      27.111   3.286  49.100  1.00  0.00    -0.258 OA
HETATM    3  N2  UNL     1      26.080   3.737  51.160  1.00  0.00    -0.299 N 
HETATM    4  H12 UNL     1      25.546   4.458  51.688  1.00  0.00     0.171 HD
ENDROOT
BRANCH   1   5
HETATM    5  C7  UNL     1      26.114   5.333  49.173  1.00  0.00    -0.004 C 
HETATM    6  C6  UNL     1      25.853   6.364  48.605  1.00  0.00    -0.077 C 
BRANCH   6   7
HETATM    7  C5  UNL     1      25.550   7.639  47.886  1.00  0.00     0.212 C 
BRANCH   7   8
HETATM    8  N1  UNL     1      25.002   8.529  48.874  1.00  0.00    -0.403 N 
BRANCH   8   9
HETATM    9  C4  UNL     1      25.850   9.247  49.688  1.00  0.00     0.117 C 
BRANCH   9  10
HETATM   10  C3  UNL     1      27.111   9.833  49.128  1.00  0.00     0.019 C 
BRANCH  10  11
HETATM   11  C2  UNL     1      28.418   9.420  49.707  1.00  0.00    -0.003 C 
HETATM   12  C1  UNL     1      29.129   8.529  48.662  1.00  0.00     0.005 C 
ENDBRANCH  10  11
ENDBRANCH   9  10
ENDBRANCH   8   9
BRANCH   8  13
HETATM   13  C15 UNL     1      23.631   8.443  49.042  1.00  0.00     0.117 C 
BRANCH  13  14
HETATM   14  C16 UNL     1      23.074   7.971  50.327  1.00  0.00     0.019 C 
BRANCH  14  15
HETATM   15  C17 UNL     1      22.105   6.854  50.366  1.00  0.00    -0.003 C 
HETATM   16  C18 UNL     1      22.147   5.977  49.154  1.00  0.00     0.005 C 
ENDBRANCH  14  15
ENDBRANCH  13  14
ENDBRANCH   8  13
ENDBRANCH   7   8
ENDBRANCH   6   7
ENDBRANCH   1   5
BRANCH   3  17
HETATM   17  C9  UNL     1      26.442   2.451  51.710  1.00  0.00     0.148 C 
HETATM   18  C10 UNL     1      25.464   1.537  51.590  1.00  0.00     0.067 C 
HETATM   19  S1  UNL     1      25.275   0.887  53.039  1.00  0.00    -0.099 SA
HETATM   20  C11 UNL     1      24.341  -0.286  54.053  1.00  0.00     0.104 A 
HETATM   21  C13 UNL     1      26.903   0.612  53.854  1.00  0.00     0.113 A 
HETATM   22  C12 UNL     1      25.342  -0.717  54.847  1.00  0.00     0.169 A 
HETATM   23  N3  UNL     1      26.662  -0.268  54.759  1.00  0.00    -0.216 NA
HETATM   24  C14 UNL     1      27.996   1.455  53.277  1.00  0.00     0.158 C 
HETATM   25  N4  UNL     1      27.694   2.256  52.310  1.00  0.00    -0.239 NA
BRANCH  22  26
HETATM   26  O2  UNL     1      24.960  -1.684  55.806  1.00  0.00    -0.344 OA
HETATM   27  H14 UNL     1      24.953  -2.665  55.611  1.00  0.00     0.219 HD
ENDBRANCH  22  26
ENDBRANCH   3  17
TORSDOF 11
ENDMDL
