MODEL 1
REMARK VINA RESULT:      -8.9      0.000      0.000
REMARK  6 active torsions:
REMARK  status: ('A' for Active; 'I' for Inactive)
REMARK    1  A    between atoms: N1_1  and  C1_2 
REMARK    2  A    between atoms: C3_4  and  C4_5 
REMARK    3  A    between atoms: C4_5  and  C5_6 
REMARK    4  A    between atoms: C13_19  and  N5_20 
REMARK    5  A    between atoms: N5_20  and  C14_21 
REMARK    6  A    between atoms: C14_21  and  C15_22 
ROOT
HETATM    1  C1  UNL     1      25.754   1.839  52.480  1.00  0.00     0.283 A 
HETATM    2  C2  UNL     1      24.744   0.950  51.904  1.00  0.00     0.051 C 
HETATM    3  C3  UNL     1      24.173   0.424  53.011  1.00  0.00     0.014 C 
HETATM    4  N2  UNL     1      24.911   0.607  54.239  1.00  0.00    -0.345 N 
HETATM    5  C11 UNL     1      26.096   1.310  53.811  1.00  0.00     0.152 A 
HETATM    6  N3  UNL     1      27.291   1.376  54.358  1.00  0.00    -0.226 NA
HETATM    7  C12 UNL     1      28.338   1.986  53.570  1.00  0.00     0.231 A 
HETATM    8  N4  UNL     1      28.128   2.422  52.390  1.00  0.00    -0.244 NA
HETATM    9  C13 UNL     1      26.848   2.365  51.672  1.00  0.00     0.393 A 
HETATM   10  H9  UNL     1      24.799   0.377  55.224  1.00  0.00     0.167 HD
ENDROOT
BRANCH   9  11
HETATM   11  N5  UNL     1      26.723   3.681  51.086  1.00  0.00     0.116 N 
HETATM   12  H12 UNL     1      25.791   4.042  51.442  1.00  0.00     0.319 HD
BRANCH  11  13
HETATM   13  C14 UNL     1      26.623   3.601  49.677  1.00  0.00     0.312 C 
BRANCH  13  14
HETATM   14  C15 UNL     1      26.962   4.878  48.982  1.00  0.00    -0.013 A 
HETATM   15  C16 UNL     1      28.273   5.135  48.553  1.00  0.00     0.010 A 
HETATM   16  C17 UNL     1      28.714   6.251  47.906  1.00  0.00     0.001 A 
HETATM   17  C18 UNL     1      27.784   7.234  47.642  1.00  0.00     0.001 A 
HETATM   18  C19 UNL     1      26.461   7.057  48.037  1.00  0.00     0.019 A 
HETATM   19  C20 UNL     1      26.126   5.906  48.675  1.00  0.00     0.018 A 
HETATM   20 BR1  UNL     1      24.299   5.746  49.186  1.00  0.00    -0.051 Br
ENDBRANCH  13  14
ENDBRANCH  11  13
ENDBRANCH   9  11
BRANCH   1  21
HETATM   21  N1  UNL     1      24.886   3.065  52.790  1.00  0.00     0.103 N 
HETATM   22  H1  UNL     1      23.922   2.692  52.545  1.00  0.00     0.315 HD
HETATM   23  H2  UNL     1      25.180   3.729  52.039  1.00  0.00     0.315 HD
ENDBRANCH   1  21
BRANCH   3  24
HETATM   24  C4  UNL     1      23.042  -0.535  52.919  1.00  0.00     0.097 C 
BRANCH  24  25
HETATM   25  C5  UNL     1      21.759   0.051  52.498  1.00  0.00    -0.031 A 
HETATM   26  C6  UNL     1      21.661   0.150  51.100  1.00  0.00     0.011 A 
HETATM   27  C7  UNL     1      20.595   0.688  50.444  1.00  0.00     0.024 A 
HETATM   28  C8  UNL     1      19.524   1.178  51.155  1.00  0.00     0.035 A 
HETATM   29 CL1  UNL     1      18.080   1.900  50.490  1.00  0.00    -0.084 Cl
HETATM   30  C9  UNL     1      19.575   1.102  52.520  1.00  0.00     0.048 A 
HETATM   31  C10 UNL     1      20.666   0.553  53.153  1.00  0.00     0.042 A 
HETATM   32 CL2  UNL     1      20.739   0.400  54.891  1.00  0.00    -0.084 Cl
ENDBRANCH  24  25
ENDBRANCH   3  24
TORSDOF 6
ENDMDL
MODEL 2
REMARK VINA RESULT:      -8.9      1.357      2.028
REMARK  6 active torsions:
REMARK  status: ('A' for Active; 'I' for Inactive)
REMARK    1  A    between atoms: N1_1  and  C1_2 
REMARK    2  A    between atoms: C3_4  and  C4_5 
REMARK    3  A    between atoms: C4_5  and  C5_6 
REMARK    4  A    between atoms: C13_19  and  N5_20 
REMARK    5  A    between atoms: N5_20  and  C14_21 
REMARK    6  A    between atoms: C14_21  and  C15_22 
ROOT
HETATM    1  C1  UNL     1      25.832   1.747  52.582  1.00  0.00     0.283 A 
HETATM    2  C2  UNL     1      24.810   0.870  52.009  1.00  0.00     0.051 C 
HETATM    3  C3  UNL     1      24.239   0.350  53.118  1.00  0.00     0.014 C 
HETATM    4  N2  UNL     1      24.983   0.524  54.343  1.00  0.00    -0.345 N 
HETATM    5  C11 UNL     1      26.174   1.215  53.910  1.00  0.00     0.152 A 
HETATM    6  N3  UNL     1      27.372   1.268  54.453  1.00  0.00    -0.226 NA
HETATM    7  C12 UNL     1      28.422   1.868  53.660  1.00  0.00     0.231 A 
HETATM    8  N4  UNL     1      28.212   2.306  52.482  1.00  0.00    -0.244 NA
HETATM    9  C13 UNL     1      26.928   2.263  51.769  1.00  0.00     0.393 A 
HETATM   10  H9  UNL     1      24.873   0.295  55.329  1.00  0.00     0.167 HD
ENDROOT
BRANCH   9  11
HETATM   11  N5  UNL     1      26.814   3.580  51.183  1.00  0.00     0.116 N 
HETATM   12  H12 UNL     1      25.924   3.980  51.602  1.00  0.00     0.319 HD
BRANCH  11  13
HETATM   13  C14 UNL     1      26.613   3.499  49.785  1.00  0.00     0.312 C 
BRANCH  13  14
HETATM   14  C15 UNL     1      25.295   4.040  49.340  1.00  0.00    -0.013 A 
HETATM   15  C16 UNL     1      24.153   3.225  49.327  1.00  0.00     0.010 A 
HETATM   16  C17 UNL     1      22.895   3.593  48.950  1.00  0.00     0.001 A 
HETATM   17  C18 UNL     1      22.718   4.897  48.539  1.00  0.00     0.001 A 
HETATM   18  C19 UNL     1      23.803   5.769  48.521  1.00  0.00     0.019 A 
HETATM   19  C20 UNL     1      25.013   5.301  48.917  1.00  0.00     0.018 A 
HETATM   20 BR1  UNL     1      26.444   6.556  48.857  1.00  0.00    -0.051 Br
ENDBRANCH  13  14
ENDBRANCH  11  13
ENDBRANCH   9  11
BRANCH   1  21
HETATM   21  N1  UNL     1      24.978   2.983  52.895  1.00  0.00     0.103 N 
HETATM   22  H1  UNL     1      24.978   3.468  51.950  1.00  0.00     0.315 HD
HETATM   23  H2  UNL     1      25.605   3.518  53.537  1.00  0.00     0.315 HD
ENDBRANCH   1  21
BRANCH   3  24
HETATM   24  C4  UNL     1      23.097  -0.598  53.031  1.00  0.00     0.097 C 
BRANCH  24  25
HETATM   25  C5  UNL     1      21.826  -0.004  52.586  1.00  0.00    -0.031 A 
HETATM   26  C6  UNL     1      21.757   0.100  51.186  1.00  0.00     0.011 A 
HETATM   27  C7  UNL     1      20.707   0.646  50.511  1.00  0.00     0.024 A 
HETATM   28  C8  UNL     1      19.624   1.138  51.202  1.00  0.00     0.035 A 
HETATM   29 CL1  UNL     1      18.197   1.869  50.510  1.00  0.00    -0.084 Cl
HETATM   30  C9  UNL     1      19.647   1.057  52.567  1.00  0.00     0.048 A 
HETATM   31  C10 UNL     1      20.722   0.500  53.220  1.00  0.00     0.042 A 
HETATM   32 CL2  UNL     1      20.759   0.341  54.959  1.00  0.00    -0.084 Cl
ENDBRANCH  24  25
ENDBRANCH   3  24
TORSDOF 6
ENDMDL
MODEL 3
REMARK VINA RESULT:      -8.8      3.180      6.584
REMARK  6 active torsions:
REMARK  status: ('A' for Active; 'I' for Inactive)
REMARK    1  A    between atoms: N1_1  and  C1_2 
REMARK    2  A    between atoms: C3_4  and  C4_5 
REMARK    3  A    between atoms: C4_5  and  C5_6 
REMARK    4  A    between atoms: C13_19  and  N5_20 
REMARK    5  A    between atoms: N5_20  and  C14_21 
REMARK    6  A    between atoms: C14_21  and  C15_22 
ROOT
HETATM    1  C1  UNL     1      24.221   4.387  50.455  1.00  0.00     0.283 A 
HETATM    2  C2  UNL     1      24.563   2.978  50.658  1.00  0.00     0.051 C 
HETATM    3  C3  UNL     1      25.909   3.036  50.781  1.00  0.00     0.014 C 
HETATM    4  N2  UNL     1      26.522   4.271  50.349  1.00  0.00    -0.345 N 
HETATM    5  C11 UNL     1      25.401   5.047  49.876  1.00  0.00     0.152 A 
HETATM    6  N3  UNL     1      25.357   6.033  49.006  1.00  0.00    -0.226 NA
HETATM    7  C12 UNL     1      24.046   6.465  48.575  1.00  0.00     0.231 A 
HETATM    8  N4  UNL     1      22.980   5.908  48.995  1.00  0.00    -0.244 NA
HETATM    9  C13 UNL     1      22.916   4.780  49.934  1.00  0.00     0.393 A 
HETATM   10  H9  UNL     1      27.457   4.670  50.305  1.00  0.00     0.167 HD
ENDROOT
BRANCH   9  11
HETATM   11  N5  UNL     1      21.871   5.159  50.859  1.00  0.00     0.116 N 
HETATM   12  H12 UNL     1      22.288   4.976  51.818  1.00  0.00     0.319 HD
BRANCH  11  13
HETATM   13  C14 UNL     1      20.746   4.312  50.729  1.00  0.00     0.312 C 
BRANCH  13  14
HETATM   14  C15 UNL     1      21.025   2.889  51.085  1.00  0.00    -0.013 A 
HETATM   15  C16 UNL     1      21.294   2.522  52.412  1.00  0.00     0.010 A 
HETATM   16  C17 UNL     1      21.559   1.265  52.871  1.00  0.00     0.001 A 
HETATM   17  C18 UNL     1      21.565   0.245  51.944  1.00  0.00     0.001 A 
HETATM   18  C19 UNL     1      21.310   0.528  50.605  1.00  0.00     0.019 A 
HETATM   19  C20 UNL     1      21.057   1.814  50.253  1.00  0.00     0.018 A 
HETATM   20 BR1  UNL     1      20.723   2.114  48.403  1.00  0.00    -0.051 Br
ENDBRANCH  13  14
ENDBRANCH  11  13
ENDBRANCH   9  11
BRANCH   1  21
HETATM   21  N1  UNL     1      24.210   4.872  51.910  1.00  0.00     0.103 N 
HETATM   22  H1  UNL     1      25.185   5.289  51.986  1.00  0.00     0.315 HD
HETATM   23  H2  UNL     1      24.200   3.970  52.436  1.00  0.00     0.315 HD
ENDBRANCH   1  21
BRANCH   3  24
HETATM   24  C4  UNL     1      26.717   1.816  51.041  1.00  0.00     0.097 C 
BRANCH  24  25
HETATM   25  C5  UNL     1      26.491   1.185  52.352  1.00  0.00    -0.031 A 
HETATM   26  C6  UNL     1      25.450   0.242  52.307  1.00  0.00     0.011 A 
HETATM   27  C7  UNL     1      25.009  -0.462  53.387  1.00  0.00     0.024 A 
HETATM   28  C8  UNL     1      25.592  -0.270  54.619  1.00  0.00     0.035 A 
HETATM   29 CL1  UNL     1      25.161  -1.077  56.106  1.00  0.00    -0.084 Cl
HETATM   30  C9  UNL     1      26.611   0.638  54.710  1.00  0.00     0.048 A 
HETATM   31  C10 UNL     1      27.033   1.333  53.600  1.00  0.00     0.042 A 
HETATM   32 CL2  UNL     1      28.361   2.465  53.676  1.00  0.00    -0.084 Cl
ENDBRANCH  24  25
ENDBRANCH   3  24
TORSDOF 6
ENDMDL
MODEL 4
REMARK VINA RESULT:      -8.8      3.143      5.317
REMARK  6 active torsions:
REMARK  status: ('A' for Active; 'I' for Inactive)
REMARK    1  A    between atoms: N1_1  and  C1_2 
REMARK    2  A    between atoms: C3_4  and  C4_5 
REMARK    3  A    between atoms: C4_5  and  C5_6 
REMARK    4  A    between atoms: C13_19  and  N5_20 
REMARK    5  A    between atoms: N5_20  and  C14_21 
REMARK    6  A    between atoms: C14_21  and  C15_22 
ROOT
HETATM    1  C1  UNL     1      22.267   2.193  51.911  1.00  0.00     0.283 A 
HETATM    2  C2  UNL     1      23.317   1.584  52.730  1.00  0.00     0.051 C 
HETATM    3  C3  UNL     1      22.930   0.289  52.758  1.00  0.00     0.014 C 
HETATM    4  N2  UNL     1      21.572   0.035  52.336  1.00  0.00    -0.345 N 
HETATM    5  C11 UNL     1      21.065   1.354  52.044  1.00  0.00     0.152 A 
HETATM    6  N3  UNL     1      19.830   1.808  52.033  1.00  0.00    -0.226 NA
HETATM    7  C12 UNL     1      19.662   3.239  51.915  1.00  0.00     0.231 A 
HETATM    8  N4  UNL     1      20.657   4.033  51.846  1.00  0.00    -0.244 NA
HETATM    9  C13 UNL     1      22.071   3.638  51.886  1.00  0.00     0.393 A 
HETATM   10  H9  UNL     1      20.961  -0.770  52.215  1.00  0.00     0.167 HD
ENDROOT
BRANCH   9  11
HETATM   11  N5  UNL     1      22.677   4.414  50.827  1.00  0.00     0.116 N 
HETATM   12  H12 UNL     1      23.074   3.689  50.161  1.00  0.00     0.319 HD
BRANCH  11  13
HETATM   13  C14 UNL     1      23.769   5.171  51.312  1.00  0.00     0.312 C 
BRANCH  13  14
HETATM   14  C15 UNL     1      24.965   5.131  50.421  1.00  0.00    -0.013 A 
HETATM   15  C16 UNL     1      25.667   3.933  50.217  1.00  0.00     0.010 A 
HETATM   16  C17 UNL     1      26.766   3.758  49.428  1.00  0.00     0.001 A 
HETATM   17  C18 UNL     1      27.244   4.866  48.761  1.00  0.00     0.001 A 
HETATM   18  C19 UNL     1      26.605   6.093  48.912  1.00  0.00     0.019 A 
HETATM   19  C20 UNL     1      25.517   6.158  49.721  1.00  0.00     0.018 A 
HETATM   20 BR1  UNL     1      24.705   7.873  49.878  1.00  0.00    -0.051 Br
ENDBRANCH  13  14
ENDBRANCH  11  13
ENDBRANCH   9  11
BRANCH   1  21
HETATM   21  N1  UNL     1      22.792   1.856  50.510  1.00  0.00     0.103 N 
HETATM   22  H1  UNL     1      22.486   2.719  49.971  1.00  0.00     0.315 HD
HETATM   23  H2  UNL     1      22.171   1.063  50.235  1.00  0.00     0.315 HD
ENDBRANCH   1  21
BRANCH   3  24
HETATM   24  C4  UNL     1      23.730  -0.744  53.465  1.00  0.00     0.097 C 
BRANCH  24  25
HETATM   25  C5  UNL     1      25.139  -0.390  53.701  1.00  0.00    -0.031 A 
HETATM   26  C6  UNL     1      25.796  -0.034  52.510  1.00  0.00     0.011 A 
HETATM   27  C7  UNL     1      27.114   0.303  52.435  1.00  0.00     0.024 A 
HETATM   28  C8  UNL     1      27.889   0.310  53.572  1.00  0.00     0.035 A 
HETATM   29 CL1  UNL     1      29.586   0.712  53.667  1.00  0.00    -0.084 Cl
HETATM   30  C9  UNL     1      27.292  -0.029  54.755  1.00  0.00     0.048 A 
HETATM   31  C10 UNL     1      25.959  -0.365  54.797  1.00  0.00     0.042 A 
HETATM   32 CL2  UNL     1      25.158  -0.758  56.299  1.00  0.00    -0.084 Cl
ENDBRANCH  24  25
ENDBRANCH   3  24
TORSDOF 6
ENDMDL
MODEL 5
REMARK VINA RESULT:      -8.6      1.639      2.049
REMARK  6 active torsions:
REMARK  status: ('A' for Active; 'I' for Inactive)
REMARK    1  A    between atoms: N1_1  and  C1_2 
REMARK    2  A    between atoms: C3_4  and  C4_5 
REMARK    3  A    between atoms: C4_5  and  C5_6 
REMARK    4  A    between atoms: C13_19  and  N5_20 
REMARK    5  A    between atoms: N5_20  and  C14_21 
REMARK    6  A    between atoms: C14_21  and  C15_22 
ROOT
HETATM    1  C1  UNL     1      25.120   2.285  51.901  1.00  0.00     0.283 A 
HETATM    2  C2  UNL     1      24.024   1.688  51.136  1.00  0.00     0.051 C 
HETATM    3  C3  UNL     1      23.171   1.318  52.118  1.00  0.00     0.014 C 
HETATM    4  N2  UNL     1      23.727   1.298  53.452  1.00  0.00    -0.345 N 
HETATM    5  C11 UNL     1      25.103   1.677  53.241  1.00  0.00     0.152 A 
HETATM    6  N3  UNL     1      26.174   1.432  53.966  1.00  0.00    -0.226 NA
HETATM    7  C12 UNL     1      27.452   1.760  53.375  1.00  0.00     0.231 A 
HETATM    8  N4  UNL     1      27.548   2.243  52.200  1.00  0.00    -0.244 NA
HETATM    9  C13 UNL     1      26.425   2.520  51.294  1.00  0.00     0.393 A 
HETATM   10  H9  UNL     1      23.406   1.097  54.397  1.00  0.00     0.167 HD
ENDROOT
BRANCH   9  11
HETATM   11  N5  UNL     1      26.729   3.828  50.757  1.00  0.00     0.116 N 
HETATM   12  H12 UNL     1      25.905   4.430  51.046  1.00  0.00     0.319 HD
BRANCH  11  13
HETATM   13  C14 UNL     1      26.749   3.805  49.343  1.00  0.00     0.312 C 
BRANCH  13  14
HETATM   14  C15 UNL     1      27.187   5.094  48.732  1.00  0.00    -0.013 A 
HETATM   15  C16 UNL     1      28.526   5.295  48.363  1.00  0.00     0.010 A 
HETATM   16  C17 UNL     1      29.055   6.416  47.794  1.00  0.00     0.001 A 
HETATM   17  C18 UNL     1      28.193   7.464  47.553  1.00  0.00     0.001 A 
HETATM   18  C19 UNL     1      26.848   7.345  47.891  1.00  0.00     0.019 A 
HETATM   19  C20 UNL     1      26.424   6.185  48.453  1.00  0.00     0.018 A 
HETATM   20 BR1  UNL     1      24.573   6.106  48.891  1.00  0.00    -0.051 Br
ENDBRANCH  13  14
ENDBRANCH  11  13
ENDBRANCH   9  11
BRANCH   1  21
HETATM   21  N1  UNL     1      24.550   3.690  52.133  1.00  0.00     0.103 N 
HETATM   22  H1  UNL     1      24.117   3.571  53.095  1.00  0.00     0.315 HD
HETATM   23  H2  UNL     1      23.779   3.726  51.430  1.00  0.00     0.315 HD
ENDBRANCH   1  21
BRANCH   3  24
HETATM   24  C4  UNL     1      21.865   0.680  51.811  1.00  0.00     0.097 C 
BRANCH  24  25
HETATM   25  C5  UNL     1      20.876   1.560  51.167  1.00  0.00    -0.031 A 
HETATM   26  C6  UNL     1      20.136   2.295  52.109  1.00  0.00     0.011 A 
HETATM   27  C7  UNL     1      19.132   3.158  51.788  1.00  0.00     0.024 A 
HETATM   28  C8  UNL     1      18.788   3.355  50.470  1.00  0.00     0.035 A 
HETATM   29 CL1  UNL     1      17.535   4.414  49.874  1.00  0.00    -0.084 Cl
HETATM   30  C9  UNL     1      19.482   2.661  49.518  1.00  0.00     0.048 A 
HETATM   31  C10 UNL     1      20.491   1.796  49.875  1.00  0.00     0.042 A 
HETATM   32 CL2  UNL     1      21.426   0.932  48.679  1.00  0.00    -0.084 Cl
ENDBRANCH  24  25
ENDBRANCH   3  24
TORSDOF 6
ENDMDL
MODEL 6
REMARK VINA RESULT:      -8.6      4.535      9.186
REMARK  6 active torsions:
REMARK  status: ('A' for Active; 'I' for Inactive)
REMARK    1  A    between atoms: N1_1  and  C1_2 
REMARK    2  A    between atoms: C3_4  and  C4_5 
REMARK    3  A    between atoms: C4_5  and  C5_6 
REMARK    4  A    between atoms: C13_19  and  N5_20 
REMARK    5  A    between atoms: N5_20  and  C14_21 
REMARK    6  A    between atoms: C14_21  and  C15_22 
ROOT
HETATM    1  C1  UNL     1      25.624   5.312  49.284  1.00  0.00     0.283 A 
HETATM    2  C2  UNL     1      26.795   5.890  48.625  1.00  0.00     0.051 C 
HETATM    3  C3  UNL     1      26.274   7.003  48.060  1.00  0.00     0.014 C 
HETATM    4  N2  UNL     1      24.832   7.049  47.990  1.00  0.00    -0.345 N 
HETATM    5  C11 UNL     1      24.433   5.784  48.560  1.00  0.00     0.152 A 
HETATM    6  N3  UNL     1      23.334   5.083  48.388  1.00  0.00    -0.226 NA
HETATM    7  C12 UNL     1      23.323   3.742  48.930  1.00  0.00     0.231 A 
HETATM    8  N4  UNL     1      24.334   3.247  49.526  1.00  0.00    -0.244 NA
HETATM    9  C13 UNL     1      25.619   3.926  49.739  1.00  0.00     0.393 A 
HETATM   10  H9  UNL     1      24.116   7.695  47.664  1.00  0.00     0.167 HD
ENDROOT
BRANCH   9  11
HETATM   11  N5  UNL     1      25.940   3.634  51.118  1.00  0.00     0.116 N 
HETATM   12  H12 UNL     1      26.505   4.472  51.442  1.00  0.00     0.319 HD
BRANCH  11  13
HETATM   13  C14 UNL     1      26.785   2.504  51.216  1.00  0.00     0.312 C 
BRANCH  13  14
HETATM   14  C15 UNL     1      26.410   1.572  52.320  1.00  0.00    -0.013 A 
HETATM   15  C16 UNL     1      25.233   0.812  52.247  1.00  0.00     0.010 A 
HETATM   16  C17 UNL     1      24.778  -0.076  53.178  1.00  0.00     0.001 A 
HETATM   17  C18 UNL     1      25.547  -0.249  54.309  1.00  0.00     0.001 A 
HETATM   18  C19 UNL     1      26.729   0.471  54.459  1.00  0.00     0.019 A 
HETATM   19  C20 UNL     1      27.091   1.328  53.471  1.00  0.00     0.018 A 
HETATM   20 BR1  UNL     1      28.717   2.277  53.756  1.00  0.00    -0.051 Br
ENDBRANCH  13  14
ENDBRANCH  11  13
ENDBRANCH   9  11
BRANCH   1  21
HETATM   21  N1  UNL     1      25.611   6.136  50.578  1.00  0.00     0.103 N 
HETATM   22  H1  UNL     1      26.324   5.604  51.159  1.00  0.00     0.315 HD
HETATM   23  H2  UNL     1      24.661   5.925  50.956  1.00  0.00     0.315 HD
ENDBRANCH   1  21
BRANCH   3  24
HETATM   24  C4  UNL     1      27.120   7.952  47.292  1.00  0.00     0.097 C 
BRANCH  24  25
HETATM   25  C5  UNL     1      28.505   8.085  47.774  1.00  0.00    -0.031 A 
HETATM   26  C6  UNL     1      29.427   7.500  46.889  1.00  0.00     0.011 A 
HETATM   27  C7  UNL     1      30.770   7.449  47.108  1.00  0.00     0.024 A 
HETATM   28  C8  UNL     1      31.303   7.994  48.254  1.00  0.00     0.035 A 
HETATM   29 CL1  UNL     1      32.990   8.021  48.702  1.00  0.00    -0.084 Cl
HETATM   30  C9  UNL     1      30.442   8.575  49.145  1.00  0.00     0.048 A 
HETATM   31  C10 UNL     1      29.090   8.610  48.895  1.00  0.00     0.042 A 
HETATM   32 CL2  UNL     1      27.974   9.386  49.990  1.00  0.00    -0.084 Cl
ENDBRANCH  24  25
ENDBRANCH   3  24
TORSDOF 6
ENDMDL
MODEL 7
REMARK VINA RESULT:      -8.5      3.887      5.862
REMARK  6 active torsions:
REMARK  status: ('A' for Active; 'I' for Inactive)
REMARK    1  A    between atoms: N1_1  and  C1_2 
REMARK    2  A    between atoms: C3_4  and  C4_5 
REMARK    3  A    between atoms: C4_5  and  C5_6 
REMARK    4  A    between atoms: C13_19  and  N5_20 
REMARK    5  A    between atoms: N5_20  and  C14_21 
REMARK    6  A    between atoms: C14_21  and  C15_22 
ROOT
HETATM    1  C1  UNL     1      22.722   0.231  53.069  1.00  0.00     0.283 A 
HETATM    2  C2  UNL     1      22.297   0.255  51.669  1.00  0.00     0.051 C 
HETATM    3  C3  UNL     1      20.976   0.519  51.786  1.00  0.00     0.014 C 
HETATM    4  N2  UNL     1      20.419   0.339  53.106  1.00  0.00    -0.345 N 
HETATM    5  C11 UNL     1      21.546  -0.122  53.880  1.00  0.00     0.152 A 
HETATM    6  N3  UNL     1      21.585  -0.835  54.985  1.00  0.00    -0.226 NA
HETATM    7  C12 UNL     1      22.881  -1.325  55.400  1.00  0.00     0.231 A 
HETATM    8  N4  UNL     1      23.937  -1.102  54.722  1.00  0.00    -0.244 NA
HETATM    9  C13 UNL     1      24.000  -0.353  53.461  1.00  0.00     0.393 A 
HETATM   10  H9  UNL     1      19.515   0.449  53.562  1.00  0.00     0.167 HD
ENDROOT
BRANCH   9  11
HETATM   11  N5  UNL     1      25.149   0.510  53.628  1.00  0.00     0.116 N 
HETATM   12  H12 UNL     1      24.749   1.492  53.598  1.00  0.00     0.319 HD
BRANCH  11  13
HETATM   13  C14 UNL     1      26.038   0.391  52.534  1.00  0.00     0.312 C 
BRANCH  13  14
HETATM   14  C15 UNL     1      27.333  -0.261  52.886  1.00  0.00    -0.013 A 
HETATM   15  C16 UNL     1      27.491  -1.650  52.771  1.00  0.00     0.010 A 
HETATM   16  C17 UNL     1      28.616  -2.368  53.052  1.00  0.00     0.001 A 
HETATM   17  C18 UNL     1      29.716  -1.664  53.497  1.00  0.00     0.001 A 
HETATM   18  C19 UNL     1      29.640  -0.282  53.641  1.00  0.00     0.019 A 
HETATM   19  C20 UNL     1      28.471   0.336  53.332  1.00  0.00     0.018 A 
HETATM   20 BR1  UNL     1      28.449   2.225  53.562  1.00  0.00    -0.051 Br
ENDBRANCH  13  14
ENDBRANCH  11  13
ENDBRANCH   9  11
BRANCH   1  21
HETATM   21  N1  UNL     1      22.898   1.734  53.321  1.00  0.00     0.103 N 
HETATM   22  H1  UNL     1      22.096   2.127  52.745  1.00  0.00     0.315 HD
HETATM   23  H2  UNL     1      23.791   1.932  52.815  1.00  0.00     0.315 HD
ENDBRANCH   1  21
BRANCH   3  24
HETATM   24  C4  UNL     1      20.107   0.673  50.590  1.00  0.00     0.097 C 
BRANCH  24  25
HETATM   25  C5  UNL     1      20.490   1.760  49.675  1.00  0.00    -0.031 A 
HETATM   26  C6  UNL     1      21.327   1.306  48.642  1.00  0.00     0.011 A 
HETATM   27  C7  UNL     1      21.859   2.109  47.679  1.00  0.00     0.024 A 
HETATM   28  C8  UNL     1      21.584   3.457  47.677  1.00  0.00     0.035 A 
HETATM   29 CL1  UNL     1      22.173   4.634  46.529  1.00  0.00    -0.084 Cl
HETATM   30  C9  UNL     1      20.772   3.945  48.664  1.00  0.00     0.048 A 
HETATM   31  C10 UNL     1      20.252   3.108  49.623  1.00  0.00     0.042 A 
HETATM   32 CL2  UNL     1      19.175   3.693  50.867  1.00  0.00    -0.084 Cl
ENDBRANCH  24  25
ENDBRANCH   3  24
TORSDOF 6
ENDMDL
MODEL 8
REMARK VINA RESULT:      -8.5      4.590      9.007
REMARK  6 active torsions:
REMARK  status: ('A' for Active; 'I' for Inactive)
REMARK    1  A    between atoms: N1_1  and  C1_2 
REMARK    2  A    between atoms: C3_4  and  C4_5 
REMARK    3  A    between atoms: C4_5  and  C5_6 
REMARK    4  A    between atoms: C13_19  and  N5_20 
REMARK    5  A    between atoms: N5_20  and  C14_21 
REMARK    6  A    between atoms: C14_21  and  C15_22 
ROOT
HETATM    1  C1  UNL     1      25.328   5.271  49.713  1.00  0.00     0.283 A 
HETATM    2  C2  UNL     1      26.039   5.607  48.479  1.00  0.00     0.051 C 
HETATM    3  C3  UNL     1      26.776   6.673  48.866  1.00  0.00     0.014 C 
HETATM    4  N2  UNL     1      26.383   7.282  50.115  1.00  0.00    -0.345 N 
HETATM    5  C11 UNL     1      25.240   6.499  50.519  1.00  0.00     0.152 A 
HETATM    6  N3  UNL     1      24.230   6.810  51.302  1.00  0.00    -0.226 NA
HETATM    7  C12 UNL     1      23.122   5.882  51.339  1.00  0.00     0.231 A 
HETATM    8  N4  UNL     1      23.105   4.822  50.631  1.00  0.00    -0.244 NA
HETATM    9  C13 UNL     1      24.158   4.399  49.698  1.00  0.00     0.393 A 
HETATM   10  H9  UNL     1      26.692   8.051  50.706  1.00  0.00     0.167 HD
ENDROOT
BRANCH   9  11
HETATM   11  N5  UNL     1      24.324   2.991  49.979  1.00  0.00     0.116 N 
HETATM   12  H12 UNL     1      24.027   2.506  49.083  1.00  0.00     0.319 HD
BRANCH  11  13
HETATM   13  C14 UNL     1      23.433   2.567  50.993  1.00  0.00     0.312 C 
BRANCH  13  14
HETATM   14  C15 UNL     1      23.979   1.468  51.844  1.00  0.00    -0.013 A 
HETATM   15  C16 UNL     1      25.355   1.194  51.866  1.00  0.00     0.010 A 
HETATM   16  C17 UNL     1      25.981   0.229  52.598  1.00  0.00     0.001 A 
HETATM   17  C18 UNL     1      25.189  -0.563  53.402  1.00  0.00     0.001 A 
HETATM   18  C19 UNL     1      23.813  -0.356  53.436  1.00  0.00     0.019 A 
HETATM   19  C20 UNL     1      23.291   0.633  52.668  1.00  0.00     0.018 A 
HETATM   20 BR1  UNL     1      21.401   0.846  52.767  1.00  0.00    -0.051 Br
ENDBRANCH  13  14
ENDBRANCH  11  13
ENDBRANCH   9  11
BRANCH   1  21
HETATM   21  N1  UNL     1      26.407   4.446  50.427  1.00  0.00     0.103 N 
HETATM   22  H1  UNL     1      27.131   5.198  50.626  1.00  0.00     0.315 HD
HETATM   23  H2  UNL     1      26.765   3.846  49.650  1.00  0.00     0.315 HD
ENDBRANCH   1  21
BRANCH   3  24
HETATM   24  C4  UNL     1      27.708   7.352  47.929  1.00  0.00     0.097 C 
BRANCH  24  25
HETATM   25  C5  UNL     1      29.138   7.171  48.230  1.00  0.00    -0.031 A 
HETATM   26  C6  UNL     1      29.606   5.913  47.815  1.00  0.00     0.011 A 
HETATM   27  C7  UNL     1      30.880   5.470  48.004  1.00  0.00     0.024 A 
HETATM   28  C8  UNL     1      31.802   6.274  48.635  1.00  0.00     0.035 A 
HETATM   29 CL1  UNL     1      33.471   5.877  48.963  1.00  0.00    -0.084 Cl
HETATM   30  C9  UNL     1      31.392   7.509  49.055  1.00  0.00     0.048 A 
HETATM   31  C10 UNL     1      30.097   7.926  48.851  1.00  0.00     0.042 A 
HETATM   32 CL2  UNL     1      29.557   9.514  49.334  1.00  0.00    -0.084 Cl
ENDBRANCH  24  25
ENDBRANCH   3  24
TORSDOF 6
ENDMDL
MODEL 9
REMARK VINA RESULT:      -8.5      4.023      5.615
REMARK  6 active torsions:
REMARK  status: ('A' for Active; 'I' for Inactive)
REMARK    1  A    between atoms: N1_1  and  C1_2 
REMARK    2  A    between atoms: C3_4  and  C4_5 
REMARK    3  A    between atoms: C4_5  and  C5_6 
REMARK    4  A    between atoms: C13_19  and  N5_20 
REMARK    5  A    between atoms: N5_20  and  C14_21 
REMARK    6  A    between atoms: C14_21  and  C15_22 
ROOT
HETATM    1  C1  UNL     1      22.022   0.272  52.916  1.00  0.00     0.283 A 
HETATM    2  C2  UNL     1      21.361   0.218  51.611  1.00  0.00     0.051 C 
HETATM    3  C3  UNL     1      20.056   0.199  51.963  1.00  0.00     0.014 C 
HETATM    4  N2  UNL     1      19.788  -0.103  53.350  1.00  0.00    -0.345 N 
HETATM    5  C11 UNL     1      21.104  -0.325  53.899  1.00  0.00     0.152 A 
HETATM    6  N3  UNL     1      21.481  -1.023  54.949  1.00  0.00    -0.226 NA
HETATM    7  C12 UNL     1      22.902  -1.236  55.116  1.00  0.00     0.231 A 
HETATM    8  N4  UNL     1      23.754  -0.792  54.278  1.00  0.00    -0.244 NA
HETATM    9  C13 UNL     1      23.441  -0.036  53.058  1.00  0.00     0.393 A 
HETATM   10  H9  UNL     1      18.976  -0.188  53.957  1.00  0.00     0.167 HD
ENDROOT
BRANCH   9  11
HETATM   11  N5  UNL     1      24.401   1.045  53.066  1.00  0.00     0.116 N 
HETATM   12  H12 UNL     1      23.854   1.888  52.723  1.00  0.00     0.319 HD
BRANCH  11  13
HETATM   13  C14 UNL     1      25.435   0.814  52.128  1.00  0.00     0.312 C 
BRANCH  13  14
HETATM   14  C15 UNL     1      26.799   0.809  52.734  1.00  0.00    -0.013 A 
HETATM   15  C16 UNL     1      27.415   2.008  53.125  1.00  0.00     0.010 A 
HETATM   16  C17 UNL     1      28.648   2.142  53.692  1.00  0.00     0.001 A 
HETATM   17  C18 UNL     1      29.370   0.988  53.906  1.00  0.00     0.001 A 
HETATM   18  C19 UNL     1      28.830  -0.243  53.544  1.00  0.00     0.019 A 
HETATM   19  C20 UNL     1      27.593  -0.266  52.987  1.00  0.00     0.018 A 
HETATM   20 BR1  UNL     1      26.931  -1.987  52.515  1.00  0.00    -0.051 Br
ENDBRANCH  13  14
ENDBRANCH  11  13
ENDBRANCH   9  11
BRANCH   1  21
HETATM   21  N1  UNL     1      21.930   1.777  53.200  1.00  0.00     0.103 N 
HETATM   22  H1  UNL     1      20.894   1.946  53.035  1.00  0.00     0.315 HD
HETATM   23  H2  UNL     1      22.459   2.178  52.394  1.00  0.00     0.315 HD
ENDBRANCH   1  21
BRANCH   3  24
HETATM   24  C4  UNL     1      18.978   0.178  50.941  1.00  0.00     0.097 C 
BRANCH  24  25
HETATM   25  C5  UNL     1      17.742   0.883  51.322  1.00  0.00    -0.031 A 
HETATM   26  C6  UNL     1      17.881   2.277  51.217  1.00  0.00     0.011 A 
HETATM   27  C7  UNL     1      16.905   3.169  51.543  1.00  0.00     0.024 A 
HETATM   28  C8  UNL     1      15.689   2.721  52.006  1.00  0.00     0.035 A 
HETATM   29 CL1  UNL     1      14.327   3.712  52.469  1.00  0.00    -0.084 Cl
HETATM   30  C9  UNL     1      15.508   1.371  52.123  1.00  0.00     0.048 A 
HETATM   31  C10 UNL     1      16.514   0.496  51.786  1.00  0.00     0.042 A 
HETATM   32 CL2  UNL     1      16.296  -1.235  51.881  1.00  0.00    -0.084 Cl
ENDBRANCH  24  25
ENDBRANCH   3  24
TORSDOF 6
ENDMDL
