MODEL 1
REMARK VINA RESULT:      -7.6      0.000      0.000
REMARK  7 active torsions:
REMARK  status: ('A' for Active; 'I' for Inactive)
REMARK    1  A    between atoms: O1_2  and  C2_3 
REMARK    2  A    between atoms: C5_6  and  N1_7 
REMARK       I    between atoms: N1_7  and  C6_8 
REMARK       I    between atoms: C6_8  and  N2_10 
REMARK    3  A    between atoms: N2_10  and  C7_11 
REMARK    4  A    between atoms: C10_14  and  N3_15 
REMARK    5  A    between atoms: N3_15  and  C11_16 
REMARK    6  A    between atoms: C11_16  and  C12_17 
REMARK    7  A    between atoms: C18_25  and  O3_26 
ROOT
HETATM    1  C7  UNL     1      23.817   5.424  50.431  1.00  0.00     0.036 A 
HETATM    2  C8  UNL     1      24.229   6.675  50.902  1.00  0.00     0.032 A 
HETATM    3  C9  UNL     1      24.471   7.683  50.005  1.00  0.00     0.031 A 
HETATM    4  C10 UNL     1      24.328   7.526  48.642  1.00  0.00     0.028 A 
HETATM    5  C20 UNL     1      23.921   6.278  48.213  1.00  0.00     0.031 A 
HETATM    6  C21 UNL     1      23.669   5.244  49.088  1.00  0.00     0.032 A 
ENDROOT
BRANCH   1   7
HETATM    7  N2  UNL     1      23.596   4.455  51.467  1.00  0.00    -0.309 N 
HETATM    8  C6  UNL     1      24.601   3.496  51.658  1.00  0.00     0.325 C 
HETATM    9  N1  UNL     1      24.570   2.469  52.619  1.00  0.00    -0.309 N 
HETATM   10  O2  UNL     1      25.572   3.600  50.902  1.00  0.00    -0.247 OA
HETATM   11  H6  UNL     1      23.691   2.503  53.186  1.00  0.00     0.170 HD
HETATM   12  H7  UNL     1      22.730   4.424  52.085  1.00  0.00     0.170 HD
BRANCH   9  13
HETATM   13  C5  UNL     1      25.527   1.460  52.890  1.00  0.00     0.036 A 
HETATM   14  C4  UNL     1      25.600   0.216  52.312  1.00  0.00     0.032 A 
HETATM   15  C3  UNL     1      26.557  -0.728  52.617  1.00  0.00     0.039 A 
HETATM   16  C2  UNL     1      27.521  -0.442  53.559  1.00  0.00     0.068 A 
HETATM   17  C23 UNL     1      27.465   0.799  54.150  1.00  0.00     0.039 A 
HETATM   18  C22 UNL     1      26.501   1.718  53.826  1.00  0.00     0.032 A 
BRANCH  16  19
HETATM   19  O1  UNL     1      28.527  -1.313  53.941  1.00  0.00    -0.356 OA
HETATM   20  C1  UNL     1      29.864  -0.910  53.680  1.00  0.00     0.210 C 
ENDBRANCH  16  19
ENDBRANCH   9  13
ENDBRANCH   1   7
BRANCH   4  21
HETATM   21  N3  UNL     1      24.589   8.593  47.735  1.00  0.00    -0.386 N 
HETATM   22  H10 UNL     1      23.937   9.385  47.708  1.00  0.00     0.160 HD
BRANCH  21  23
HETATM   23  C11 UNL     1      25.765   8.465  46.922  1.00  0.00     0.158 C 
BRANCH  23  24
HETATM   24  C12 UNL     1      27.020   8.674  47.651  1.00  0.00    -0.015 C 
HETATM   25  C13 UNL     1      27.437   9.718  48.347  1.00  0.00     0.126 C 
HETATM   26  N4  UNL     1      28.689   9.801  48.999  1.00  0.00    -0.244 NA
HETATM   27  C14 UNL     1      29.588   8.887  48.987  1.00  0.00     0.138 A 
HETATM   28  N5  UNL     1      30.719   8.050  49.132  1.00  0.00    -0.241 NA
HETATM   29  C17 UNL     1      29.358   8.033  47.778  1.00  0.00     0.138 A 
HETATM   30  C15 UNL     1      30.508   7.246  48.163  1.00  0.00     0.025 A 
HETATM   31  C16 UNL     1      31.061   6.053  47.473  1.00  0.00     0.066 C 
HETATM   32  C18 UNL     1      27.990   7.512  47.761  1.00  0.00     0.169 C 
BRANCH  32  33
HETATM   33  O3  UNL     1      27.640   6.715  48.822  1.00  0.00    -0.385 OA
HETATM   34  C19 UNL     1      27.496   5.377  48.503  1.00  0.00     0.202 C 
ENDBRANCH  32  33
ENDBRANCH  23  24
ENDBRANCH  21  23
ENDBRANCH   4  21
TORSDOF 7
ENDMDL
MODEL 2
REMARK VINA RESULT:      -7.6      2.644      3.980
REMARK  7 active torsions:
REMARK  status: ('A' for Active; 'I' for Inactive)
REMARK    1  A    between atoms: O1_2  and  C2_3 
REMARK    2  A    between atoms: C5_6  and  N1_7 
REMARK       I    between atoms: N1_7  and  C6_8 
REMARK       I    between atoms: C6_8  and  N2_10 
REMARK    3  A    between atoms: N2_10  and  C7_11 
REMARK    4  A    between atoms: C10_14  and  N3_15 
REMARK    5  A    between atoms: N3_15  and  C11_16 
REMARK    6  A    between atoms: C11_16  and  C12_17 
REMARK    7  A    between atoms: C18_25  and  O3_26 
ROOT
HETATM    1  C7  UNL     1      26.632   5.284  48.855  1.00  0.00     0.036 A 
HETATM    2  C8  UNL     1      26.348   6.640  49.048  1.00  0.00     0.032 A 
HETATM    3  C9  UNL     1      27.322   7.572  48.801  1.00  0.00     0.031 A 
HETATM    4  C10 UNL     1      28.588   7.238  48.367  1.00  0.00     0.028 A 
HETATM    5  C20 UNL     1      28.833   5.891  48.188  1.00  0.00     0.031 A 
HETATM    6  C21 UNL     1      27.877   4.928  48.427  1.00  0.00     0.032 A 
ENDROOT
BRANCH   1   7
HETATM    7  N2  UNL     1      25.531   4.410  49.147  1.00  0.00    -0.309 N 
HETATM    8  C6  UNL     1      25.712   3.498  50.196  1.00  0.00     0.325 C 
HETATM    9  N1  UNL     1      24.754   2.563  50.632  1.00  0.00    -0.309 N 
HETATM   10  O2  UNL     1      26.812   3.555  50.754  1.00  0.00    -0.247 OA
HETATM   11  H6  UNL     1      23.874   2.628  50.070  1.00  0.00     0.170 HD
HETATM   12  H7  UNL     1      24.606   4.415  48.621  1.00  0.00     0.170 HD
BRANCH   9  13
HETATM   13  C5  UNL     1      24.839   1.607  51.674  1.00  0.00     0.036 A 
HETATM   14  C4  UNL     1      23.840   1.248  52.546  1.00  0.00     0.032 A 
HETATM   15  C3  UNL     1      23.982   0.308  53.545  1.00  0.00     0.039 A 
HETATM   16  C2  UNL     1      25.189  -0.335  53.710  1.00  0.00     0.068 A 
HETATM   17  C23 UNL     1      26.202   0.012  52.847  1.00  0.00     0.039 A 
HETATM   18  C22 UNL     1      26.032   0.950  51.863  1.00  0.00     0.032 A 
BRANCH  16  19
HETATM   19  O1  UNL     1      25.441  -1.293  54.678  1.00  0.00    -0.356 OA
HETATM   20  C1  UNL     1      24.577  -1.313  55.806  1.00  0.00     0.210 C 
ENDBRANCH  16  19
ENDBRANCH   9  13
ENDBRANCH   1   7
BRANCH   4  21
HETATM   21  N3  UNL     1      29.579   8.230  48.120  1.00  0.00    -0.386 N 
HETATM   22  H10 UNL     1      29.631   9.040  48.747  1.00  0.00     0.160 HD
BRANCH  21  23
HETATM   23  C11 UNL     1      30.439   8.005  46.993  1.00  0.00     0.158 C 
BRANCH  23  24
HETATM   24  C12 UNL     1      31.867   8.143  47.294  1.00  0.00    -0.015 C 
HETATM   25  C13 UNL     1      32.675   9.178  47.137  1.00  0.00     0.126 C 
HETATM   26  N4  UNL     1      34.052   9.179  47.458  1.00  0.00    -0.244 NA
HETATM   27  C14 UNL     1      34.701   8.175  47.924  1.00  0.00     0.138 A 
HETATM   28  N5  UNL     1      35.627   7.240  48.440  1.00  0.00    -0.241 NA
HETATM   29  C17 UNL     1      33.956   6.932  47.546  1.00  0.00     0.138 A 
HETATM   30  C15 UNL     1      34.982   6.162  48.214  1.00  0.00     0.025 A 
HETATM   31  C16 UNL     1      35.051   4.686  48.366  1.00  0.00     0.066 C 
HETATM   32  C18 UNL     1      32.567   6.997  48.002  1.00  0.00     0.169 C 
BRANCH  32  33
HETATM   33  O3  UNL     1      32.388   7.111  49.358  1.00  0.00    -0.385 OA
HETATM   34  C19 UNL     1      31.852   5.985  49.956  1.00  0.00     0.202 C 
ENDBRANCH  32  33
ENDBRANCH  23  24
ENDBRANCH  21  23
ENDBRANCH   4  21
TORSDOF 7
ENDMDL
MODEL 3
REMARK VINA RESULT:      -7.5      2.877      4.559
REMARK  7 active torsions:
REMARK  status: ('A' for Active; 'I' for Inactive)
REMARK    1  A    between atoms: O1_2  and  C2_3 
REMARK    2  A    between atoms: C5_6  and  N1_7 
REMARK       I    between atoms: N1_7  and  C6_8 
REMARK       I    between atoms: C6_8  and  N2_10 
REMARK    3  A    between atoms: N2_10  and  C7_11 
REMARK    4  A    between atoms: C10_14  and  N3_15 
REMARK    5  A    between atoms: N3_15  and  C11_16 
REMARK    6  A    between atoms: C11_16  and  C12_17 
REMARK    7  A    between atoms: C18_25  and  O3_26 
ROOT
HETATM    1  C7  UNL     1      26.379   5.346  48.874  1.00  0.00     0.036 A 
HETATM    2  C8  UNL     1      26.303   6.743  48.866  1.00  0.00     0.032 A 
HETATM    3  C9  UNL     1      27.426   7.474  48.578  1.00  0.00     0.031 A 
HETATM    4  C10 UNL     1      28.646   6.897  48.294  1.00  0.00     0.028 A 
HETATM    5  C20 UNL     1      28.684   5.517  48.312  1.00  0.00     0.031 A 
HETATM    6  C21 UNL     1      27.574   4.752  48.596  1.00  0.00     0.032 A 
ENDROOT
BRANCH   1   7
HETATM    7  N2  UNL     1      25.138   4.697  49.188  1.00  0.00    -0.309 N 
HETATM    8  C6  UNL     1      25.176   3.712  50.185  1.00  0.00     0.325 C 
HETATM    9  N1  UNL     1      24.070   2.966  50.632  1.00  0.00    -0.309 N 
HETATM   10  O2  UNL     1      26.290   3.517  50.684  1.00  0.00    -0.247 OA
HETATM   11  H6  UNL     1      23.197   3.237  50.123  1.00  0.00     0.170 HD
HETATM   12  H7  UNL     1      24.210   4.916  48.715  1.00  0.00     0.170 HD
BRANCH   9  13
HETATM   13  C5  UNL     1      24.005   1.959  51.625  1.00  0.00     0.036 A 
HETATM   14  C4  UNL     1      24.999   1.602  52.504  1.00  0.00     0.032 A 
HETATM   15  C3  UNL     1      24.878   0.609  53.453  1.00  0.00     0.039 A 
HETATM   16  C2  UNL     1      23.699  -0.095  53.557  1.00  0.00     0.068 A 
HETATM   17  C23 UNL     1      22.692   0.246  52.685  1.00  0.00     0.039 A 
HETATM   18  C22 UNL     1      22.840   1.239  51.752  1.00  0.00     0.032 A 
BRANCH  16  19
HETATM   19  O1  UNL     1      23.469  -1.110  54.470  1.00  0.00    -0.356 OA
HETATM   20  C1  UNL     1      22.135  -1.274  54.930  1.00  0.00     0.210 C 
ENDBRANCH  16  19
ENDBRANCH   9  13
ENDBRANCH   1   7
BRANCH   4  21
HETATM   21  N3  UNL     1      29.796   7.685  48.000  1.00  0.00    -0.386 N 
HETATM   22  H10 UNL     1      29.916   8.579  48.488  1.00  0.00     0.160 HD
BRANCH  21  23
HETATM   23  C11 UNL     1      30.705   7.146  47.029  1.00  0.00     0.158 C 
BRANCH  23  24
HETATM   24  C12 UNL     1      31.944   6.612  47.603  1.00  0.00    -0.015 C 
HETATM   25  C13 UNL     1      32.627   6.999  48.668  1.00  0.00     0.126 C 
HETATM   26  N4  UNL     1      33.828   6.402  49.114  1.00  0.00    -0.244 NA
HETATM   27  C14 UNL     1      34.422   5.422  48.538  1.00  0.00     0.138 A 
HETATM   28  N5  UNL     1      35.254   4.364  48.107  1.00  0.00    -0.241 NA
HETATM   29  C17 UNL     1      33.989   5.402  47.103  1.00  0.00     0.138 A 
HETATM   30  C15 UNL     1      34.847   4.257  46.901  1.00  0.00     0.025 A 
HETATM   31  C16 UNL     1      35.049   3.487  45.647  1.00  0.00     0.066 C 
HETATM   32  C18 UNL     1      32.530   5.349  47.000  1.00  0.00     0.169 C 
BRANCH  32  33
HETATM   33  O3  UNL     1      31.931   4.247  47.560  1.00  0.00    -0.385 OA
HETATM   34  C19 UNL     1      31.516   3.300  46.642  1.00  0.00     0.202 C 
ENDBRANCH  32  33
ENDBRANCH  23  24
ENDBRANCH  21  23
ENDBRANCH   4  21
TORSDOF 7
ENDMDL
MODEL 4
REMARK VINA RESULT:      -7.4      2.117      8.258
REMARK  7 active torsions:
REMARK  status: ('A' for Active; 'I' for Inactive)
REMARK    1  A    between atoms: O1_2  and  C2_3 
REMARK    2  A    between atoms: C5_6  and  N1_7 
REMARK       I    between atoms: N1_7  and  C6_8 
REMARK       I    between atoms: C6_8  and  N2_10 
REMARK    3  A    between atoms: N2_10  and  C7_11 
REMARK    4  A    between atoms: C10_14  and  N3_15 
REMARK    5  A    between atoms: N3_15  and  C11_16 
REMARK    6  A    between atoms: C11_16  and  C12_17 
REMARK    7  A    between atoms: C18_25  and  O3_26 
ROOT
HETATM    1  C7  UNL     1      24.025   5.024  49.567  1.00  0.00     0.036 A 
HETATM    2  C8  UNL     1      23.840   5.066  50.952  1.00  0.00     0.032 A 
HETATM    3  C9  UNL     1      23.428   3.935  51.609  1.00  0.00     0.031 A 
HETATM    4  C10 UNL     1      23.181   2.741  50.965  1.00  0.00     0.028 A 
HETATM    5  C20 UNL     1      23.373   2.736  49.598  1.00  0.00     0.031 A 
HETATM    6  C21 UNL     1      23.787   3.854  48.907  1.00  0.00     0.032 A 
ENDROOT
BRANCH   1   7
HETATM    7  N2  UNL     1      24.458   6.269  48.998  1.00  0.00    -0.309 N 
HETATM    8  C6  UNL     1      25.841   6.455  48.868  1.00  0.00     0.325 C 
HETATM    9  N1  UNL     1      26.459   7.603  48.337  1.00  0.00    -0.309 N 
HETATM   10  O2  UNL     1      26.535   5.512  49.264  1.00  0.00    -0.247 OA
HETATM   11  H6  UNL     1      25.752   8.316  48.045  1.00  0.00     0.170 HD
HETATM   12  H7  UNL     1      23.801   7.042  48.678  1.00  0.00     0.170 HD
BRANCH   9  13
HETATM   13  C5  UNL     1      27.836   7.885  48.164  1.00  0.00     0.036 A 
HETATM   14  C4  UNL     1      28.677   7.344  47.222  1.00  0.00     0.032 A 
HETATM   15  C3  UNL     1      30.014   7.658  47.101  1.00  0.00     0.039 A 
HETATM   16  C2  UNL     1      30.581   8.570  47.964  1.00  0.00     0.068 A 
HETATM   17  C23 UNL     1      29.755   9.123  48.915  1.00  0.00     0.039 A 
HETATM   18  C22 UNL     1      28.429   8.792  49.011  1.00  0.00     0.032 A 
BRANCH  16  19
HETATM   19  O1  UNL     1      31.910   8.958  47.933  1.00  0.00    -0.356 OA
HETATM   20  C1  UNL     1      32.884   7.924  47.948  1.00  0.00     0.210 C 
ENDBRANCH  16  19
ENDBRANCH   9  13
ENDBRANCH   1   7
BRANCH   4  21
HETATM   21  N3  UNL     1      22.752   1.583  51.676  1.00  0.00    -0.386 N 
HETATM   22  H10 UNL     1      22.178   0.889  51.185  1.00  0.00     0.160 HD
BRANCH  21  23
HETATM   23  C11 UNL     1      23.170   1.486  53.046  1.00  0.00     0.158 C 
BRANCH  23  24
HETATM   24  C12 UNL     1      24.402   0.715  53.241  1.00  0.00    -0.015 C 
HETATM   25  C13 UNL     1      24.569  -0.566  53.527  1.00  0.00     0.126 C 
HETATM   26  N4  UNL     1      25.824  -1.192  53.704  1.00  0.00    -0.244 NA
HETATM   27  C14 UNL     1      26.960  -0.601  53.629  1.00  0.00     0.138 A 
HETATM   28  N5  UNL     1      28.314  -0.197  53.595  1.00  0.00    -0.241 NA
HETATM   29  C17 UNL     1      26.737   0.857  53.890  1.00  0.00     0.138 A 
HETATM   30  C15 UNL     1      28.158   1.063  53.726  1.00  0.00     0.025 A 
HETATM   31  C16 UNL     1      28.902   2.347  53.807  1.00  0.00     0.066 C 
HETATM   32  C18 UNL     1      25.730   1.401  52.978  1.00  0.00     0.169 C 
BRANCH  32  33
HETATM   33  O3  UNL     1      26.032   1.329  51.641  1.00  0.00    -0.385 OA
HETATM   34  C19 UNL     1      26.611   2.476  51.128  1.00  0.00     0.202 C 
ENDBRANCH  32  33
ENDBRANCH  23  24
ENDBRANCH  21  23
ENDBRANCH   4  21
TORSDOF 7
ENDMDL
MODEL 5
REMARK VINA RESULT:      -7.3      2.564      8.297
REMARK  7 active torsions:
REMARK  status: ('A' for Active; 'I' for Inactive)
REMARK    1  A    between atoms: O1_2  and  C2_3 
REMARK    2  A    between atoms: C5_6  and  N1_7 
REMARK       I    between atoms: N1_7  and  C6_8 
REMARK       I    between atoms: C6_8  and  N2_10 
REMARK    3  A    between atoms: N2_10  and  C7_11 
REMARK    4  A    between atoms: C10_14  and  N3_15 
REMARK    5  A    between atoms: N3_15  and  C11_16 
REMARK    6  A    between atoms: C11_16  and  C12_17 
REMARK    7  A    between atoms: C18_25  and  O3_26 
ROOT
HETATM    1  C7  UNL     1      25.955   5.343  48.870  1.00  0.00     0.036 A 
HETATM    2  C8  UNL     1      26.521   4.178  49.398  1.00  0.00     0.032 A 
HETATM    3  C9  UNL     1      25.704   3.219  49.936  1.00  0.00     0.031 A 
HETATM    4  C10 UNL     1      24.331   3.345  49.988  1.00  0.00     0.028 A 
HETATM    5  C20 UNL     1      23.807   4.507  49.458  1.00  0.00     0.031 A 
HETATM    6  C21 UNL     1      24.600   5.491  48.909  1.00  0.00     0.032 A 
ENDROOT
BRANCH   1   7
HETATM    7  N2  UNL     1      26.915   6.267  48.336  1.00  0.00    -0.309 N 
HETATM    8  C6  UNL     1      28.258   5.867  48.362  1.00  0.00     0.325 C 
HETATM    9  N1  UNL     1      29.342   6.629  47.887  1.00  0.00    -0.309 N 
HETATM   10  O2  UNL     1      28.460   4.749  48.848  1.00  0.00    -0.247 OA
HETATM   11  H6  UNL     1      29.022   7.549  47.505  1.00  0.00     0.170 HD
HETATM   12  H7  UNL     1      26.669   7.220  47.931  1.00  0.00     0.170 HD
BRANCH   9  13
HETATM   13  C5  UNL     1      30.723   6.316  47.868  1.00  0.00     0.036 A 
HETATM   14  C4  UNL     1      31.308   5.200  47.320  1.00  0.00     0.032 A 
HETATM   15  C3  UNL     1      32.663   4.948  47.332  1.00  0.00     0.039 A 
HETATM   16  C2  UNL     1      33.520   5.850  47.925  1.00  0.00     0.068 A 
HETATM   17  C23 UNL     1      32.953   6.973  48.480  1.00  0.00     0.039 A 
HETATM   18  C22 UNL     1      31.602   7.198  48.453  1.00  0.00     0.032 A 
BRANCH  16  19
HETATM   19  O1  UNL     1      34.894   5.697  47.994  1.00  0.00    -0.356 OA
HETATM   20  C1  UNL     1      35.626   6.729  48.642  1.00  0.00     0.210 C 
ENDBRANCH  16  19
ENDBRANCH   9  13
ENDBRANCH   1   7
BRANCH   4  21
HETATM   21  N3  UNL     1      23.508   2.330  50.556  1.00  0.00    -0.386 N 
HETATM   22  H10 UNL     1      23.102   1.622  49.934  1.00  0.00     0.160 HD
BRANCH  21  23
HETATM   23  C11 UNL     1      23.315   2.389  51.976  1.00  0.00     0.158 C 
BRANCH  23  24
HETATM   24  C12 UNL     1      24.470   1.932  52.755  1.00  0.00    -0.015 C 
HETATM   25  C13 UNL     1      25.271   2.603  53.566  1.00  0.00     0.126 C 
HETATM   26  N4  UNL     1      26.371   2.043  54.255  1.00  0.00    -0.244 NA
HETATM   27  C14 UNL     1      26.746   0.819  54.172  1.00  0.00     0.138 A 
HETATM   28  N5  UNL     1      27.351  -0.456  54.260  1.00  0.00    -0.241 NA
HETATM   29  C17 UNL     1      26.235   0.269  52.876  1.00  0.00     0.138 A 
HETATM   30  C15 UNL     1      26.863  -0.990  53.208  1.00  0.00     0.025 A 
HETATM   31  C16 UNL     1      26.852  -2.245  52.414  1.00  0.00     0.066 C 
HETATM   32  C18 UNL     1      24.786   0.448  52.770  1.00  0.00     0.169 C 
BRANCH  32  33
HETATM   33  O3  UNL     1      24.035  -0.176  53.735  1.00  0.00    -0.385 OA
HETATM   34  C19 UNL     1      22.949  -0.879  53.242  1.00  0.00     0.202 C 
ENDBRANCH  32  33
ENDBRANCH  23  24
ENDBRANCH  21  23
ENDBRANCH   4  21
TORSDOF 7
ENDMDL
MODEL 6
REMARK VINA RESULT:      -7.3      6.343     10.152
REMARK  7 active torsions:
REMARK  status: ('A' for Active; 'I' for Inactive)
REMARK    1  A    between atoms: O1_2  and  C2_3 
REMARK    2  A    between atoms: C5_6  and  N1_7 
REMARK       I    between atoms: N1_7  and  C6_8 
REMARK       I    between atoms: C6_8  and  N2_10 
REMARK    3  A    between atoms: N2_10  and  C7_11 
REMARK    4  A    between atoms: C10_14  and  N3_15 
REMARK    5  A    between atoms: N3_15  and  C11_16 
REMARK    6  A    between atoms: C11_16  and  C12_17 
REMARK    7  A    between atoms: C18_25  and  O3_26 
ROOT
HETATM    1  C7  UNL     1      20.318   3.090  50.555  1.00  0.00     0.036 A 
HETATM    2  C8  UNL     1      21.116   3.607  51.581  1.00  0.00     0.032 A 
HETATM    3  C9  UNL     1      22.210   2.897  52.004  1.00  0.00     0.031 A 
HETATM    4  C10 UNL     1      22.569   1.680  51.463  1.00  0.00     0.028 A 
HETATM    5  C20 UNL     1      21.759   1.200  50.453  1.00  0.00     0.031 A 
HETATM    6  C21 UNL     1      20.653   1.889  50.005  1.00  0.00     0.032 A 
ENDROOT
BRANCH   1   7
HETATM    7  N2  UNL     1      19.206   3.927  50.204  1.00  0.00    -0.309 N 
HETATM    8  C6  UNL     1      18.002   3.693  50.883  1.00  0.00     0.325 C 
HETATM    9  N1  UNL     1      16.805   4.405  50.681  1.00  0.00    -0.309 N 
HETATM   10  O2  UNL     1      18.041   2.781  51.715  1.00  0.00    -0.247 OA
HETATM   11  H6  UNL     1      16.920   5.144  49.950  1.00  0.00     0.170 HD
HETATM   12  H7  UNL     1      19.244   4.699  49.472  1.00  0.00     0.170 HD
BRANCH   9  13
HETATM   13  C5  UNL     1      15.547   4.247  51.311  1.00  0.00     0.036 A 
HETATM   14  C4  UNL     1      14.335   4.046  50.695  1.00  0.00     0.032 A 
HETATM   15  C3  UNL     1      13.138   3.899  51.362  1.00  0.00     0.039 A 
HETATM   16  C2  UNL     1      13.114   3.951  52.739  1.00  0.00     0.068 A 
HETATM   17  C23 UNL     1      14.317   4.153  53.375  1.00  0.00     0.039 A 
HETATM   18  C22 UNL     1      15.492   4.295  52.684  1.00  0.00     0.032 A 
BRANCH  16  19
HETATM   19  O1  UNL     1      11.972   3.816  53.509  1.00  0.00    -0.356 OA
HETATM   20  C1  UNL     1      12.093   3.084  54.721  1.00  0.00     0.210 C 
ENDBRANCH  16  19
ENDBRANCH   9  13
ENDBRANCH   1   7
BRANCH   4  21
HETATM   21  N3  UNL     1      23.712   0.964  51.924  1.00  0.00    -0.386 N 
HETATM   22  H10 UNL     1      24.204   0.348  51.268  1.00  0.00     0.160 HD
BRANCH  21  23
HETATM   23  C11 UNL     1      24.083   1.174  53.295  1.00  0.00     0.158 C 
BRANCH  23  24
HETATM   24  C12 UNL     1      25.531   1.209  53.523  1.00  0.00    -0.015 C 
HETATM   25  C13 UNL     1      26.344   2.239  53.685  1.00  0.00     0.126 C 
HETATM   26  N4  UNL     1      27.740   2.138  53.886  1.00  0.00    -0.244 NA
HETATM   27  C14 UNL     1      28.402   1.040  53.920  1.00  0.00     0.138 A 
HETATM   28  N5  UNL     1      29.345  -0.010  54.004  1.00  0.00    -0.241 NA
HETATM   29  C17 UNL     1      27.611   0.004  53.180  1.00  0.00     0.138 A 
HETATM   30  C15 UNL     1      28.667  -0.943  53.458  1.00  0.00     0.025 A 
HETATM   31  C16 UNL     1      28.721  -2.377  53.073  1.00  0.00     0.066 C 
HETATM   32  C18 UNL     1      26.258  -0.107  53.727  1.00  0.00     0.169 C 
BRANCH  32  33
HETATM   33  O3  UNL     1      26.176  -0.482  55.045  1.00  0.00    -0.385 OA
HETATM   34  C19 UNL     1      25.012  -1.155  55.372  1.00  0.00     0.202 C 
ENDBRANCH  32  33
ENDBRANCH  23  24
ENDBRANCH  21  23
ENDBRANCH   4  21
TORSDOF 7
ENDMDL
MODEL 7
REMARK VINA RESULT:      -7.2      2.145      8.462
REMARK  7 active torsions:
REMARK  status: ('A' for Active; 'I' for Inactive)
REMARK    1  A    between atoms: O1_2  and  C2_3 
REMARK    2  A    between atoms: C5_6  and  N1_7 
REMARK       I    between atoms: N1_7  and  C6_8 
REMARK       I    between atoms: C6_8  and  N2_10 
REMARK    3  A    between atoms: N2_10  and  C7_11 
REMARK    4  A    between atoms: C10_14  and  N3_15 
REMARK    5  A    between atoms: N3_15  and  C11_16 
REMARK    6  A    between atoms: C11_16  and  C12_17 
REMARK    7  A    between atoms: C18_25  and  O3_26 
ROOT
HETATM    1  C7  UNL     1      24.564   6.318  49.438  1.00  0.00     0.036 A 
HETATM    2  C8  UNL     1      24.394   6.637  50.789  1.00  0.00     0.032 A 
HETATM    3  C9  UNL     1      23.790   5.731  51.622  1.00  0.00     0.031 A 
HETATM    4  C10 UNL     1      23.333   4.503  51.190  1.00  0.00     0.028 A 
HETATM    5  C20 UNL     1      23.517   4.222  49.851  1.00  0.00     0.031 A 
HETATM    6  C21 UNL     1      24.120   5.110  48.987  1.00  0.00     0.032 A 
ENDROOT
BRANCH   1   7
HETATM    7  N2  UNL     1      25.208   7.348  48.673  1.00  0.00    -0.309 N 
HETATM    8  C6  UNL     1      26.601   7.258  48.543  1.00  0.00     0.325 C 
HETATM    9  N1  UNL     1      27.410   8.166  47.835  1.00  0.00    -0.309 N 
HETATM   10  O2  UNL     1      27.117   6.289  49.110  1.00  0.00    -0.247 OA
HETATM   11  H6  UNL     1      26.840   8.933  47.409  1.00  0.00     0.170 HD
HETATM   12  H7  UNL     1      24.698   8.159  48.209  1.00  0.00     0.170 HD
BRANCH   9  13
HETATM   13  C5  UNL     1      28.814   8.163  47.646  1.00  0.00     0.036 A 
HETATM   14  C4  UNL     1      29.506   7.569  46.618  1.00  0.00     0.032 A 
HETATM   15  C3  UNL     1      30.878   7.599  46.486  1.00  0.00     0.039 A 
HETATM   16  C2  UNL     1      31.640   8.258  47.427  1.00  0.00     0.068 A 
HETATM   17  C23 UNL     1      30.965   8.858  48.464  1.00  0.00     0.039 A 
HETATM   18  C22 UNL     1      29.600   8.812  48.569  1.00  0.00     0.032 A 
BRANCH  16  19
HETATM   19  O1  UNL     1      33.021   8.350  47.393  1.00  0.00    -0.356 OA
HETATM   20  C1  UNL     1      33.728   7.856  48.521  1.00  0.00     0.210 C 
ENDBRANCH  16  19
ENDBRANCH   9  13
ENDBRANCH   1   7
BRANCH   4  21
HETATM   21  N3  UNL     1      22.708   3.583  52.080  1.00  0.00    -0.386 N 
HETATM   22  H10 UNL     1      22.031   3.942  52.763  1.00  0.00     0.160 HD
BRANCH  21  23
HETATM   23  C11 UNL     1      23.088   2.206  51.942  1.00  0.00     0.158 C 
BRANCH  23  24
HETATM   24  C12 UNL     1      24.284   1.836  52.704  1.00  0.00    -0.015 C 
HETATM   25  C13 UNL     1      25.067   2.575  53.472  1.00  0.00     0.126 C 
HETATM   26  N4  UNL     1      26.212   2.096  54.150  1.00  0.00    -0.244 NA
HETATM   27  C14 UNL     1      26.650   0.892  54.096  1.00  0.00     0.138 A 
HETATM   28  N5  UNL     1      27.324  -0.346  54.208  1.00  0.00    -0.241 NA
HETATM   29  C17 UNL     1      26.138   0.273  52.832  1.00  0.00     0.138 A 
HETATM   30  C15 UNL     1      26.840  -0.939  53.187  1.00  0.00     0.025 A 
HETATM   31  C16 UNL     1      26.877  -2.218  52.433  1.00  0.00     0.066 C 
HETATM   32  C18 UNL     1      24.680   0.372  52.758  1.00  0.00     0.169 C 
BRANCH  32  33
HETATM   33  O3  UNL     1      23.986  -0.259  53.760  1.00  0.00    -0.385 OA
HETATM   34  C19 UNL     1      22.905  -1.002  53.321  1.00  0.00     0.202 C 
ENDBRANCH  32  33
ENDBRANCH  23  24
ENDBRANCH  21  23
ENDBRANCH   4  21
TORSDOF 7
ENDMDL
MODEL 8
REMARK VINA RESULT:      -7.1      7.289     10.393
REMARK  7 active torsions:
REMARK  status: ('A' for Active; 'I' for Inactive)
REMARK    1  A    between atoms: O1_2  and  C2_3 
REMARK    2  A    between atoms: C5_6  and  N1_7 
REMARK       I    between atoms: N1_7  and  C6_8 
REMARK       I    between atoms: C6_8  and  N2_10 
REMARK    3  A    between atoms: N2_10  and  C7_11 
REMARK    4  A    between atoms: C10_14  and  N3_15 
REMARK    5  A    between atoms: N3_15  and  C11_16 
REMARK    6  A    between atoms: C11_16  and  C12_17 
REMARK    7  A    between atoms: C18_25  and  O3_26 
ROOT
HETATM    1  C7  UNL     1      20.608   0.898  52.628  1.00  0.00     0.036 A 
HETATM    2  C8  UNL     1      19.962   0.189  51.610  1.00  0.00     0.032 A 
HETATM    3  C9  UNL     1      19.128   0.857  50.751  1.00  0.00     0.031 A 
HETATM    4  C10 UNL     1      18.889   2.213  50.840  1.00  0.00     0.028 A 
HETATM    5  C20 UNL     1      19.543   2.880  51.856  1.00  0.00     0.031 A 
HETATM    6  C21 UNL     1      20.387   2.239  52.736  1.00  0.00     0.032 A 
ENDROOT
BRANCH   1   7
HETATM    7  N2  UNL     1      21.452   0.086  53.458  1.00  0.00    -0.309 N 
HETATM    8  C6  UNL     1      22.835   0.203  53.257  1.00  0.00     0.325 C 
HETATM    9  N1  UNL     1      23.821  -0.505  53.968  1.00  0.00    -0.309 N 
HETATM   10  O2  UNL     1      23.168   1.003  52.377  1.00  0.00    -0.247 OA
HETATM   11  H6  UNL     1      23.394  -1.143  54.679  1.00  0.00     0.170 HD
HETATM   12  H7  UNL     1      21.094  -0.587  54.201  1.00  0.00     0.170 HD
BRANCH   9  13
HETATM   13  C5  UNL     1      25.231  -0.457  53.842  1.00  0.00     0.036 A 
HETATM   14  C4  UNL     1      25.986  -0.989  52.825  1.00  0.00     0.032 A 
HETATM   15  C3  UNL     1      27.361  -0.911  52.756  1.00  0.00     0.039 A 
HETATM   16  C2  UNL     1      28.059  -0.267  53.753  1.00  0.00     0.068 A 
HETATM   17  C23 UNL     1      27.320   0.271  54.781  1.00  0.00     0.039 A 
HETATM   18  C22 UNL     1      25.954   0.179  54.824  1.00  0.00     0.032 A 
BRANCH  16  19
HETATM   19  O1  UNL     1      29.436  -0.131  53.785  1.00  0.00    -0.356 OA
HETATM   20  C1  UNL     1      30.203  -1.327  53.760  1.00  0.00     0.210 C 
ENDBRANCH  16  19
ENDBRANCH   9  13
ENDBRANCH   1   7
BRANCH   4  21
HETATM   21  N3  UNL     1      18.016   2.879  49.933  1.00  0.00    -0.386 N 
HETATM   22  H10 UNL     1      17.919   2.506  48.982  1.00  0.00     0.160 HD
BRANCH  21  23
HETATM   23  C11 UNL     1      17.334   4.036  50.439  1.00  0.00     0.158 C 
BRANCH  23  24
HETATM   24  C12 UNL     1      16.252   3.727  51.379  1.00  0.00    -0.015 C 
HETATM   25  C13 UNL     1      15.844   4.382  52.453  1.00  0.00     0.126 C 
HETATM   26  N4  UNL     1      14.784   3.968  53.292  1.00  0.00    -0.244 NA
HETATM   27  C14 UNL     1      14.093   2.899  53.134  1.00  0.00     0.138 A 
HETATM   28  N5  UNL     1      13.197   1.806  53.179  1.00  0.00    -0.241 NA
HETATM   29  C17 UNL     1      14.913   1.938  52.327  1.00  0.00     0.138 A 
HETATM   30  C15 UNL     1      13.824   0.991  52.423  1.00  0.00     0.025 A 
HETATM   31  C16 UNL     1      13.755  -0.370  51.834  1.00  0.00     0.066 C 
HETATM   32  C18 UNL     1      15.345   2.551  51.070  1.00  0.00     0.169 C 
BRANCH  32  33
HETATM   33  O3  UNL     1      14.341   2.949  50.223  1.00  0.00    -0.385 OA
HETATM   34  C19 UNL     1      14.350   2.315  48.994  1.00  0.00     0.202 C 
ENDBRANCH  32  33
ENDBRANCH  23  24
ENDBRANCH  21  23
ENDBRANCH   4  21
TORSDOF 7
ENDMDL
MODEL 9
REMARK VINA RESULT:      -7.1      3.829      9.176
REMARK  7 active torsions:
REMARK  status: ('A' for Active; 'I' for Inactive)
REMARK    1  A    between atoms: O1_2  and  C2_3 
REMARK    2  A    between atoms: C5_6  and  N1_7 
REMARK       I    between atoms: N1_7  and  C6_8 
REMARK       I    between atoms: C6_8  and  N2_10 
REMARK    3  A    between atoms: N2_10  and  C7_11 
REMARK    4  A    between atoms: C10_14  and  N3_15 
REMARK    5  A    between atoms: N3_15  and  C11_16 
REMARK    6  A    between atoms: C11_16  and  C12_17 
REMARK    7  A    between atoms: C18_25  and  O3_26 
ROOT
HETATM    1  C7  UNL     1      26.196   5.626  49.239  1.00  0.00     0.036 A 
HETATM    2  C8  UNL     1      25.041   6.158  48.657  1.00  0.00     0.032 A 
HETATM    3  C9  UNL     1      23.894   5.407  48.633  1.00  0.00     0.031 A 
HETATM    4  C10 UNL     1      23.820   4.134  49.159  1.00  0.00     0.028 A 
HETATM    5  C20 UNL     1      24.979   3.641  49.724  1.00  0.00     0.031 A 
HETATM    6  C21 UNL     1      26.148   4.369  49.765  1.00  0.00     0.032 A 
ENDROOT
BRANCH   1   7
HETATM    7  N2  UNL     1      27.327   6.510  49.202  1.00  0.00    -0.309 N 
HETATM    8  C6  UNL     1      28.511   5.996  48.653  1.00  0.00     0.325 C 
HETATM    9  N1  UNL     1      29.721   6.703  48.528  1.00  0.00    -0.309 N 
HETATM   10  O2  UNL     1      28.439   4.827  48.259  1.00  0.00    -0.247 OA
HETATM   11  H6  UNL     1      29.634   7.676  48.901  1.00  0.00     0.170 HD
HETATM   12  H7  UNL     1      27.318   7.511  49.561  1.00  0.00     0.170 HD
BRANCH   9  13
HETATM   13  C5  UNL     1      30.961   6.277  47.992  1.00  0.00     0.036 A 
HETATM   14  C4  UNL     1      31.404   6.448  46.703  1.00  0.00     0.032 A 
HETATM   15  C3  UNL     1      32.626   6.010  46.237  1.00  0.00     0.039 A 
HETATM   16  C2  UNL     1      33.486   5.353  47.090  1.00  0.00     0.068 A 
HETATM   17  C23 UNL     1      33.059   5.171  48.384  1.00  0.00     0.039 A 
HETATM   18  C22 UNL     1      31.840   5.618  48.820  1.00  0.00     0.032 A 
BRANCH  16  19
HETATM   19  O1  UNL     1      34.733   4.872  46.728  1.00  0.00    -0.356 OA
HETATM   20  C1  UNL     1      34.879   3.461  46.641  1.00  0.00     0.210 C 
ENDBRANCH  16  19
ENDBRANCH   9  13
ENDBRANCH   1   7
BRANCH   4  21
HETATM   21  N3  UNL     1      22.614   3.378  49.117  1.00  0.00    -0.386 N 
HETATM   22  H10 UNL     1      22.515   2.648  48.402  1.00  0.00     0.160 HD
BRANCH  21  23
HETATM   23  C11 UNL     1      21.621   3.708  50.100  1.00  0.00     0.158 C 
BRANCH  23  24
HETATM   24  C12 UNL     1      21.470   2.703  51.157  1.00  0.00    -0.015 C 
HETATM   25  C13 UNL     1      22.338   2.280  52.061  1.00  0.00     0.126 C 
HETATM   26  N4  UNL     1      22.070   1.285  53.029  1.00  0.00    -0.244 NA
HETATM   27  C14 UNL     1      20.961   0.651  53.146  1.00  0.00     0.138 A 
HETATM   28  N5  UNL     1      19.861  -0.170  53.486  1.00  0.00    -0.241 NA
HETATM   29  C17 UNL     1      20.257   0.709  51.825  1.00  0.00     0.138 A 
HETATM   30  C15 UNL     1      19.187  -0.071  52.406  1.00  0.00     0.025 A 
HETATM   31  C16 UNL     1      17.931  -0.516  51.749  1.00  0.00     0.066 C 
HETATM   32  C18 UNL     1      20.098   2.095  51.380  1.00  0.00     0.169 C 
BRANCH  32  33
HETATM   33  O3  UNL     1      19.360   2.907  52.205  1.00  0.00    -0.385 OA
HETATM   34  C19 UNL     1      18.228   3.439  51.612  1.00  0.00     0.202 C 
ENDBRANCH  32  33
ENDBRANCH  23  24
ENDBRANCH  21  23
ENDBRANCH   4  21
TORSDOF 7
ENDMDL
