MODEL 1
REMARK VINA RESULT:      -7.2      0.000      0.000
REMARK  9 active torsions:
REMARK  status: ('A' for Active; 'I' for Inactive)
REMARK    1  A    between atoms: C3_3  and  O1_4 
REMARK    2  A    between atoms: C4_5  and  C5_6 
REMARK    3  A    between atoms: C5_6  and  S1_7 
REMARK    4  A    between atoms: S1_7  and  C6_8 
REMARK    5  A    between atoms: C7_9  and  C8_10 
REMARK    6  A    between atoms: C9_11  and  C10_12 
REMARK    7  A    between atoms: C15_18  and  C16_19 
REMARK    8  A    between atoms: C16_19  and  C18_22 
REMARK    9  A    between atoms: C18_22  and  N2_23 
ROOT
HETATM    1  C16 UNL     1      27.226  -0.961  52.735  1.00  0.00     0.061 C 
HETATM    2  C17 UNL     1      28.468  -0.724  53.481  1.00  0.00     0.098 C 
HETATM    3  N1  UNL     1      29.463  -0.513  54.087  1.00  0.00    -0.192 NA
ENDROOT
BRANCH   1   4
HETATM    4  C15 UNL     1      26.440   0.070  52.482  1.00  0.00    -0.009 A 
HETATM    5  C2  UNL     1      25.232   0.393  53.012  1.00  0.00    -0.013 A 
HETATM    6  C1  UNL     1      24.759  -0.430  53.916  1.00  0.00     0.047 C 
HETATM    7  C3  UNL     1      24.461   1.471  52.716  1.00  0.00     0.080 A 
HETATM    8  C4  UNL     1      24.955   2.339  51.772  1.00  0.00    -0.015 A 
HETATM    9  C13 UNL     1      26.172   2.087  51.183  1.00  0.00     0.011 A 
HETATM   10  C14 UNL     1      26.890   0.974  51.539  1.00  0.00     0.014 A 
BRANCH   7  11
HETATM   11  O1  UNL     1      23.241   1.688  53.331  1.00  0.00    -0.360 OA
HETATM   12  H3  UNL     1      22.530   0.958  53.313  1.00  0.00     0.217 HD
ENDBRANCH   7  11
BRANCH   8  13
HETATM   13  C5  UNL     1      24.187   3.537  51.385  1.00  0.00     0.120 C 
BRANCH  13  14
HETATM   14  S1  UNL     1      23.537   3.257  49.709  1.00  0.00    -0.137 SA
BRANCH  14  15
HETATM   15  C6  UNL     1      22.533   1.793  49.650  1.00  0.00     0.045 C 
HETATM   16  C7  UNL     1      21.451   1.714  50.407  1.00  0.00     0.007 C 
BRANCH  16  17
HETATM   17  C8  UNL     1      20.309   0.915  50.816  1.00  0.00     0.003 C 
HETATM   18  C9  UNL     1      19.785   0.192  51.756  1.00  0.00     0.036 C 
BRANCH  18  19
HETATM   19  C10 UNL     1      20.409  -0.087  53.037  1.00  0.00     0.067 A 
HETATM   20  C11 UNL     1      21.038  -1.090  53.621  1.00  0.00     0.036 A 
HETATM   21  C12 UNL     1      21.249  -0.346  54.867  1.00  0.00     0.206 A 
HETATM   22  O2  UNL     1      20.576   0.684  54.203  1.00  0.00    -0.348 OA
ENDBRANCH  18  19
ENDBRANCH  16  17
ENDBRANCH  14  15
ENDBRANCH  13  14
ENDBRANCH   8  13
ENDBRANCH   1   4
BRANCH   1  23
HETATM   23  C18 UNL     1      27.205  -2.411  52.453  1.00  0.00     0.317 C 
BRANCH  23  24
HETATM   24  N2  UNL     1      28.336  -3.094  53.063  1.00  0.00     0.083 N 
HETATM   25  H17 UNL     1      29.096  -3.182  52.355  1.00  0.00     0.313 HD
HETATM   26  H18 UNL     1      28.014  -4.059  53.297  1.00  0.00     0.313 HD
ENDBRANCH  23  24
ENDBRANCH   1  23
TORSDOF 9
ENDMDL
MODEL 2
REMARK VINA RESULT:      -7.1      3.735      6.379
REMARK  9 active torsions:
REMARK  status: ('A' for Active; 'I' for Inactive)
REMARK    1  A    between atoms: C3_3  and  O1_4 
REMARK    2  A    between atoms: C4_5  and  C5_6 
REMARK    3  A    between atoms: C5_6  and  S1_7 
REMARK    4  A    between atoms: S1_7  and  C6_8 
REMARK    5  A    between atoms: C7_9  and  C8_10 
REMARK    6  A    between atoms: C9_11  and  C10_12 
REMARK    7  A    between atoms: C15_18  and  C16_19 
REMARK    8  A    between atoms: C16_19  and  C18_22 
REMARK    9  A    between atoms: C18_22  and  N2_23 
ROOT
HETATM    1  C16 UNL     1      27.195  -0.975  52.788  1.00  0.00     0.061 C 
HETATM    2  C17 UNL     1      28.423  -0.748  53.558  1.00  0.00     0.098 C 
HETATM    3  N1  UNL     1      29.408  -0.546  54.184  1.00  0.00    -0.192 NA
ENDROOT
BRANCH   1   4
HETATM    4  C15 UNL     1      26.422   0.062  52.521  1.00  0.00    -0.009 A 
HETATM    5  C2  UNL     1      25.153   0.328  52.928  1.00  0.00    -0.013 A 
HETATM    6  C1  UNL     1      24.596  -0.568  53.705  1.00  0.00     0.047 C 
HETATM    7  C3  UNL     1      24.399   1.416  52.623  1.00  0.00     0.080 A 
HETATM    8  C4  UNL     1      24.981   2.360  51.812  1.00  0.00    -0.015 A 
HETATM    9  C13 UNL     1      26.264   2.169  51.354  1.00  0.00     0.011 A 
HETATM   10  C14 UNL     1      26.959   1.041  51.708  1.00  0.00     0.014 A 
BRANCH   7  11
HETATM   11  O1  UNL     1      23.111   1.569  53.105  1.00  0.00    -0.360 OA
HETATM   12  H3  UNL     1      22.603   0.757  53.454  1.00  0.00     0.217 HD
ENDBRANCH   7  11
BRANCH   8  13
HETATM   13  C5  UNL     1      24.237   3.574  51.427  1.00  0.00     0.120 C 
BRANCH  13  14
HETATM   14  S1  UNL     1      24.481   3.826  49.642  1.00  0.00    -0.137 SA
BRANCH  14  15
HETATM   15  C6  UNL     1      25.708   5.075  49.336  1.00  0.00     0.045 C 
HETATM   16  C7  UNL     1      26.898   4.721  48.881  1.00  0.00     0.007 C 
BRANCH  16  17
HETATM   17  C8  UNL     1      28.218   5.158  48.461  1.00  0.00     0.003 C 
HETATM   18  C9  UNL     1      28.983   6.174  48.209  1.00  0.00     0.036 C 
BRANCH  18  19
HETATM   19  C10 UNL     1      28.581   7.566  48.315  1.00  0.00     0.067 A 
HETATM   20  C11 UNL     1      28.814   8.702  47.687  1.00  0.00     0.036 A 
HETATM   21  C12 UNL     1      27.938   9.474  48.573  1.00  0.00     0.206 A 
HETATM   22  O2  UNL     1      27.725   8.244  49.203  1.00  0.00    -0.348 OA
ENDBRANCH  18  19
ENDBRANCH  16  17
ENDBRANCH  14  15
ENDBRANCH  13  14
ENDBRANCH   8  13
ENDBRANCH   1   4
BRANCH   1  23
HETATM   23  C18 UNL     1      27.169  -2.424  52.503  1.00  0.00     0.317 C 
BRANCH  23  24
HETATM   24  N2  UNL     1      28.338  -3.100  53.045  1.00  0.00     0.083 N 
HETATM   25  H17 UNL     1      28.029  -3.975  53.521  1.00  0.00     0.313 HD
HETATM   26  H18 UNL     1      28.738  -2.472  53.776  1.00  0.00     0.313 HD
ENDBRANCH  23  24
ENDBRANCH   1  23
TORSDOF 9
ENDMDL
MODEL 3
REMARK VINA RESULT:      -6.9      2.088      4.098
REMARK  9 active torsions:
REMARK  status: ('A' for Active; 'I' for Inactive)
REMARK    1  A    between atoms: C3_3  and  O1_4 
REMARK    2  A    between atoms: C4_5  and  C5_6 
REMARK    3  A    between atoms: C5_6  and  S1_7 
REMARK    4  A    between atoms: S1_7  and  C6_8 
REMARK    5  A    between atoms: C7_9  and  C8_10 
REMARK    6  A    between atoms: C9_11  and  C10_12 
REMARK    7  A    between atoms: C15_18  and  C16_19 
REMARK    8  A    between atoms: C16_19  and  C18_22 
REMARK    9  A    between atoms: C18_22  and  N2_23 
ROOT
HETATM    1  C16 UNL     1      25.757  -0.388  53.204  1.00  0.00     0.061 C 
HETATM    2  C17 UNL     1      26.581  -0.087  54.381  1.00  0.00     0.098 C 
HETATM    3  N1  UNL     1      27.228   0.163  55.341  1.00  0.00    -0.192 NA
ENDROOT
BRANCH   1   4
HETATM    4  C15 UNL     1      24.528   0.093  53.159  1.00  0.00    -0.009 A 
HETATM    5  C2  UNL     1      24.087   1.315  52.762  1.00  0.00    -0.013 A 
HETATM    6  C1  UNL     1      25.006   2.157  52.358  1.00  0.00     0.047 C 
HETATM    7  C3  UNL     1      22.805   1.762  52.734  1.00  0.00     0.080 A 
HETATM    8  C4  UNL     1      21.838   0.880  53.153  1.00  0.00    -0.015 A 
HETATM    9  C13 UNL     1      22.197  -0.379  53.573  1.00  0.00     0.011 A 
HETATM   10  C14 UNL     1      23.517  -0.753  53.571  1.00  0.00     0.014 A 
BRANCH   7  11
HETATM   11  O1  UNL     1      22.485   3.038  52.305  1.00  0.00    -0.360 OA
HETATM   12  H3  UNL     1      23.207   3.625  51.886  1.00  0.00     0.217 HD
ENDBRANCH   7  11
BRANCH   8  13
HETATM   13  C5  UNL     1      20.417   1.278  53.159  1.00  0.00     0.120 C 
BRANCH  13  14
HETATM   14  S1  UNL     1      19.562   0.286  51.897  1.00  0.00    -0.137 SA
BRANCH  14  15
HETATM   15  C6  UNL     1      19.735   1.016  50.287  1.00  0.00     0.045 C 
HETATM   16  C7  UNL     1      20.927   1.061  49.716  1.00  0.00     0.007 C 
BRANCH  16  17
HETATM   17  C8  UNL     1      21.706   1.464  48.558  1.00  0.00     0.003 C 
HETATM   18  C9  UNL     1      22.582   2.298  48.089  1.00  0.00     0.036 C 
BRANCH  18  19
HETATM   19  C10 UNL     1      23.191   3.378  48.846  1.00  0.00     0.067 A 
HETATM   20  C11 UNL     1      24.404   3.831  49.100  1.00  0.00     0.036 A 
HETATM   21  C12 UNL     1      23.913   4.928  49.939  1.00  0.00     0.206 A 
HETATM   22  O2  UNL     1      22.650   4.407  49.638  1.00  0.00    -0.348 OA
ENDBRANCH  18  19
ENDBRANCH  16  17
ENDBRANCH  14  15
ENDBRANCH  13  14
ENDBRANCH   8  13
ENDBRANCH   1   4
BRANCH   1  23
HETATM   23  C18 UNL     1      26.610  -1.215  52.327  1.00  0.00     0.317 C 
BRANCH  23  24
HETATM   24  N2  UNL     1      27.579  -1.987  53.090  1.00  0.00     0.083 N 
HETATM   25  H17 UNL     1      27.990  -1.375  53.827  1.00  0.00     0.313 HD
HETATM   26  H18 UNL     1      28.348  -2.241  52.431  1.00  0.00     0.313 HD
ENDBRANCH  23  24
ENDBRANCH   1  23
TORSDOF 9
ENDMDL
MODEL 4
REMARK VINA RESULT:      -6.7      2.007      2.863
REMARK  9 active torsions:
REMARK  status: ('A' for Active; 'I' for Inactive)
REMARK    1  A    between atoms: C3_3  and  O1_4 
REMARK    2  A    between atoms: C4_5  and  C5_6 
REMARK    3  A    between atoms: C5_6  and  S1_7 
REMARK    4  A    between atoms: S1_7  and  C6_8 
REMARK    5  A    between atoms: C7_9  and  C8_10 
REMARK    6  A    between atoms: C9_11  and  C10_12 
REMARK    7  A    between atoms: C15_18  and  C16_19 
REMARK    8  A    between atoms: C16_19  and  C18_22 
REMARK    9  A    between atoms: C18_22  and  N2_23 
ROOT
HETATM    1  C16 UNL     1      26.773   1.467  52.694  1.00  0.00     0.061 C 
HETATM    2  C17 UNL     1      27.883   2.006  53.489  1.00  0.00     0.098 C 
HETATM    3  N1  UNL     1      28.767   2.459  54.133  1.00  0.00    -0.192 NA
ENDROOT
BRANCH   1   4
HETATM    4  C15 UNL     1      25.798   2.285  52.341  1.00  0.00    -0.009 A 
HETATM    5  C2  UNL     1      25.585   2.927  51.163  1.00  0.00    -0.013 A 
HETATM    6  C1  UNL     1      26.470   2.712  50.221  1.00  0.00     0.047 C 
HETATM    7  C3  UNL     1      24.561   3.762  50.851  1.00  0.00     0.080 A 
HETATM    8  C4  UNL     1      23.629   3.988  51.835  1.00  0.00    -0.015 A 
HETATM    9  C13 UNL     1      23.768   3.377  53.059  1.00  0.00     0.011 A 
HETATM   10  C14 UNL     1      24.834   2.547  53.296  1.00  0.00     0.014 A 
BRANCH   7  11
HETATM   11  O1  UNL     1      24.458   4.357  49.605  1.00  0.00    -0.360 OA
HETATM   12  H3  UNL     1      24.200   5.341  49.536  1.00  0.00     0.217 HD
ENDBRANCH   7  11
BRANCH   8  13
HETATM   13  C5  UNL     1      22.483   4.882  51.586  1.00  0.00     0.120 C 
BRANCH  13  14
HETATM   14  S1  UNL     1      21.100   3.855  51.002  1.00  0.00    -0.137 SA
BRANCH  14  15
HETATM   15  C6  UNL     1      20.435   2.869  52.322  1.00  0.00     0.045 C 
HETATM   16  C7  UNL     1      20.111   1.608  52.094  1.00  0.00     0.007 C 
BRANCH  16  17
HETATM   17  C8  UNL     1      19.581   0.371  52.641  1.00  0.00     0.003 C 
HETATM   18  C9  UNL     1      19.809  -0.649  53.409  1.00  0.00     0.036 C 
BRANCH  18  19
HETATM   19  C10 UNL     1      21.042  -0.881  54.140  1.00  0.00     0.067 A 
HETATM   20  C11 UNL     1      22.221  -0.305  54.277  1.00  0.00     0.036 A 
HETATM   21  C12 UNL     1      22.705  -1.320  55.218  1.00  0.00     0.206 A 
HETATM   22  O2  UNL     1      21.441  -1.890  55.037  1.00  0.00    -0.348 OA
ENDBRANCH  18  19
ENDBRANCH  16  17
ENDBRANCH  14  15
ENDBRANCH  13  14
ENDBRANCH   8  13
ENDBRANCH   1   4
BRANCH   1  23
HETATM   23  C18 UNL     1      27.087   0.037  52.496  1.00  0.00     0.317 C 
BRANCH  23  24
HETATM   24  N2  UNL     1      27.436  -0.616  53.749  1.00  0.00     0.083 N 
HETATM   25  H17 UNL     1      27.202  -1.630  53.675  1.00  0.00     0.313 HD
HETATM   26  H18 UNL     1      26.819  -0.207  54.485  1.00  0.00     0.313 HD
ENDBRANCH  23  24
ENDBRANCH   1  23
TORSDOF 9
ENDMDL
MODEL 5
REMARK VINA RESULT:      -6.7      1.645      2.420
REMARK  9 active torsions:
REMARK  status: ('A' for Active; 'I' for Inactive)
REMARK    1  A    between atoms: C3_3  and  O1_4 
REMARK    2  A    between atoms: C4_5  and  C5_6 
REMARK    3  A    between atoms: C5_6  and  S1_7 
REMARK    4  A    between atoms: S1_7  and  C6_8 
REMARK    5  A    between atoms: C7_9  and  C8_10 
REMARK    6  A    between atoms: C9_11  and  C10_12 
REMARK    7  A    between atoms: C15_18  and  C16_19 
REMARK    8  A    between atoms: C16_19  and  C18_22 
REMARK    9  A    between atoms: C18_22  and  N2_23 
ROOT
HETATM    1  C16 UNL     1      26.536   0.092  53.609  1.00  0.00     0.061 C 
HETATM    2  C17 UNL     1      26.866  -1.250  53.113  1.00  0.00     0.098 C 
HETATM    3  N1  UNL     1      27.126  -2.326  52.694  1.00  0.00    -0.192 NA
ENDROOT
BRANCH   1   4
HETATM    4  C15 UNL     1      25.866   0.907  52.815  1.00  0.00    -0.009 A 
HETATM    5  C2  UNL     1      26.276   2.037  52.182  1.00  0.00    -0.013 A 
HETATM    6  C1  UNL     1      27.524   2.386  52.375  1.00  0.00     0.047 C 
HETATM    7  C3  UNL     1      25.543   2.842  51.371  1.00  0.00     0.080 A 
HETATM    8  C4  UNL     1      24.234   2.477  51.162  1.00  0.00    -0.015 A 
HETATM    9  C13 UNL     1      23.736   1.346  51.766  1.00  0.00     0.011 A 
HETATM   10  C14 UNL     1      24.544   0.585  52.573  1.00  0.00     0.014 A 
BRANCH   7  11
HETATM   11  O1  UNL     1      26.082   3.972  50.783  1.00  0.00    -0.360 OA
HETATM   12  H3  UNL     1      25.974   4.878  51.238  1.00  0.00     0.217 HD
ENDBRANCH   7  11
BRANCH   8  13
HETATM   13  C5  UNL     1      23.361   3.292  50.297  1.00  0.00     0.120 C 
BRANCH  13  14
HETATM   14  S1  UNL     1      22.367   4.368  51.376  1.00  0.00    -0.137 SA
BRANCH  14  15
HETATM   15  C6  UNL     1      20.805   3.614  51.764  1.00  0.00     0.045 C 
HETATM   16  C7  UNL     1      20.751   2.316  52.007  1.00  0.00     0.007 C 
BRANCH  16  17
HETATM   17  C8  UNL     1      19.916   1.176  52.347  1.00  0.00     0.003 C 
HETATM   18  C9  UNL     1      19.829   0.071  53.019  1.00  0.00     0.036 C 
BRANCH  18  19
HETATM   19  C10 UNL     1      20.877  -0.475  53.864  1.00  0.00     0.067 A 
HETATM   20  C11 UNL     1      21.644  -1.547  53.901  1.00  0.00     0.036 A 
HETATM   21  C12 UNL     1      22.330  -1.122  55.125  1.00  0.00     0.206 A 
HETATM   22  O2  UNL     1      21.493  -0.005  55.039  1.00  0.00    -0.348 OA
ENDBRANCH  18  19
ENDBRANCH  16  17
ENDBRANCH  14  15
ENDBRANCH  13  14
ENDBRANCH   8  13
ENDBRANCH   1   4
BRANCH   1  23
HETATM   23  C18 UNL     1      27.095   0.156  54.975  1.00  0.00     0.317 C 
BRANCH  23  24
HETATM   24  N2  UNL     1      28.490  -0.255  55.006  1.00  0.00     0.083 N 
HETATM   25  H17 UNL     1      28.698  -0.802  54.143  1.00  0.00     0.313 HD
HETATM   26  H18 UNL     1      28.595  -0.903  55.818  1.00  0.00     0.313 HD
ENDBRANCH  23  24
ENDBRANCH   1  23
TORSDOF 9
ENDMDL
MODEL 6
REMARK VINA RESULT:      -6.7      2.168      4.315
REMARK  9 active torsions:
REMARK  status: ('A' for Active; 'I' for Inactive)
REMARK    1  A    between atoms: C3_3  and  O1_4 
REMARK    2  A    between atoms: C4_5  and  C5_6 
REMARK    3  A    between atoms: C5_6  and  S1_7 
REMARK    4  A    between atoms: S1_7  and  C6_8 
REMARK    5  A    between atoms: C7_9  and  C8_10 
REMARK    6  A    between atoms: C9_11  and  C10_12 
REMARK    7  A    between atoms: C15_18  and  C16_19 
REMARK    8  A    between atoms: C16_19  and  C18_22 
REMARK    9  A    between atoms: C18_22  and  N2_23 
ROOT
HETATM    1  C16 UNL     1      25.421  -0.238  54.033  1.00  0.00     0.061 C 
HETATM    2  C17 UNL     1      26.146  -0.950  52.974  1.00  0.00     0.098 C 
HETATM    3  N1  UNL     1      26.714  -1.523  52.106  1.00  0.00    -0.192 NA
ENDROOT
BRANCH   1   4
HETATM    4  C15 UNL     1      24.140   0.025  53.849  1.00  0.00    -0.009 A 
HETATM    5  C2  UNL     1      23.048  -0.500  54.463  1.00  0.00    -0.013 A 
HETATM    6  C1  UNL     1      23.281  -1.405  55.382  1.00  0.00     0.047 C 
HETATM    7  C3  UNL     1      21.745  -0.193  54.236  1.00  0.00     0.080 A 
HETATM    8  C4  UNL     1      21.496   0.758  53.275  1.00  0.00    -0.015 A 
HETATM    9  C13 UNL     1      22.545   1.341  52.604  1.00  0.00     0.011 A 
HETATM   10  C14 UNL     1      23.835   0.974  52.893  1.00  0.00     0.014 A 
BRANCH   7  11
HETATM   11  O1  UNL     1      20.718  -0.804  54.934  1.00  0.00    -0.360 OA
HETATM   12  H3  UNL     1      20.819  -0.972  55.934  1.00  0.00     0.217 HD
ENDBRANCH   7  11
BRANCH   8  13
HETATM   13  C5  UNL     1      20.111   1.155  52.959  1.00  0.00     0.120 C 
BRANCH  13  14
HETATM   14  S1  UNL     1      19.555   0.141  51.555  1.00  0.00    -0.137 SA
BRANCH  14  15
HETATM   15  C6  UNL     1      19.733   1.022  50.023  1.00  0.00     0.045 C 
HETATM   16  C7  UNL     1      20.925   1.107  49.455  1.00  0.00     0.007 C 
BRANCH  16  17
HETATM   17  C8  UNL     1      21.706   1.610  48.338  1.00  0.00     0.003 C 
HETATM   18  C9  UNL     1      22.640   2.427  47.963  1.00  0.00     0.036 C 
BRANCH  18  19
HETATM   19  C10 UNL     1      23.362   3.328  48.844  1.00  0.00     0.067 A 
HETATM   20  C11 UNL     1      24.496   3.337  49.518  1.00  0.00     0.036 A 
HETATM   21  C12 UNL     1      24.266   4.680  50.058  1.00  0.00     0.206 A 
HETATM   22  O2  UNL     1      23.076   4.619  49.326  1.00  0.00    -0.348 OA
ENDBRANCH  18  19
ENDBRANCH  16  17
ENDBRANCH  14  15
ENDBRANCH  13  14
ENDBRANCH   8  13
ENDBRANCH   1   4
BRANCH   1  23
HETATM   23  C18 UNL     1      26.416   0.004  55.097  1.00  0.00     0.317 C 
BRANCH  23  24
HETATM   24  N2  UNL     1      27.758  -0.368  54.676  1.00  0.00     0.083 N 
HETATM   25  H17 UNL     1      27.756  -0.516  53.643  1.00  0.00     0.313 HD
HETATM   26  H18 UNL     1      27.970  -1.288  55.122  1.00  0.00     0.313 HD
ENDBRANCH  23  24
ENDBRANCH   1  23
TORSDOF 9
ENDMDL
MODEL 7
REMARK VINA RESULT:      -6.6      2.237      4.621
REMARK  9 active torsions:
REMARK  status: ('A' for Active; 'I' for Inactive)
REMARK    1  A    between atoms: C3_3  and  O1_4 
REMARK    2  A    between atoms: C4_5  and  C5_6 
REMARK    3  A    between atoms: C5_6  and  S1_7 
REMARK    4  A    between atoms: S1_7  and  C6_8 
REMARK    5  A    between atoms: C7_9  and  C8_10 
REMARK    6  A    between atoms: C9_11  and  C10_12 
REMARK    7  A    between atoms: C15_18  and  C16_19 
REMARK    8  A    between atoms: C16_19  and  C18_22 
REMARK    9  A    between atoms: C18_22  and  N2_23 
ROOT
HETATM    1  C16 UNL     1      25.411  -0.262  53.768  1.00  0.00     0.061 C 
HETATM    2  C17 UNL     1      26.219  -1.224  53.010  1.00  0.00     0.098 C 
HETATM    3  N1  UNL     1      26.854  -2.006  52.386  1.00  0.00    -0.192 NA
ENDROOT
BRANCH   1   4
HETATM    4  C15 UNL     1      24.104  -0.255  53.581  1.00  0.00    -0.009 A 
HETATM    5  C2  UNL     1      23.112  -0.777  54.348  1.00  0.00    -0.013 A 
HETATM    6  C1  UNL     1      23.491  -1.382  55.448  1.00  0.00     0.047 C 
HETATM    7  C3  UNL     1      21.776  -0.742  54.109  1.00  0.00     0.080 A 
HETATM    8  C4  UNL     1      21.374  -0.105  52.960  1.00  0.00    -0.015 A 
HETATM    9  C13 UNL     1      22.313   0.452  52.124  1.00  0.00     0.011 A 
HETATM   10  C14 UNL     1      23.646   0.373  52.438  1.00  0.00     0.014 A 
BRANCH   7  11
HETATM   11  O1  UNL     1      20.863  -1.316  54.977  1.00  0.00    -0.360 OA
HETATM   12  H3  UNL     1      21.173  -1.642  55.892  1.00  0.00     0.217 HD
ENDBRANCH   7  11
BRANCH   8  13
HETATM   13  C5  UNL     1      19.942  -0.019  52.616  1.00  0.00     0.120 C 
BRANCH  13  14
HETATM   14  S1  UNL     1      19.704   1.487  51.624  1.00  0.00    -0.137 SA
BRANCH  14  15
HETATM   15  C6  UNL     1      20.280   2.924  52.497  1.00  0.00     0.045 C 
HETATM   16  C7  UNL     1      21.317   3.598  52.030  1.00  0.00     0.007 C 
BRANCH  16  17
HETATM   17  C8  UNL     1      22.214   4.726  52.209  1.00  0.00     0.003 C 
HETATM   18  C9  UNL     1      23.357   5.251  51.891  1.00  0.00     0.036 C 
BRANCH  18  19
HETATM   19  C10 UNL     1      24.331   4.648  50.998  1.00  0.00     0.067 A 
HETATM   20  C11 UNL     1      25.021   3.527  50.917  1.00  0.00     0.036 A 
HETATM   21  C12 UNL     1      25.680   3.920  49.668  1.00  0.00     0.206 A 
HETATM   22  O2  UNL     1      24.926   5.090  49.801  1.00  0.00    -0.348 OA
ENDBRANCH  18  19
ENDBRANCH  16  17
ENDBRANCH  14  15
ENDBRANCH  13  14
ENDBRANCH   8  13
ENDBRANCH   1   4
BRANCH   1  23
HETATM   23  C18 UNL     1      26.372   0.492  54.599  1.00  0.00     0.317 C 
BRANCH  23  24
HETATM   24  N2  UNL     1      27.490  -0.340  55.018  1.00  0.00     0.083 N 
HETATM   25  H17 UNL     1      27.610  -1.112  54.327  1.00  0.00     0.313 HD
HETATM   26  H18 UNL     1      27.219  -0.774  55.927  1.00  0.00     0.313 HD
ENDBRANCH  23  24
ENDBRANCH   1  23
TORSDOF 9
ENDMDL
MODEL 8
REMARK VINA RESULT:      -6.3      5.146      7.357
REMARK  9 active torsions:
REMARK  status: ('A' for Active; 'I' for Inactive)
REMARK    1  A    between atoms: C3_3  and  O1_4 
REMARK    2  A    between atoms: C4_5  and  C5_6 
REMARK    3  A    between atoms: C5_6  and  S1_7 
REMARK    4  A    between atoms: S1_7  and  C6_8 
REMARK    5  A    between atoms: C7_9  and  C8_10 
REMARK    6  A    between atoms: C9_11  and  C10_12 
REMARK    7  A    between atoms: C15_18  and  C16_19 
REMARK    8  A    between atoms: C16_19  and  C18_22 
REMARK    9  A    between atoms: C18_22  and  N2_23 
ROOT
HETATM    1  C16 UNL     1      27.805   7.672  47.812  1.00  0.00     0.061 C 
HETATM    2  C17 UNL     1      28.300   8.683  48.754  1.00  0.00     0.098 C 
HETATM    3  N1  UNL     1      28.693   9.487  49.530  1.00  0.00    -0.192 NA
ENDROOT
BRANCH   1   4
HETATM    4  C15 UNL     1      27.063   6.686  48.282  1.00  0.00    -0.009 A 
HETATM    5  C2  UNL     1      27.409   5.411  48.598  1.00  0.00    -0.013 A 
HETATM    6  C1  UNL     1      28.667   5.093  48.416  1.00  0.00     0.047 C 
HETATM    7  C3  UNL     1      26.602   4.432  49.082  1.00  0.00     0.080 A 
HETATM    8  C4  UNL     1      25.283   4.763  49.278  1.00  0.00    -0.015 A 
HETATM    9  C13 UNL     1      24.847   6.033  48.983  1.00  0.00     0.011 A 
HETATM   10  C14 UNL     1      25.727   6.966  48.497  1.00  0.00     0.014 A 
BRANCH   7  11
HETATM   11  O1  UNL     1      27.081   3.165  49.365  1.00  0.00    -0.360 OA
HETATM   12  H3  UNL     1      27.277   2.904  50.331  1.00  0.00     0.217 HD
ENDBRANCH   7  11
BRANCH   8  13
HETATM   13  C5  UNL     1      24.332   3.763  49.799  1.00  0.00     0.120 C 
BRANCH  13  14
HETATM   14  S1  UNL     1      23.860   4.275  51.479  1.00  0.00    -0.137 SA
BRANCH  14  15
HETATM   15  C6  UNL     1      23.310   2.884  52.439  1.00  0.00     0.045 C 
HETATM   16  C7  UNL     1      24.099   1.832  52.573  1.00  0.00     0.007 C 
BRANCH  16  17
HETATM   17  C8  UNL     1      24.272   0.507  53.143  1.00  0.00     0.003 C 
HETATM   18  C9  UNL     1      25.093  -0.316  53.719  1.00  0.00     0.036 C 
BRANCH  18  19
HETATM   19  C10 UNL     1      26.481  -0.025  54.031  1.00  0.00     0.067 A 
HETATM   20  C11 UNL     1      27.486   0.640  53.493  1.00  0.00     0.036 A 
HETATM   21  C12 UNL     1      28.405   0.309  54.586  1.00  0.00     0.206 A 
HETATM   22  O2  UNL     1      27.309  -0.381  55.112  1.00  0.00    -0.348 OA
ENDBRANCH  18  19
ENDBRANCH  16  17
ENDBRANCH  14  15
ENDBRANCH  13  14
ENDBRANCH   8  13
ENDBRANCH   1   4
BRANCH   1  23
HETATM   23  C18 UNL     1      28.321   8.079  46.489  1.00  0.00     0.317 C 
BRANCH  23  24
HETATM   24  N2  UNL     1      29.742   8.388  46.537  1.00  0.00     0.083 N 
HETATM   25  H17 UNL     1      30.142   7.992  47.416  1.00  0.00     0.313 HD
HETATM   26  H18 UNL     1      29.823   9.427  46.598  1.00  0.00     0.313 HD
ENDBRANCH  23  24
ENDBRANCH   1  23
TORSDOF 9
ENDMDL
MODEL 9
REMARK VINA RESULT:      -6.2      2.870      5.220
REMARK  9 active torsions:
REMARK  status: ('A' for Active; 'I' for Inactive)
REMARK    1  A    between atoms: C3_3  and  O1_4 
REMARK    2  A    between atoms: C4_5  and  C5_6 
REMARK    3  A    between atoms: C5_6  and  S1_7 
REMARK    4  A    between atoms: S1_7  and  C6_8 
REMARK    5  A    between atoms: C7_9  and  C8_10 
REMARK    6  A    between atoms: C9_11  and  C10_12 
REMARK    7  A    between atoms: C15_18  and  C16_19 
REMARK    8  A    between atoms: C16_19  and  C18_22 
REMARK    9  A    between atoms: C18_22  and  N2_23 
ROOT
HETATM    1  C16 UNL     1      25.833  -0.101  53.122  1.00  0.00     0.061 C 
HETATM    2  C17 UNL     1      26.843   0.594  53.930  1.00  0.00     0.098 C 
HETATM    3  N1  UNL     1      27.643   1.167  54.588  1.00  0.00    -0.192 NA
ENDROOT
BRANCH   1   4
HETATM    4  C15 UNL     1      24.643   0.456  52.993  1.00  0.00    -0.009 A 
HETATM    5  C2  UNL     1      23.452   0.102  53.543  1.00  0.00    -0.013 A 
HETATM    6  C1  UNL     1      23.468  -0.949  54.326  1.00  0.00     0.047 C 
HETATM    7  C3  UNL     1      22.251   0.713  53.377  1.00  0.00     0.080 A 
HETATM    8  C4  UNL     1      22.231   1.818  52.560  1.00  0.00    -0.015 A 
HETATM    9  C13 UNL     1      23.392   2.245  51.961  1.00  0.00     0.011 A 
HETATM   10  C14 UNL     1      24.567   1.571  52.180  1.00  0.00     0.014 A 
BRANCH   7  11
HETATM   11  O1  UNL     1      21.104   0.250  53.998  1.00  0.00    -0.360 OA
HETATM   12  H3  UNL     1      21.179  -0.435  54.749  1.00  0.00     0.217 HD
ENDBRANCH   7  11
BRANCH   8  13
HETATM   13  C5  UNL     1      20.970   2.545  52.319  1.00  0.00     0.120 C 
BRANCH  13  14
HETATM   14  S1  UNL     1      21.196   3.559  50.826  1.00  0.00    -0.137 SA
BRANCH  14  15
HETATM   15  C6  UNL     1      21.641   5.226  51.249  1.00  0.00     0.045 C 
HETATM   16  C7  UNL     1      22.837   5.684  50.921  1.00  0.00     0.007 C 
BRANCH  16  17
HETATM   17  C8  UNL     1      23.759   6.807  50.950  1.00  0.00     0.003 C 
HETATM   18  C9  UNL     1      24.909   7.262  50.561  1.00  0.00     0.036 C 
BRANCH  18  19
HETATM   19  C10 UNL     1      25.863   6.530  49.746  1.00  0.00     0.067 A 
HETATM   20  C11 UNL     1      26.091   5.279  49.395  1.00  0.00     0.036 A 
HETATM   21  C12 UNL     1      27.256   5.629  48.578  1.00  0.00     0.206 A 
HETATM   22  O2  UNL     1      26.971   6.937  48.981  1.00  0.00    -0.348 OA
ENDBRANCH  18  19
ENDBRANCH  16  17
ENDBRANCH  14  15
ENDBRANCH  13  14
ENDBRANCH   8  13
ENDBRANCH   1   4
BRANCH   1  23
HETATM   23  C18 UNL     1      26.491  -1.332  52.640  1.00  0.00     0.317 C 
BRANCH  23  24
HETATM   24  N2  UNL     1      27.736  -1.590  53.348  1.00  0.00     0.083 N 
HETATM   25  H17 UNL     1      27.839  -2.619  53.481  1.00  0.00     0.313 HD
HETATM   26  H18 UNL     1      27.639  -1.162  54.295  1.00  0.00     0.313 HD
ENDBRANCH  23  24
ENDBRANCH   1  23
TORSDOF 9
ENDMDL
