MODEL 1
REMARK VINA RESULT:      -8.4      0.000      0.000
REMARK  6 active torsions:
REMARK  status: ('A' for Active; 'I' for Inactive)
REMARK    1  A    between atoms: N1_1  and  C1_2 
REMARK    2  A    between atoms: C1_2  and  N2_3 
REMARK    3  A    between atoms: C5_7  and  C6_8 
REMARK    4  A    between atoms: C13_18  and  O2_19 
REMARK    5  A    between atoms: O2_19  and  C14_20 
REMARK    6  A    between atoms: C16_23  and  N5_24 
ROOT
HETATM    1  C6  UNL     1      24.782   0.743  52.489  1.00  0.00     0.060 A 
HETATM    2  N3  UNL     1      24.549   1.546  51.427  1.00  0.00    -0.245 NA
HETATM    3  C7  UNL     1      23.384   1.903  50.929  1.00  0.00     0.234 A 
HETATM    4  N4  UNL     1      22.210   1.497  51.437  1.00  0.00    -0.241 NA
HETATM    5  C8  UNL     1      22.298   0.674  52.525  1.00  0.00     0.072 A 
HETATM    6  C9  UNL     1      23.545   0.329  53.008  1.00  0.00     0.020 A 
HETATM    7  C10 UNL     1      23.881  -0.528  54.166  1.00  0.00     0.040 C 
HETATM    8  C11 UNL     1      23.211  -1.274  55.015  1.00  0.00     0.136 C 
HETATM    9  O1  UNL     1      21.832  -1.474  55.042  1.00  0.00    -0.357 OA
HETATM   10  C12 UNL     1      20.799  -1.773  54.122  1.00  0.00     0.239 C 
HETATM   11  C13 UNL     1      20.256  -0.558  53.491  1.00  0.00     0.082 C 
HETATM   12  C15 UNL     1      20.925   0.391  52.861  1.00  0.00     0.067 C 
ENDROOT
BRANCH   1  13
HETATM   13  C5  UNL     1      26.065   0.334  53.053  1.00  0.00     0.124 C 
HETATM   14  C4  UNL     1      26.680  -0.941  52.552  1.00  0.00    -0.014 C 
HETATM   15  C3  UNL     1      27.828  -1.263  53.084  1.00  0.00    -0.000 C 
HETATM   16  C2  UNL     1      28.545  -0.486  54.112  1.00  0.00     0.304 C 
HETATM   17  N2  UNL     1      28.019   0.816  54.332  1.00  0.00     0.153 N 
HETATM   18  C16 UNL     1      26.578   0.929  54.281  1.00  0.00     0.467 C 
BRANCH  17  19
HETATM   19  C1  UNL     1      28.706   1.816  53.594  1.00  0.00     0.540 C 
BRANCH  19  20
HETATM   20  N1  UNL     1      29.792   2.422  54.318  1.00  0.00     0.106 N 
HETATM   21  H1  UNL     1      30.709   1.941  54.198  1.00  0.00     0.315 HD
HETATM   22  H2  UNL     1      29.558   2.658  55.284  1.00  0.00     0.315 HD
ENDBRANCH  19  20
ENDBRANCH  17  19
BRANCH  18  23
HETATM   23  N5  UNL     1      26.329   2.386  54.184  1.00  0.00     0.113 N 
HETATM   24  H18 UNL     1      25.302   2.567  54.084  1.00  0.00     0.315 HD
HETATM   25  H19 UNL     1      26.758   2.795  53.328  1.00  0.00     0.315 HD
ENDBRANCH  18  23
ENDBRANCH   1  13
BRANCH  11  26
HETATM   26  O2  UNL     1      18.913  -0.587  53.677  1.00  0.00    -0.288 OA
BRANCH  26  27
HETATM   27  C14 UNL     1      17.936  -1.268  53.040  1.00  0.00     0.403 C 
HETATM   28  O3  UNL     1      17.401  -2.328  53.388  1.00  0.00    -0.276 OA
ENDBRANCH  26  27
ENDBRANCH  11  26
TORSDOF 6
ENDMDL
MODEL 2
REMARK VINA RESULT:      -7.9      2.679      3.441
REMARK  6 active torsions:
REMARK  status: ('A' for Active; 'I' for Inactive)
REMARK    1  A    between atoms: N1_1  and  C1_2 
REMARK    2  A    between atoms: C1_2  and  N2_3 
REMARK    3  A    between atoms: C5_7  and  C6_8 
REMARK    4  A    between atoms: C13_18  and  O2_19 
REMARK    5  A    between atoms: O2_19  and  C14_20 
REMARK    6  A    between atoms: C16_23  and  N5_24 
ROOT
HETATM    1  C6  UNL     1      24.508  -0.326  53.818  1.00  0.00     0.060 A 
HETATM    2  N3  UNL     1      23.626  -0.981  54.605  1.00  0.00    -0.245 NA
HETATM    3  C7  UNL     1      22.324  -0.805  54.672  1.00  0.00     0.234 A 
HETATM    4  N4  UNL     1      21.662   0.094  53.928  1.00  0.00    -0.241 NA
HETATM    5  C8  UNL     1      22.437   0.833  53.079  1.00  0.00     0.072 A 
HETATM    6  C9  UNL     1      23.800   0.610  53.048  1.00  0.00     0.020 A 
HETATM    7  C10 UNL     1      24.824   1.272  52.210  1.00  0.00     0.040 C 
HETATM    8  C11 UNL     1      24.844   2.267  51.352  1.00  0.00     0.136 C 
HETATM    9  O1  UNL     1      23.762   3.056  50.964  1.00  0.00    -0.357 OA
HETATM   10  C12 UNL     1      22.694   3.746  51.585  1.00  0.00     0.239 C 
HETATM   11  C13 UNL     1      21.528   2.874  51.803  1.00  0.00     0.082 C 
HETATM   12  C15 UNL     1      21.499   1.705  52.418  1.00  0.00     0.067 C 
ENDROOT
BRANCH   1  13
HETATM   13  C5  UNL     1      25.955  -0.504  53.732  1.00  0.00     0.124 C 
HETATM   14  C4  UNL     1      26.490  -1.416  52.667  1.00  0.00    -0.014 C 
HETATM   15  C3  UNL     1      27.790  -1.540  52.629  1.00  0.00    -0.000 C 
HETATM   16  C2  UNL     1      28.743  -0.867  53.531  1.00  0.00     0.304 C 
HETATM   17  N2  UNL     1      28.167   0.160  54.327  1.00  0.00     0.153 N 
HETATM   18  C16 UNL     1      26.834  -0.102  54.824  1.00  0.00     0.467 C 
BRANCH  17  19
HETATM   19  C1  UNL     1      28.331   1.451  53.758  1.00  0.00     0.540 C 
BRANCH  19  20
HETATM   20  N1  UNL     1      29.430   2.191  54.316  1.00  0.00     0.106 N 
HETATM   21  H1  UNL     1      30.372   1.833  54.046  1.00  0.00     0.315 HD
HETATM   22  H2  UNL     1      29.322   2.395  55.312  1.00  0.00     0.315 HD
ENDBRANCH  19  20
ENDBRANCH  17  19
BRANCH  18  23
HETATM   23  N5  UNL     1      26.353   1.218  55.294  1.00  0.00     0.113 N 
HETATM   24  H18 UNL     1      25.309   1.210  55.375  1.00  0.00     0.315 HD
HETATM   25  H19 UNL     1      26.562   1.972  54.606  1.00  0.00     0.315 HD
ENDBRANCH  18  23
ENDBRANCH   1  13
BRANCH  11  26
HETATM   26  O2  UNL     1      20.461   3.498  51.244  1.00  0.00    -0.288 OA
BRANCH  26  27
HETATM   27  C14 UNL     1      19.139   3.222  51.287  1.00  0.00     0.403 C 
HETATM   28  O3  UNL     1      18.288   3.706  52.043  1.00  0.00    -0.276 OA
ENDBRANCH  26  27
ENDBRANCH  11  26
TORSDOF 6
ENDMDL
MODEL 3
REMARK VINA RESULT:      -7.9      3.316      4.463
REMARK  6 active torsions:
REMARK  status: ('A' for Active; 'I' for Inactive)
REMARK    1  A    between atoms: N1_1  and  C1_2 
REMARK    2  A    between atoms: C1_2  and  N2_3 
REMARK    3  A    between atoms: C5_7  and  C6_8 
REMARK    4  A    between atoms: C13_18  and  O2_19 
REMARK    5  A    between atoms: O2_19  and  C14_20 
REMARK    6  A    between atoms: C16_23  and  N5_24 
ROOT
HETATM    1  C6  UNL     1      25.096   0.069  52.956  1.00  0.00     0.060 A 
HETATM    2  N3  UNL     1      23.963  -0.511  53.410  1.00  0.00    -0.245 NA
HETATM    3  C7  UNL     1      22.726  -0.264  53.034  1.00  0.00     0.234 A 
HETATM    4  N4  UNL     1      22.408   0.644  52.099  1.00  0.00    -0.241 NA
HETATM    5  C8  UNL     1      23.466   1.312  51.549  1.00  0.00     0.072 A 
HETATM    6  C9  UNL     1      24.744   1.015  51.980  1.00  0.00     0.020 A 
HETATM    7  C10 UNL     1      26.028   1.594  51.526  1.00  0.00     0.040 C 
HETATM    8  C11 UNL     1      26.395   2.558  50.712  1.00  0.00     0.136 C 
HETATM    9  O1  UNL     1      25.556   3.390  49.973  1.00  0.00    -0.357 OA
HETATM   10  C12 UNL     1      24.385   4.156  50.189  1.00  0.00     0.239 C 
HETATM   11  C13 UNL     1      23.163   3.354  50.015  1.00  0.00     0.082 C 
HETATM   12  C15 UNL     1      22.858   2.210  50.599  1.00  0.00     0.067 C 
ENDROOT
BRANCH   1  13
HETATM   13  C5  UNL     1      26.474  -0.188  53.364  1.00  0.00     0.124 C 
HETATM   14  C4  UNL     1      27.235  -1.258  52.635  1.00  0.00    -0.014 C 
HETATM   15  C3  UNL     1      28.464  -1.448  53.034  1.00  0.00    -0.000 C 
HETATM   16  C2  UNL     1      29.139  -0.709  54.117  1.00  0.00     0.304 C 
HETATM   17  N2  UNL     1      28.435   0.440  54.566  1.00  0.00     0.153 N 
HETATM   18  C16 UNL     1      26.996   0.310  54.630  1.00  0.00     0.467 C 
BRANCH  17  19
HETATM   19  C1  UNL     1      28.883   1.635  53.944  1.00  0.00     0.540 C 
BRANCH  19  20
HETATM   20  N1  UNL     1      29.907   2.322  54.685  1.00  0.00     0.106 N 
HETATM   21  H1  UNL     1      29.867   2.171  55.715  1.00  0.00     0.315 HD
HETATM   22  H2  UNL     1      30.032   3.296  54.402  1.00  0.00     0.315 HD
ENDBRANCH  19  20
ENDBRANCH  17  19
BRANCH  18  23
HETATM   23  N5  UNL     1      26.509   1.703  54.772  1.00  0.00     0.113 N 
HETATM   24  H18 UNL     1      27.276   2.313  55.142  1.00  0.00     0.315 HD
HETATM   25  H19 UNL     1      25.747   1.775  55.477  1.00  0.00     0.315 HD
ENDBRANCH  18  23
ENDBRANCH   1  13
BRANCH  11  26
HETATM   26  O2  UNL     1      22.384   4.016  49.122  1.00  0.00    -0.288 OA
BRANCH  26  27
HETATM   27  C14 UNL     1      22.179   3.827  47.800  1.00  0.00     0.403 C 
HETATM   28  O3  UNL     1      22.286   2.772  47.161  1.00  0.00    -0.276 OA
ENDBRANCH  26  27
ENDBRANCH  11  26
TORSDOF 6
ENDMDL
MODEL 4
REMARK VINA RESULT:      -7.7      1.922      3.016
REMARK  6 active torsions:
REMARK  status: ('A' for Active; 'I' for Inactive)
REMARK    1  A    between atoms: N1_1  and  C1_2 
REMARK    2  A    between atoms: C1_2  and  N2_3 
REMARK    3  A    between atoms: C5_7  and  C6_8 
REMARK    4  A    between atoms: C13_18  and  O2_19 
REMARK    5  A    between atoms: O2_19  and  C14_20 
REMARK    6  A    between atoms: C16_23  and  N5_24 
ROOT
HETATM    1  C6  UNL     1      24.585  -0.340  54.252  1.00  0.00     0.060 A 
HETATM    2  N3  UNL     1      24.512  -1.142  55.338  1.00  0.00    -0.245 NA
HETATM    3  C7  UNL     1      23.451  -1.759  55.812  1.00  0.00     0.234 A 
HETATM    4  N4  UNL     1      22.236  -1.672  55.250  1.00  0.00    -0.241 NA
HETATM    5  C8  UNL     1      22.163  -0.887  54.133  1.00  0.00     0.072 A 
HETATM    6  C9  UNL     1      23.307  -0.261  53.678  1.00  0.00     0.020 A 
HETATM    7  C10 UNL     1      23.470   0.616  52.497  1.00  0.00     0.040 C 
HETATM    8  C11 UNL     1      22.673   1.147  51.597  1.00  0.00     0.136 C 
HETATM    9  O1  UNL     1      21.290   1.001  51.517  1.00  0.00    -0.357 OA
HETATM   10  C12 UNL     1      20.177   1.063  52.391  1.00  0.00     0.239 C 
HETATM   11  C13 UNL     1      19.924  -0.227  53.052  1.00  0.00     0.082 C 
HETATM   12  C15 UNL     1      20.778  -0.962  53.742  1.00  0.00     0.067 C 
ENDROOT
BRANCH   1  13
HETATM   13  C5  UNL     1      25.750   0.356  53.714  1.00  0.00     0.124 C 
HETATM   14  C4  UNL     1      25.881   1.826  53.987  1.00  0.00    -0.014 C 
HETATM   15  C3  UNL     1      26.941   2.403  53.488  1.00  0.00    -0.000 C 
HETATM   16  C2  UNL     1      27.991   1.732  52.699  1.00  0.00     0.304 C 
HETATM   17  N2  UNL     1      27.914   0.313  52.712  1.00  0.00     0.153 N 
HETATM   18  C16 UNL     1      26.580  -0.245  52.677  1.00  0.00     0.467 C 
BRANCH  17  19
HETATM   19  C1  UNL     1      28.762  -0.273  53.689  1.00  0.00     0.540 C 
BRANCH  19  20
HETATM   20  N1  UNL     1      30.122   0.190  53.623  1.00  0.00     0.106 N 
HETATM   21  H1  UNL     1      30.339   0.984  54.262  1.00  0.00     0.315 HD
HETATM   22  H2  UNL     1      30.468   0.306  52.667  1.00  0.00     0.315 HD
ENDBRANCH  19  20
ENDBRANCH  17  19
BRANCH  18  23
HETATM   23  N5  UNL     1      26.768  -1.666  53.052  1.00  0.00     0.113 N 
HETATM   24  H18 UNL     1      27.542  -2.086  52.485  1.00  0.00     0.315 HD
HETATM   25  H19 UNL     1      25.929  -2.239  52.825  1.00  0.00     0.315 HD
ENDBRANCH  18  23
ENDBRANCH   1  13
BRANCH  11  26
HETATM   26  O2  UNL     1      18.623  -0.537  52.821  1.00  0.00    -0.288 OA
BRANCH  26  27
HETATM   27  C14 UNL     1      17.769  -1.355  53.474  1.00  0.00     0.403 C 
HETATM   28  O3  UNL     1      17.417  -2.496  53.150  1.00  0.00    -0.276 OA
ENDBRANCH  26  27
ENDBRANCH  11  26
TORSDOF 6
ENDMDL
MODEL 5
REMARK VINA RESULT:      -7.7      1.879      2.280
REMARK  6 active torsions:
REMARK  status: ('A' for Active; 'I' for Inactive)
REMARK    1  A    between atoms: N1_1  and  C1_2 
REMARK    2  A    between atoms: C1_2  and  N2_3 
REMARK    3  A    between atoms: C5_7  and  C6_8 
REMARK    4  A    between atoms: C13_18  and  O2_19 
REMARK    5  A    between atoms: O2_19  and  C14_20 
REMARK    6  A    between atoms: C16_23  and  N5_24 
ROOT
HETATM    1  C6  UNL     1      25.219   1.720  52.081  1.00  0.00     0.060 A 
HETATM    2  N3  UNL     1      25.421   2.738  51.215  1.00  0.00    -0.245 NA
HETATM    3  C7  UNL     1      24.514   3.512  50.659  1.00  0.00     0.234 A 
HETATM    4  N4  UNL     1      23.198   3.389  50.891  1.00  0.00    -0.241 NA
HETATM    5  C8  UNL     1      22.847   2.391  51.756  1.00  0.00     0.072 A 
HETATM    6  C9  UNL     1      23.839   1.606  52.312  1.00  0.00     0.020 A 
HETATM    7  C10 UNL     1      23.700   0.489  53.272  1.00  0.00     0.040 C 
HETATM    8  C11 UNL     1      22.703  -0.167  53.821  1.00  0.00     0.136 C 
HETATM    9  O1  UNL     1      21.343   0.053  53.610  1.00  0.00    -0.357 OA
HETATM   10  C12 UNL     1      20.473   0.253  52.511  1.00  0.00     0.239 C 
HETATM   11  C13 UNL     1      20.405   1.669  52.114  1.00  0.00     0.082 C 
HETATM   12  C15 UNL     1      21.410   2.475  51.823  1.00  0.00     0.067 C 
ENDROOT
BRANCH   1  13
HETATM   13  C5  UNL     1      26.210   0.848  52.704  1.00  0.00     0.124 C 
HETATM   14  C4  UNL     1      26.415  -0.518  52.117  1.00  0.00    -0.014 C 
HETATM   15  C3  UNL     1      27.315  -1.258  52.708  1.00  0.00    -0.000 C 
HETATM   16  C2  UNL     1      28.122  -0.860  53.876  1.00  0.00     0.304 C 
HETATM   17  N2  UNL     1      28.042   0.522  54.196  1.00  0.00     0.153 N 
HETATM   18  C16 UNL     1      26.740   1.132  54.032  1.00  0.00     0.467 C 
BRANCH  17  19
HETATM   19  C1  UNL     1      29.110   1.276  53.640  1.00  0.00     0.540 C 
BRANCH  19  20
HETATM   20  N1  UNL     1      30.283   0.492  53.361  1.00  0.00     0.106 N 
HETATM   21  H1  UNL     1      30.087  -0.441  52.940  1.00  0.00     0.315 HD
HETATM   22  H2  UNL     1      30.958   0.480  54.129  1.00  0.00     0.315 HD
ENDBRANCH  19  20
ENDBRANCH  17  19
BRANCH  18  23
HETATM   23  N5  UNL     1      27.011   2.588  54.081  1.00  0.00     0.113 N 
HETATM   24  H18 UNL     1      28.001   2.758  54.378  1.00  0.00     0.315 HD
HETATM   25  H19 UNL     1      26.429   3.064  54.801  1.00  0.00     0.315 HD
ENDBRANCH  18  23
ENDBRANCH   1  13
BRANCH  11  26
HETATM   26  O2  UNL     1      19.091   2.009  52.102  1.00  0.00    -0.288 OA
BRANCH  26  27
HETATM   27  C14 UNL     1      18.433   3.010  51.477  1.00  0.00     0.403 C 
HETATM   28  O3  UNL     1      17.619   3.802  51.968  1.00  0.00    -0.276 OA
ENDBRANCH  26  27
ENDBRANCH  11  26
TORSDOF 6
ENDMDL
MODEL 6
REMARK VINA RESULT:      -7.3      3.130      6.879
REMARK  6 active torsions:
REMARK  status: ('A' for Active; 'I' for Inactive)
REMARK    1  A    between atoms: N1_1  and  C1_2 
REMARK    2  A    between atoms: C1_2  and  N2_3 
REMARK    3  A    between atoms: C5_7  and  C6_8 
REMARK    4  A    between atoms: C13_18  and  O2_19 
REMARK    5  A    between atoms: O2_19  and  C14_20 
REMARK    6  A    between atoms: C16_23  and  N5_24 
ROOT
HETATM    1  C6  UNL     1      24.259   2.686  50.710  1.00  0.00     0.060 A 
HETATM    2  N3  UNL     1      25.207   3.472  50.155  1.00  0.00    -0.245 NA
HETATM    3  C7  UNL     1      26.505   3.441  50.370  1.00  0.00     0.234 A 
HETATM    4  N4  UNL     1      27.092   2.578  51.213  1.00  0.00    -0.241 NA
HETATM    5  C8  UNL     1      26.244   1.715  51.849  1.00  0.00     0.072 A 
HETATM    6  C9  UNL     1      24.890   1.790  51.588  1.00  0.00     0.020 A 
HETATM    7  C10 UNL     1      23.797   0.961  52.142  1.00  0.00     0.040 C 
HETATM    8  C11 UNL     1      23.694   0.019  53.053  1.00  0.00     0.136 C 
HETATM    9  O1  UNL     1      24.724  -0.506  53.830  1.00  0.00    -0.357 OA
HETATM   10  C12 UNL     1      25.806  -0.020  54.603  1.00  0.00     0.239 C 
HETATM   11  C13 UNL     1      27.010   0.203  53.785  1.00  0.00     0.082 C 
HETATM   12  C15 UNL     1      27.113   0.919  52.679  1.00  0.00     0.067 C 
ENDROOT
BRANCH   1  13
HETATM   13  C5  UNL     1      22.816   2.707  50.487  1.00  0.00     0.124 C 
HETATM   14  C4  UNL     1      22.235   1.700  49.538  1.00  0.00    -0.014 C 
HETATM   15  C3  UNL     1      20.941   1.757  49.375  1.00  0.00    -0.000 C 
HETATM   16  C2  UNL     1      20.034   2.714  50.037  1.00  0.00     0.304 C 
HETATM   17  N2  UNL     1      20.633   3.448  51.096  1.00  0.00     0.153 N 
HETATM   18  C16 UNL     1      22.005   3.852  50.884  1.00  0.00     0.467 C 
BRANCH  17  19
HETATM   19  C1  UNL     1      20.388   2.869  52.370  1.00  0.00     0.540 C 
BRANCH  19  20
HETATM   20  N1  UNL     1      19.446   1.782  52.338  1.00  0.00     0.106 N 
HETATM   21  H1  UNL     1      19.458   1.229  51.455  1.00  0.00     0.315 HD
HETATM   22  H2  UNL     1      18.513   2.041  52.666  1.00  0.00     0.315 HD
ENDBRANCH  19  20
ENDBRANCH  17  19
BRANCH  18  23
HETATM   23  N5  UNL     1      22.477   4.263  52.228  1.00  0.00     0.113 N 
HETATM   24  H18 UNL     1      22.851   5.241  52.192  1.00  0.00     0.315 HD
HETATM   25  H19 UNL     1      23.278   3.681  52.549  1.00  0.00     0.315 HD
ENDBRANCH  18  23
ENDBRANCH   1  13
BRANCH  11  26
HETATM   26  O2  UNL     1      28.021  -0.475  54.383  1.00  0.00    -0.288 OA
BRANCH  26  27
HETATM   27  C14 UNL     1      29.361  -0.398  54.234  1.00  0.00     0.403 C 
HETATM   28  O3  UNL     1      30.134  -1.286  53.852  1.00  0.00    -0.276 OA
ENDBRANCH  26  27
ENDBRANCH  11  26
TORSDOF 6
ENDMDL
MODEL 7
REMARK VINA RESULT:      -7.3      1.334      2.053
REMARK  6 active torsions:
REMARK  status: ('A' for Active; 'I' for Inactive)
REMARK    1  A    between atoms: N1_1  and  C1_2 
REMARK    2  A    between atoms: C1_2  and  N2_3 
REMARK    3  A    between atoms: C5_7  and  C6_8 
REMARK    4  A    between atoms: C13_18  and  O2_19 
REMARK    5  A    between atoms: O2_19  and  C14_20 
REMARK    6  A    between atoms: C16_23  and  N5_24 
ROOT
HETATM    1  C6  UNL     1      24.863   0.763  52.620  1.00  0.00     0.060 A 
HETATM    2  N3  UNL     1      24.592   1.576  51.575  1.00  0.00    -0.245 NA
HETATM    3  C7  UNL     1      23.411   1.909  51.101  1.00  0.00     0.234 A 
HETATM    4  N4  UNL     1      22.257   1.463  51.619  1.00  0.00    -0.241 NA
HETATM    5  C8  UNL     1      22.382   0.624  52.690  1.00  0.00     0.072 A 
HETATM    6  C9  UNL     1      23.646   0.306  53.149  1.00  0.00     0.020 A 
HETATM    7  C10 UNL     1      24.022  -0.561  54.287  1.00  0.00     0.040 C 
HETATM    8  C11 UNL     1      23.386  -1.340  55.132  1.00  0.00     0.136 C 
HETATM    9  O1  UNL     1      22.014  -1.579  55.176  1.00  0.00    -0.357 OA
HETATM   10  C12 UNL     1      20.975  -1.890  54.266  1.00  0.00     0.239 C 
HETATM   11  C13 UNL     1      20.390  -0.680  53.664  1.00  0.00     0.082 C 
HETATM   12  C15 UNL     1      21.023   0.298  53.041  1.00  0.00     0.067 C 
ENDROOT
BRANCH   1  13
HETATM   13  C5  UNL     1      26.165   0.379  53.158  1.00  0.00     0.124 C 
HETATM   14  C4  UNL     1      26.526   0.856  54.535  1.00  0.00    -0.014 C 
HETATM   15  C3  UNL     1      27.699   0.484  54.973  1.00  0.00    -0.000 C 
HETATM   16  C2  UNL     1      28.667  -0.347  54.234  1.00  0.00     0.304 C 
HETATM   17  N2  UNL     1      28.140  -0.955  53.062  1.00  0.00     0.153 N 
HETATM   18  C16 UNL     1      27.217  -0.147  52.296  1.00  0.00     0.467 C 
BRANCH  17  19
HETATM   19  C1  UNL     1      27.698  -2.285  53.288  1.00  0.00     0.540 C 
BRANCH  19  20
HETATM   20  N1  UNL     1      28.742  -3.267  53.169  1.00  0.00     0.106 N 
HETATM   21  H1  UNL     1      29.648  -2.986  53.601  1.00  0.00     0.315 HD
HETATM   22  H2  UNL     1      28.822  -3.667  52.232  1.00  0.00     0.315 HD
ENDBRANCH  19  20
ENDBRANCH  17  19
BRANCH  18  23
HETATM   23  N5  UNL     1      26.569  -1.108  51.373  1.00  0.00     0.113 N 
HETATM   24  H18 UNL     1      27.062  -2.032  51.415  1.00  0.00     0.315 HD
HETATM   25  H19 UNL     1      26.652  -0.806  50.381  1.00  0.00     0.315 HD
ENDBRANCH  18  23
ENDBRANCH   1  13
BRANCH  11  26
HETATM   26  O2  UNL     1      19.051  -0.749  53.869  1.00  0.00    -0.288 OA
BRANCH  26  27
HETATM   27  C14 UNL     1      18.031  -1.033  53.030  1.00  0.00     0.403 C 
HETATM   28  O3  UNL     1      16.880  -0.579  53.056  1.00  0.00    -0.276 OA
ENDBRANCH  26  27
ENDBRANCH  11  26
TORSDOF 6
ENDMDL
MODEL 8
REMARK VINA RESULT:      -7.3      3.852      7.114
REMARK  6 active torsions:
REMARK  status: ('A' for Active; 'I' for Inactive)
REMARK    1  A    between atoms: N1_1  and  C1_2 
REMARK    2  A    between atoms: C1_2  and  N2_3 
REMARK    3  A    between atoms: C5_7  and  C6_8 
REMARK    4  A    between atoms: C13_18  and  O2_19 
REMARK    5  A    between atoms: O2_19  and  C14_20 
REMARK    6  A    between atoms: C16_23  and  N5_24 
ROOT
HETATM    1  C6  UNL     1      21.887   0.935  52.822  1.00  0.00     0.060 A 
HETATM    2  N3  UNL     1      21.286   0.078  53.678  1.00  0.00    -0.245 NA
HETATM    3  C7  UNL     1      21.861  -0.783  54.489  1.00  0.00     0.234 A 
HETATM    4  N4  UNL     1      23.191  -0.935  54.581  1.00  0.00    -0.241 NA
HETATM    5  C8  UNL     1      23.929  -0.124  53.765  1.00  0.00     0.072 A 
HETATM    6  C9  UNL     1      23.276   0.763  52.931  1.00  0.00     0.020 A 
HETATM    7  C10 UNL     1      23.860   1.736  51.982  1.00  0.00     0.040 C 
HETATM    8  C11 UNL     1      25.066   2.026  51.549  1.00  0.00     0.136 C 
HETATM    9  O1  UNL     1      26.258   1.410  51.924  1.00  0.00    -0.357 OA
HETATM   10  C12 UNL     1      26.747   0.093  52.094  1.00  0.00     0.239 C 
HETATM   11  C13 UNL     1      26.463  -0.431  53.440  1.00  0.00     0.082 C 
HETATM   12  C15 UNL     1      25.294  -0.486  54.054  1.00  0.00     0.067 C 
ENDROOT
BRANCH   1  13
HETATM   13  C5  UNL     1      21.267   1.894  51.913  1.00  0.00     0.124 C 
HETATM   14  C4  UNL     1      21.190   3.329  52.349  1.00  0.00    -0.014 C 
HETATM   15  C3  UNL     1      20.630   4.149  51.501  1.00  0.00    -0.000 C 
HETATM   16  C2  UNL     1      20.084   3.778  50.182  1.00  0.00     0.304 C 
HETATM   17  N2  UNL     1      20.430   2.467  49.755  1.00  0.00     0.153 N 
HETATM   18  C16 UNL     1      20.452   1.455  50.788  1.00  0.00     0.467 C 
BRANCH  17  19
HETATM   19  C1  UNL     1      21.565   2.451  48.902  1.00  0.00     0.540 C 
BRANCH  19  20
HETATM   20  N1  UNL     1      21.294   2.931  47.573  1.00  0.00     0.106 N 
HETATM   21  H1  UNL     1      21.730   3.852  47.352  1.00  0.00     0.315 HD
HETATM   22  H2  UNL     1      20.312   2.848  47.301  1.00  0.00     0.315 HD
ENDBRANCH  19  20
ENDBRANCH  17  19
BRANCH  18  23
HETATM   23  N5  UNL     1      21.164   0.314  50.166  1.00  0.00     0.113 N 
HETATM   24  H18 UNL     1      21.703  -0.211  50.895  1.00  0.00     0.315 HD
HETATM   25  H19 UNL     1      21.880   0.634  49.482  1.00  0.00     0.315 HD
ENDBRANCH  18  23
ENDBRANCH   1  13
BRANCH  11  26
HETATM   26  O2  UNL     1      27.644  -0.855  53.954  1.00  0.00    -0.288 OA
BRANCH  26  27
HETATM   27  C14 UNL     1      28.646  -0.186  54.565  1.00  0.00     0.403 C 
HETATM   28  O3  UNL     1      28.607   0.945  55.065  1.00  0.00    -0.276 OA
ENDBRANCH  26  27
ENDBRANCH  11  26
TORSDOF 6
ENDMDL
MODEL 9
REMARK VINA RESULT:      -7.3      3.184      7.115
REMARK  6 active torsions:
REMARK  status: ('A' for Active; 'I' for Inactive)
REMARK    1  A    between atoms: N1_1  and  C1_2 
REMARK    2  A    between atoms: C1_2  and  N2_3 
REMARK    3  A    between atoms: C5_7  and  C6_8 
REMARK    4  A    between atoms: C13_18  and  O2_19 
REMARK    5  A    between atoms: O2_19  and  C14_20 
REMARK    6  A    between atoms: C16_23  and  N5_24 
ROOT
HETATM    1  C6  UNL     1      23.366   1.717  51.524  1.00  0.00     0.060 A 
HETATM    2  N3  UNL     1      23.721   2.717  50.687  1.00  0.00    -0.245 NA
HETATM    3  C7  UNL     1      24.933   3.168  50.442  1.00  0.00     0.234 A 
HETATM    4  N4  UNL     1      26.036   2.668  51.020  1.00  0.00    -0.241 NA
HETATM    5  C8  UNL     1      25.823   1.641  51.896  1.00  0.00     0.072 A 
HETATM    6  C9  UNL     1      24.531   1.206  52.118  1.00  0.00     0.020 A 
HETATM    7  C10 UNL     1      24.064   0.115  53.003  1.00  0.00     0.040 C 
HETATM    8  C11 UNL     1      24.618  -0.692  53.879  1.00  0.00     0.136 C 
HETATM    9  O1  UNL     1      25.962  -0.730  54.247  1.00  0.00    -0.357 OA
HETATM   10  C12 UNL     1      26.975   0.190  54.607  1.00  0.00     0.239 C 
HETATM   11  C13 UNL     1      27.676   0.726  53.428  1.00  0.00     0.082 C 
HETATM   12  C15 UNL     1      27.142   1.301  52.365  1.00  0.00     0.067 C 
ENDROOT
BRANCH   1  13
HETATM   13  C5  UNL     1      22.029   1.205  51.811  1.00  0.00     0.124 C 
HETATM   14  C4  UNL     1      21.494   1.375  53.204  1.00  0.00    -0.014 C 
HETATM   15  C3  UNL     1      20.293   0.905  53.410  1.00  0.00    -0.000 C 
HETATM   16  C2  UNL     1      19.449   0.238  52.402  1.00  0.00     0.304 C 
HETATM   17  N2  UNL     1      19.930   0.352  51.070  1.00  0.00     0.153 N 
HETATM   18  C16 UNL     1      21.365   0.271  50.910  1.00  0.00     0.467 C 
BRANCH  17  19
HETATM   19  C1  UNL     1      19.325   1.423  50.359  1.00  0.00     0.540 C 
BRANCH  19  20
HETATM   20  N1  UNL     1      18.235   1.012  49.515  1.00  0.00     0.106 N 
HETATM   21  H1  UNL     1      18.417   1.122  48.494  1.00  0.00     0.315 HD
HETATM   22  H2  UNL     1      17.325   1.359  49.826  1.00  0.00     0.315 HD
ENDBRANCH  19  20
ENDBRANCH  17  19
BRANCH  18  23
HETATM   23  N5  UNL     1      21.607   0.763  49.533  1.00  0.00     0.113 N 
HETATM   24  H18 UNL     1      22.094   0.025  48.971  1.00  0.00     0.315 HD
HETATM   25  H19 UNL     1      22.256   1.578  49.523  1.00  0.00     0.315 HD
ENDBRANCH  18  23
ENDBRANCH   1  13
BRANCH  11  26
HETATM   26  O2  UNL     1      29.001   0.518  53.632  1.00  0.00    -0.288 OA
BRANCH  26  27
HETATM   27  C14 UNL     1      29.706  -0.614  53.847  1.00  0.00     0.403 C 
HETATM   28  O3  UNL     1      29.586  -1.702  53.270  1.00  0.00    -0.276 OA
ENDBRANCH  26  27
ENDBRANCH  11  26
TORSDOF 6
ENDMDL
