MODEL 1
REMARK VINA RESULT:      -7.4      0.000      0.000
REMARK  5 active torsions:
REMARK  status: ('A' for Active; 'I' for Inactive)
REMARK    1  A    between atoms: C2_2  and  C3_4 
REMARK    2  A    between atoms: C4_5  and  C5_6 
REMARK    3  A    between atoms: C6_7  and  N1_8 
REMARK    4  A    between atoms: N1_8  and  C7_9 
REMARK    5  A    between atoms: C15_20  and  O1_21 
ROOT
HETATM    1  C7  UNL     1      23.241   5.681  51.492  1.00  0.00     0.159 A 
HETATM    2  N2  UNL     1      22.087   6.286  51.076  1.00  0.00    -0.222 NA
HETATM    3  C8  UNL     1      21.052   5.509  50.670  1.00  0.00     0.238 A 
HETATM    4  N3  UNL     1      21.102   4.143  50.655  1.00  0.00    -0.215 NA
HETATM    5  C9  UNL     1      22.227   3.513  51.059  1.00  0.00     0.202 A 
HETATM    6  C10 UNL     1      23.300   4.306  51.479  1.00  0.00     0.129 A 
HETATM    7  N4  UNL     1      24.559   3.845  51.941  1.00  0.00    -0.379 N 
HETATM    8  C11 UNL     1      25.131   2.517  51.717  1.00  0.00     0.161 C 
HETATM    9  C12 UNL     1      24.204   1.478  52.225  1.00  0.00    -0.006 A 
HETATM   10  C13 UNL     1      24.827   0.627  53.126  1.00  0.00     0.014 A 
HETATM   11  C14 UNL     1      24.109  -0.391  53.684  1.00  0.00     0.037 A 
HETATM   12  C15 UNL     1      22.794  -0.591  53.376  1.00  0.00     0.070 A 
HETATM   13  C17 UNL     1      22.138   0.238  52.479  1.00  0.00     0.074 A 
HETATM   14  C18 UNL     1      22.856   1.270  51.912  1.00  0.00     0.088 A 
HETATM   15  O2  UNL     1      22.163   2.102  51.001  1.00  0.00    -0.289 OA
HETATM   16  H9  UNL     1      25.069   4.599  52.493  1.00  0.00     0.160 HD
ENDROOT
BRANCH   1  17
HETATM   17  N1  UNL     1      24.297   6.519  51.922  1.00  0.00    -0.349 N 
HETATM   18  H7  UNL     1      24.673   6.730  52.872  1.00  0.00     0.167 HD
BRANCH  17  19
HETATM   19  C6  UNL     1      24.949   7.189  50.826  1.00  0.00     0.090 C 
HETATM   20  C5  UNL     1      25.666   6.675  49.854  1.00  0.00     0.017 C 
BRANCH  20  21
HETATM   21  C4  UNL     1      26.346   7.298  48.723  1.00  0.00     0.003 C 
HETATM   22  C3  UNL     1      27.578   6.913  48.463  1.00  0.00     0.018 C 
BRANCH  22  23
HETATM   23  C2  UNL     1      28.257   7.518  47.352  1.00  0.00     0.001 C 
HETATM   24  C1  UNL     1      27.610   8.226  46.478  1.00  0.00     0.032 C 
HETATM   25 BR1  UNL     1      29.985   7.684  46.605  1.00  0.00    -0.052 Br
ENDBRANCH  22  23
ENDBRANCH  20  21
ENDBRANCH  17  19
ENDBRANCH   1  17
BRANCH  12  26
HETATM   26  O1  UNL     1      22.112  -1.639  53.969  1.00  0.00    -0.356 OA
HETATM   27  C16 UNL     1      20.730  -1.505  54.191  1.00  0.00     0.210 C 
ENDBRANCH  12  26
TORSDOF 5
ENDMDL
MODEL 2
REMARK VINA RESULT:      -7.2      6.171     10.540
REMARK  5 active torsions:
REMARK  status: ('A' for Active; 'I' for Inactive)
REMARK    1  A    between atoms: C2_2  and  C3_4 
REMARK    2  A    between atoms: C4_5  and  C5_6 
REMARK    3  A    between atoms: C6_7  and  N1_8 
REMARK    4  A    between atoms: N1_8  and  C7_9 
REMARK    5  A    between atoms: C15_20  and  O1_21 
ROOT
HETATM    1  C7  UNL     1      18.896  -1.167  53.335  1.00  0.00     0.159 A 
HETATM    2  N2  UNL     1      17.977  -0.619  52.484  1.00  0.00    -0.222 NA
HETATM    3  C8  UNL     1      18.299   0.518  51.818  1.00  0.00     0.238 A 
HETATM    4  N3  UNL     1      19.503   1.149  51.954  1.00  0.00    -0.215 NA
HETATM    5  C9  UNL     1      20.435   0.636  52.787  1.00  0.00     0.202 A 
HETATM    6  C10 UNL     1      20.111  -0.536  53.479  1.00  0.00     0.129 A 
HETATM    7  N4  UNL     1      20.943  -1.233  54.391  1.00  0.00    -0.379 N 
HETATM    8  C11 UNL     1      22.114  -0.694  55.082  1.00  0.00     0.161 C 
HETATM    9  C12 UNL     1      23.089  -0.178  54.092  1.00  0.00    -0.006 A 
HETATM   10  C13 UNL     1      24.345  -0.741  54.262  1.00  0.00     0.014 A 
HETATM   11  C14 UNL     1      25.360  -0.367  53.430  1.00  0.00     0.037 A 
HETATM   12  C15 UNL     1      25.167   0.550  52.436  1.00  0.00     0.070 A 
HETATM   13  C17 UNL     1      23.927   1.136  52.236  1.00  0.00     0.074 A 
HETATM   14  C18 UNL     1      22.896   0.761  53.072  1.00  0.00     0.088 A 
HETATM   15  O2  UNL     1      21.640   1.371  52.847  1.00  0.00    -0.289 OA
HETATM   16  H9  UNL     1      20.612  -2.236  54.529  1.00  0.00     0.160 HD
ENDROOT
BRANCH   1  17
HETATM   17  N1  UNL     1      18.534  -2.360  54.005  1.00  0.00    -0.349 N 
HETATM   18  H7  UNL     1      18.996  -2.890  54.776  1.00  0.00     0.167 HD
BRANCH  17  19
HETATM   19  C6  UNL     1      17.305  -2.920  53.506  1.00  0.00     0.090 C 
HETATM   20  C5  UNL     1      16.864  -4.155  53.594  1.00  0.00     0.017 C 
BRANCH  20  21
HETATM   21  C4  UNL     1      15.636  -4.777  53.114  1.00  0.00     0.003 C 
HETATM   22  C3  UNL     1      15.051  -4.243  52.063  1.00  0.00     0.018 C 
BRANCH  22  23
HETATM   23  C2  UNL     1      13.841  -4.848  51.580  1.00  0.00     0.001 C 
HETATM   24  C1  UNL     1      13.688  -6.137  51.589  1.00  0.00     0.032 C 
HETATM   25 BR1  UNL     1      12.164  -4.383  50.843  1.00  0.00    -0.052 Br
ENDBRANCH  22  23
ENDBRANCH  20  21
ENDBRANCH  17  19
ENDBRANCH   1  17
BRANCH  12  26
HETATM   26  O1  UNL     1      26.231   0.897  51.620  1.00  0.00    -0.356 OA
HETATM   27  C16 UNL     1      26.392   2.245  51.259  1.00  0.00     0.210 C 
ENDBRANCH  12  26
TORSDOF 5
ENDMDL
MODEL 3
REMARK VINA RESULT:      -7.1      5.042      8.069
REMARK  5 active torsions:
REMARK  status: ('A' for Active; 'I' for Inactive)
REMARK    1  A    between atoms: C2_2  and  C3_4 
REMARK    2  A    between atoms: C4_5  and  C5_6 
REMARK    3  A    between atoms: C6_7  and  N1_8 
REMARK    4  A    between atoms: N1_8  and  C7_9 
REMARK    5  A    between atoms: C15_20  and  O1_21 
ROOT
HETATM    1  C7  UNL     1      22.032   2.684  51.121  1.00  0.00     0.159 A 
HETATM    2  N2  UNL     1      21.854   4.031  50.968  1.00  0.00    -0.222 NA
HETATM    3  C8  UNL     1      22.647   4.878  51.671  1.00  0.00     0.238 A 
HETATM    4  N3  UNL     1      23.622   4.453  52.529  1.00  0.00    -0.215 NA
HETATM    5  C9  UNL     1      23.825   3.129  52.704  1.00  0.00     0.202 A 
HETATM    6  C10 UNL     1      23.012   2.248  51.985  1.00  0.00     0.129 A 
HETATM    7  N4  UNL     1      23.064   0.831  52.022  1.00  0.00    -0.379 N 
HETATM    8  C11 UNL     1      23.680   0.014  53.067  1.00  0.00     0.161 C 
HETATM    9  C12 UNL     1      25.105   0.391  53.226  1.00  0.00    -0.006 A 
HETATM   10  C13 UNL     1      25.945  -0.705  53.103  1.00  0.00     0.014 A 
HETATM   11  C14 UNL     1      27.293  -0.528  53.228  1.00  0.00     0.037 A 
HETATM   12  C15 UNL     1      27.831   0.702  53.473  1.00  0.00     0.070 A 
HETATM   13  C17 UNL     1      27.024   1.822  53.603  1.00  0.00     0.074 A 
HETATM   14  C18 UNL     1      25.661   1.650  53.476  1.00  0.00     0.088 A 
HETATM   15  O2  UNL     1      24.858   2.808  53.612  1.00  0.00    -0.289 OA
HETATM   16  H9  UNL     1      22.587   0.402  51.172  1.00  0.00     0.160 HD
ENDROOT
BRANCH   1  17
HETATM   17  N1  UNL     1      21.197   1.827  50.365  1.00  0.00    -0.349 N 
HETATM   18  H7  UNL     1      21.316   1.398  49.421  1.00  0.00     0.167 HD
BRANCH  17  19
HETATM   19  C6  UNL     1      19.970   1.510  51.048  1.00  0.00     0.090 C 
HETATM   20  C5  UNL     1      19.504   0.335  51.407  1.00  0.00     0.017 C 
BRANCH  20  21
HETATM   21  C4  UNL     1      18.278  -0.046  52.098  1.00  0.00     0.003 C 
HETATM   22  C3  UNL     1      17.235  -0.365  51.360  1.00  0.00     0.018 C 
BRANCH  22  23
HETATM   23  C2  UNL     1      16.021  -0.743  52.028  1.00  0.00     0.001 C 
HETATM   24  C1  UNL     1      15.718  -1.992  52.206  1.00  0.00     0.032 C 
HETATM   25 BR1  UNL     1      14.507   0.023  52.859  1.00  0.00    -0.052 Br
ENDBRANCH  22  23
ENDBRANCH  20  21
ENDBRANCH  17  19
ENDBRANCH   1  17
BRANCH  12  26
HETATM   26  O1  UNL     1      29.205   0.829  53.592  1.00  0.00    -0.356 OA
HETATM   27  C16 UNL     1      29.997  -0.330  53.527  1.00  0.00     0.210 C 
ENDBRANCH  12  26
TORSDOF 5
ENDMDL
MODEL 4
REMARK VINA RESULT:      -7.1      4.032      5.768
REMARK  5 active torsions:
REMARK  status: ('A' for Active; 'I' for Inactive)
REMARK    1  A    between atoms: C2_2  and  C3_4 
REMARK    2  A    between atoms: C4_5  and  C5_6 
REMARK    3  A    between atoms: C6_7  and  N1_8 
REMARK    4  A    between atoms: N1_8  and  C7_9 
REMARK    5  A    between atoms: C15_20  and  O1_21 
ROOT
HETATM    1  C7  UNL     1      23.876   3.065  52.183  1.00  0.00     0.159 A 
HETATM    2  N2  UNL     1      24.079   3.964  51.173  1.00  0.00    -0.222 NA
HETATM    3  C8  UNL     1      23.381   3.818  50.019  1.00  0.00     0.238 A 
HETATM    4  N3  UNL     1      22.477   2.814  49.812  1.00  0.00    -0.215 NA
HETATM    5  C9  UNL     1      22.252   1.908  50.788  1.00  0.00     0.202 A 
HETATM    6  C10 UNL     1      22.968   2.049  51.981  1.00  0.00     0.129 A 
HETATM    7  N4  UNL     1      22.878   1.213  53.123  1.00  0.00    -0.379 N 
HETATM    8  C11 UNL     1      22.337  -0.146  53.161  1.00  0.00     0.161 C 
HETATM    9  C12 UNL     1      20.945  -0.149  52.652  1.00  0.00    -0.006 A 
HETATM   10  C13 UNL     1      20.065  -0.718  53.559  1.00  0.00     0.014 A 
HETATM   11  C14 UNL     1      18.740  -0.802  53.239  1.00  0.00     0.037 A 
HETATM   12  C15 UNL     1      18.264  -0.338  52.046  1.00  0.00     0.070 A 
HETATM   13  C17 UNL     1      19.114   0.237  51.113  1.00  0.00     0.074 A 
HETATM   14  C18 UNL     1      20.453   0.326  51.431  1.00  0.00     0.088 A 
HETATM   15  O2  UNL     1      21.299   0.918  50.463  1.00  0.00    -0.289 OA
HETATM   16  H9  UNL     1      23.261   1.697  53.990  1.00  0.00     0.160 HD
ENDROOT
BRANCH   1  17
HETATM   17  N1  UNL     1      24.611   3.251  53.378  1.00  0.00    -0.349 N 
HETATM   18  H7  UNL     1      24.521   3.952  54.146  1.00  0.00     0.167 HD
BRANCH  17  19
HETATM   19  C6  UNL     1      25.667   2.284  53.531  1.00  0.00     0.090 C 
HETATM   20  C5  UNL     1      26.822   2.218  52.908  1.00  0.00     0.017 C 
BRANCH  20  21
HETATM   21  C4  UNL     1      27.925   1.271  53.020  1.00  0.00     0.003 C 
HETATM   22  C3  UNL     1      27.626   0.005  53.221  1.00  0.00     0.018 C 
BRANCH  22  23
HETATM   23  C2  UNL     1      28.703  -0.938  53.333  1.00  0.00     0.001 C 
HETATM   24  C1  UNL     1      29.915  -0.542  53.576  1.00  0.00     0.032 C 
HETATM   25 BR1  UNL     1      29.040  -2.795  53.248  1.00  0.00    -0.052 Br
ENDBRANCH  22  23
ENDBRANCH  20  21
ENDBRANCH  17  19
ENDBRANCH   1  17
BRANCH  12  26
HETATM   26  O1  UNL     1      16.912  -0.447  51.769  1.00  0.00    -0.356 OA
HETATM   27  C16 UNL     1      16.197  -1.527  52.313  1.00  0.00     0.210 C 
ENDBRANCH  12  26
TORSDOF 5
ENDMDL
MODEL 5
REMARK VINA RESULT:      -7.1      2.285      3.716
REMARK  5 active torsions:
REMARK  status: ('A' for Active; 'I' for Inactive)
REMARK    1  A    between atoms: C2_2  and  C3_4 
REMARK    2  A    between atoms: C4_5  and  C5_6 
REMARK    3  A    between atoms: C6_7  and  N1_8 
REMARK    4  A    between atoms: N1_8  and  C7_9 
REMARK    5  A    between atoms: C15_20  and  O1_21 
ROOT
HETATM    1  C7  UNL     1      25.105   2.397  50.969  1.00  0.00     0.159 A 
HETATM    2  N2  UNL     1      26.339   1.887  51.263  1.00  0.00    -0.222 NA
HETATM    3  C8  UNL     1      26.467   1.069  52.338  1.00  0.00     0.238 A 
HETATM    4  N3  UNL     1      25.421   0.724  53.147  1.00  0.00    -0.215 NA
HETATM    5  C9  UNL     1      24.188   1.211  52.885  1.00  0.00     0.202 A 
HETATM    6  C10 UNL     1      24.045   2.056  51.780  1.00  0.00     0.129 A 
HETATM    7  N4  UNL     1      22.845   2.665  51.333  1.00  0.00    -0.379 N 
HETATM    8  C11 UNL     1      21.626   2.857  52.120  1.00  0.00     0.161 C 
HETATM    9  C12 UNL     1      21.150   1.552  52.636  1.00  0.00    -0.006 A 
HETATM   10  C13 UNL     1      19.831   1.308  52.284  1.00  0.00     0.014 A 
HETATM   11  C14 UNL     1      19.238   0.147  52.687  1.00  0.00     0.037 A 
HETATM   12  C15 UNL     1      19.913  -0.780  53.429  1.00  0.00     0.070 A 
HETATM   13  C17 UNL     1      21.233  -0.572  53.801  1.00  0.00     0.074 A 
HETATM   14  C18 UNL     1      21.839   0.599  53.395  1.00  0.00     0.088 A 
HETATM   15  O2  UNL     1      23.186   0.787  53.786  1.00  0.00    -0.289 OA
HETATM   16  H9  UNL     1      22.925   2.984  50.321  1.00  0.00     0.160 HD
ENDROOT
BRANCH   1  17
HETATM   17  N1  UNL     1      25.001   3.237  49.834  1.00  0.00    -0.349 N 
HETATM   18  H7  UNL     1      24.233   3.376  49.142  1.00  0.00     0.167 HD
BRANCH  17  19
HETATM   19  C6  UNL     1      26.186   4.026  49.623  1.00  0.00     0.090 C 
HETATM   20  C5  UNL     1      26.355   5.071  48.845  1.00  0.00     0.017 C 
BRANCH  20  21
HETATM   21  C4  UNL     1      27.523   5.907  48.592  1.00  0.00     0.003 C 
HETATM   22  C3  UNL     1      28.654   5.303  48.294  1.00  0.00     0.018 C 
BRANCH  22  23
HETATM   23  C2  UNL     1      29.811   6.115  48.043  1.00  0.00     0.001 C 
HETATM   24  C1  UNL     1      30.900   5.959  48.732  1.00  0.00     0.032 C 
HETATM   25 BR1  UNL     1      30.404   7.511  46.916  1.00  0.00    -0.052 Br
ENDBRANCH  22  23
ENDBRANCH  20  21
ENDBRANCH  17  19
ENDBRANCH   1  17
BRANCH  12  26
HETATM   26  O1  UNL     1      19.266  -1.941  53.813  1.00  0.00    -0.356 OA
HETATM   27  C16 UNL     1      17.916  -2.109  53.463  1.00  0.00     0.210 C 
ENDBRANCH  12  26
TORSDOF 5
ENDMDL
MODEL 6
REMARK VINA RESULT:      -6.9      3.431      7.481
REMARK  5 active torsions:
REMARK  status: ('A' for Active; 'I' for Inactive)
REMARK    1  A    between atoms: C2_2  and  C3_4 
REMARK    2  A    between atoms: C4_5  and  C5_6 
REMARK    3  A    between atoms: C6_7  and  N1_8 
REMARK    4  A    between atoms: N1_8  and  C7_9 
REMARK    5  A    between atoms: C15_20  and  O1_21 
ROOT
HETATM    1  C7  UNL     1      22.162   2.316  50.504  1.00  0.00     0.159 A 
HETATM    2  N2  UNL     1      21.903   1.383  49.540  1.00  0.00    -0.222 NA
HETATM    3  C8  UNL     1      22.082   1.722  48.238  1.00  0.00     0.238 A 
HETATM    4  N3  UNL     1      22.511   2.956  47.838  1.00  0.00    -0.215 NA
HETATM    5  C9  UNL     1      22.775   3.903  48.765  1.00  0.00     0.202 A 
HETATM    6  C10 UNL     1      22.593   3.563  50.109  1.00  0.00     0.129 A 
HETATM    7  N4  UNL     1      22.816   4.404  51.229  1.00  0.00    -0.379 N 
HETATM    8  C11 UNL     1      22.900   5.864  51.213  1.00  0.00     0.161 C 
HETATM    9  C12 UNL     1      23.960   6.297  50.272  1.00  0.00    -0.006 A 
HETATM   10  C13 UNL     1      24.884   7.130  50.884  1.00  0.00     0.014 A 
HETATM   11  C14 UNL     1      25.926   7.622  50.150  1.00  0.00     0.037 A 
HETATM   12  C15 UNL     1      26.076   7.312  48.829  1.00  0.00     0.070 A 
HETATM   13  C17 UNL     1      25.172   6.484  48.182  1.00  0.00     0.074 A 
HETATM   14  C18 UNL     1      24.119   5.982  48.918  1.00  0.00     0.088 A 
HETATM   15  O2  UNL     1      23.211   5.138  48.236  1.00  0.00    -0.289 OA
HETATM   16  H9  UNL     1      22.921   3.838  52.124  1.00  0.00     0.160 HD
ENDROOT
BRANCH   1  17
HETATM   17  N1  UNL     1      21.978   1.928  51.853  1.00  0.00    -0.349 N 
HETATM   18  H7  UNL     1      21.303   2.248  52.581  1.00  0.00     0.167 HD
BRANCH  17  19
HETATM   19  C6  UNL     1      22.909   0.909  52.264  1.00  0.00     0.090 C 
HETATM   20  C5  UNL     1      24.212   0.990  52.404  1.00  0.00     0.017 C 
BRANCH  20  21
HETATM   21  C4  UNL     1      25.201   0.000  52.816  1.00  0.00     0.003 C 
HETATM   22  C3  UNL     1      26.440   0.166  52.402  1.00  0.00     0.018 C 
BRANCH  22  23
HETATM   23  C2  UNL     1      27.424  -0.801  52.801  1.00  0.00     0.001 C 
HETATM   24  C1  UNL     1      27.207  -2.073  52.658  1.00  0.00     0.032 C 
HETATM   25 BR1  UNL     1      29.154  -0.907  53.554  1.00  0.00    -0.052 Br
ENDBRANCH  22  23
ENDBRANCH  20  21
ENDBRANCH  17  19
ENDBRANCH   1  17
BRANCH  12  26
HETATM   26  O1  UNL     1      27.149   7.837  48.129  1.00  0.00    -0.356 OA
HETATM   27  C16 UNL     1      28.240   7.000  47.838  1.00  0.00     0.210 C 
ENDBRANCH  12  26
TORSDOF 5
ENDMDL
MODEL 7
REMARK VINA RESULT:      -6.9      2.421      2.707
REMARK  5 active torsions:
REMARK  status: ('A' for Active; 'I' for Inactive)
REMARK    1  A    between atoms: C2_2  and  C3_4 
REMARK    2  A    between atoms: C4_5  and  C5_6 
REMARK    3  A    between atoms: C6_7  and  N1_8 
REMARK    4  A    between atoms: N1_8  and  C7_9 
REMARK    5  A    between atoms: C15_20  and  O1_21 
ROOT
HETATM    1  C7  UNL     1      24.728   6.853  50.754  1.00  0.00     0.159 A 
HETATM    2  N2  UNL     1      23.714   7.770  50.752  1.00  0.00    -0.222 NA
HETATM    3  C8  UNL     1      22.433   7.328  50.797  1.00  0.00     0.238 A 
HETATM    4  N3  UNL     1      22.099   6.003  50.845  1.00  0.00    -0.215 NA
HETATM    5  C9  UNL     1      23.076   5.070  50.848  1.00  0.00     0.202 A 
HETATM    6  C10 UNL     1      24.400   5.516  50.801  1.00  0.00     0.129 A 
HETATM    7  N4  UNL     1      25.564   4.706  50.799  1.00  0.00    -0.379 N 
HETATM    8  C11 UNL     1      25.629   3.284  50.461  1.00  0.00     0.161 C 
HETATM    9  C12 UNL     1      24.707   2.517  51.332  1.00  0.00    -0.006 A 
HETATM   10  C13 UNL     1      25.358   1.486  51.992  1.00  0.00     0.014 A 
HETATM   11  C14 UNL     1      24.646   0.679  52.833  1.00  0.00     0.037 A 
HETATM   12  C15 UNL     1      23.309   0.864  53.036  1.00  0.00     0.070 A 
HETATM   13  C17 UNL     1      22.622   1.882  52.393  1.00  0.00     0.074 A 
HETATM   14  C18 UNL     1      23.336   2.703  51.544  1.00  0.00     0.088 A 
HETATM   15  O2  UNL     1      22.613   3.735  50.901  1.00  0.00    -0.289 OA
HETATM   16  H9  UNL     1      26.425   5.263  51.082  1.00  0.00     0.160 HD
ENDROOT
BRANCH   1  17
HETATM   17  N1  UNL     1      26.054   7.347  50.720  1.00  0.00    -0.349 N 
HETATM   18  H7  UNL     1      26.928   7.019  51.185  1.00  0.00     0.167 HD
BRANCH  17  19
HETATM   19  C6  UNL     1      26.185   8.513  49.886  1.00  0.00     0.090 C 
HETATM   20  C5  UNL     1      27.210   9.325  49.758  1.00  0.00     0.017 C 
BRANCH  20  21
HETATM   21  C4  UNL     1      27.402  10.514  48.934  1.00  0.00     0.003 C 
HETATM   22  C3  UNL     1      28.592  11.077  48.942  1.00  0.00     0.018 C 
BRANCH  22  23
HETATM   23  C2  UNL     1      28.794  12.247  48.135  1.00  0.00     0.001 C 
HETATM   24  C1  UNL     1      28.278  13.389  48.474  1.00  0.00     0.032 C 
HETATM   25 BR1  UNL     1      29.659  12.803  46.550  1.00  0.00    -0.052 Br
ENDBRANCH  22  23
ENDBRANCH  20  21
ENDBRANCH  17  19
ENDBRANCH   1  17
BRANCH  12  26
HETATM   26  O1  UNL     1      22.632   0.017  53.898  1.00  0.00    -0.356 OA
HETATM   27  C16 UNL     1      22.158  -1.210  53.403  1.00  0.00     0.210 C 
ENDBRANCH  12  26
TORSDOF 5
ENDMDL
MODEL 8
REMARK VINA RESULT:      -6.9      7.439     10.279
REMARK  5 active torsions:
REMARK  status: ('A' for Active; 'I' for Inactive)
REMARK    1  A    between atoms: C2_2  and  C3_4 
REMARK    2  A    between atoms: C4_5  and  C5_6 
REMARK    3  A    between atoms: C6_7  and  N1_8 
REMARK    4  A    between atoms: N1_8  and  C7_9 
REMARK    5  A    between atoms: C15_20  and  O1_21 
ROOT
HETATM    1  C7  UNL     1      30.067   9.757  49.288  1.00  0.00     0.159 A 
HETATM    2  N2  UNL     1      30.100  11.017  48.759  1.00  0.00    -0.222 NA
HETATM    3  C8  UNL     1      31.014  11.297  47.797  1.00  0.00     0.238 A 
HETATM    4  N3  UNL     1      31.910  10.379  47.324  1.00  0.00    -0.215 NA
HETATM    5  C9  UNL     1      31.905   9.124  47.826  1.00  0.00     0.202 A 
HETATM    6  C10 UNL     1      30.967   8.826  48.819  1.00  0.00     0.129 A 
HETATM    7  N4  UNL     1      30.795   7.578  49.469  1.00  0.00    -0.379 N 
HETATM    8  C11 UNL     1      31.771   6.490  49.528  1.00  0.00     0.161 C 
HETATM    9  C12 UNL     1      32.156   6.085  48.156  1.00  0.00    -0.006 A 
HETATM   10  C13 UNL     1      31.971   4.727  47.947  1.00  0.00     0.014 A 
HETATM   11  C14 UNL     1      32.284   4.191  46.731  1.00  0.00     0.037 A 
HETATM   12  C15 UNL     1      32.776   4.962  45.717  1.00  0.00     0.070 A 
HETATM   13  C17 UNL     1      32.977   6.323  45.888  1.00  0.00     0.074 A 
HETATM   14  C18 UNL     1      32.661   6.871  47.114  1.00  0.00     0.088 A 
HETATM   15  O2  UNL     1      32.872   8.262  47.262  1.00  0.00    -0.289 OA
HETATM   16  H9  UNL     1      29.838   7.510  49.932  1.00  0.00     0.160 HD
ENDROOT
BRANCH   1  17
HETATM   17  N1  UNL     1      29.094   9.493  50.282  1.00  0.00    -0.349 N 
HETATM   18  H7  UNL     1      29.176   9.346  51.311  1.00  0.00     0.167 HD
BRANCH  17  19
HETATM   19  C6  UNL     1      27.761   9.418  49.741  1.00  0.00     0.090 C 
HETATM   20  C5  UNL     1      26.694   8.848  50.251  1.00  0.00     0.017 C 
BRANCH  20  21
HETATM   21  C4  UNL     1      25.327   8.741  49.755  1.00  0.00     0.003 C 
HETATM   22  C3  UNL     1      24.436   8.168  50.537  1.00  0.00     0.018 C 
BRANCH  22  23
HETATM   23  C2  UNL     1      23.086   8.057  50.061  1.00  0.00     0.001 C 
HETATM   24  C1  UNL     1      22.656   8.804  49.090  1.00  0.00     0.032 C 
HETATM   25 BR1  UNL     1      21.498   7.082  50.372  1.00  0.00    -0.052 Br
ENDBRANCH  22  23
ENDBRANCH  20  21
ENDBRANCH  17  19
ENDBRANCH   1  17
BRANCH  12  26
HETATM   26  O1  UNL     1      33.080   4.370  44.503  1.00  0.00    -0.356 OA
HETATM   27  C16 UNL     1      33.274   5.194  43.381  1.00  0.00     0.210 C 
ENDBRANCH  12  26
TORSDOF 5
ENDMDL
MODEL 9
REMARK VINA RESULT:      -6.8      3.918      8.199
REMARK  5 active torsions:
REMARK  status: ('A' for Active; 'I' for Inactive)
REMARK    1  A    between atoms: C2_2  and  C3_4 
REMARK    2  A    between atoms: C4_5  and  C5_6 
REMARK    3  A    between atoms: C6_7  and  N1_8 
REMARK    4  A    between atoms: N1_8  and  C7_9 
REMARK    5  A    between atoms: C15_20  and  O1_21 
ROOT
HETATM    1  C7  UNL     1      22.036   4.481  49.691  1.00  0.00     0.159 A 
HETATM    2  N2  UNL     1      21.005   5.324  49.997  1.00  0.00    -0.222 NA
HETATM    3  C8  UNL     1      21.293   6.573  50.443  1.00  0.00     0.238 A 
HETATM    4  N3  UNL     1      22.569   7.035  50.602  1.00  0.00    -0.215 NA
HETATM    5  C9  UNL     1      23.612   6.228  50.309  1.00  0.00     0.202 A 
HETATM    6  C10 UNL     1      23.325   4.939  49.850  1.00  0.00     0.129 A 
HETATM    7  N4  UNL     1      24.268   3.943  49.487  1.00  0.00    -0.379 N 
HETATM    8  C11 UNL     1      25.680   3.907  49.869  1.00  0.00     0.161 C 
HETATM    9  C12 UNL     1      26.351   5.156  49.438  1.00  0.00    -0.006 A 
HETATM   10  C13 UNL     1      27.466   4.899  48.655  1.00  0.00     0.014 A 
HETATM   11  C14 UNL     1      28.201   5.946  48.179  1.00  0.00     0.037 A 
HETATM   12  C15 UNL     1      27.863   7.239  48.457  1.00  0.00     0.070 A 
HETATM   13  C17 UNL     1      26.756   7.537  49.237  1.00  0.00     0.074 A 
HETATM   14  C18 UNL     1      26.008   6.483  49.720  1.00  0.00     0.088 A 
HETATM   15  O2  UNL     1      24.882   6.812  50.511  1.00  0.00    -0.289 OA
HETATM   16  H9  UNL     1      23.823   3.191  48.879  1.00  0.00     0.160 HD
ENDROOT
BRANCH   1  17
HETATM   17  N1  UNL     1      21.703   3.189  49.216  1.00  0.00    -0.349 N 
HETATM   18  H7  UNL     1      21.672   2.791  48.253  1.00  0.00     0.167 HD
BRANCH  17  19
HETATM   19  C6  UNL     1      21.343   2.288  50.280  1.00  0.00     0.090 C 
HETATM   20  C5  UNL     1      22.048   1.317  50.814  1.00  0.00     0.017 C 
BRANCH  20  21
HETATM   21  C4  UNL     1      21.740   0.378  51.886  1.00  0.00     0.003 C 
HETATM   22  C3  UNL     1      22.663   0.173  52.802  1.00  0.00     0.018 C 
BRANCH  22  23
HETATM   23  C2  UNL     1      22.372  -0.749  53.864  1.00  0.00     0.001 C 
HETATM   24  C1  UNL     1      21.258  -1.414  53.885  1.00  0.00     0.032 C 
HETATM   25 BR1  UNL     1      23.128  -1.441  55.452  1.00  0.00    -0.052 Br
ENDBRANCH  22  23
ENDBRANCH  20  21
ENDBRANCH  17  19
ENDBRANCH   1  17
BRANCH  12  26
HETATM   26  O1  UNL     1      28.642   8.266  47.951  1.00  0.00    -0.356 OA
HETATM   27  C16 UNL     1      29.955   8.415  48.430  1.00  0.00     0.210 C 
ENDBRANCH  12  26
TORSDOF 5
ENDMDL
