MODEL 1
REMARK VINA RESULT:      -9.4      0.000      0.000
REMARK  4 active torsions:
REMARK  status: ('A' for Active; 'I' for Inactive)
REMARK    1  A    between atoms: C4_5  and  N1_6 
REMARK    2  A    between atoms: N1_6  and  C5_7 
REMARK    3  A    between atoms: C8_12  and  C9_13 
REMARK    4  A    between atoms: C9_13  and  C14_20 
ROOT
HETATM    1  C5  UNL     1      24.692   3.995  50.760  1.00  0.00     0.111 A 
HETATM    2  N2  UNL     1      24.185   4.495  51.863  1.00  0.00    -0.228 NA
HETATM    3  C6  UNL     1      24.043   3.706  53.036  1.00  0.00     0.235 A 
HETATM    4  N3  UNL     1      24.409   2.446  53.063  1.00  0.00    -0.246 NA
HETATM    5  C7  UNL     1      24.963   1.855  51.895  1.00  0.00     0.043 A 
HETATM    6  C8  UNL     1      25.331   0.570  51.927  1.00  0.00     0.037 C 
HETATM    7  C19 UNL     1      25.153   2.608  50.621  1.00  0.00     0.137 A 
ENDROOT
BRANCH   6   8
HETATM    8  C9  UNL     1      25.112  -0.113  53.222  1.00  0.00    -0.021 C 
HETATM    9  C10 UNL     1      23.948  -0.442  53.803  1.00  0.00     0.076 C 
HETATM   10  C11 UNL     1      23.792  -1.130  55.110  1.00  0.00     0.232 C 
HETATM   11  O2  UNL     1      22.798  -0.081  53.073  1.00  0.00    -0.351 OA
HETATM   12  O1  UNL     1      22.511  -1.697  55.103  1.00  0.00    -0.383 OA
HETATM   13  C12 UNL     1      21.513  -0.753  55.020  1.00  0.00     0.194 C 
HETATM   14  C13 UNL     1      21.588   0.095  53.782  1.00  0.00     0.201 C 
BRANCH   8  15
HETATM   15  C14 UNL     1      26.420  -0.410  53.839  1.00  0.00     0.025 C 
HETATM   16  C15 UNL     1      27.486  -0.710  52.799  1.00  0.00     0.036 C 
HETATM   17  C16 UNL     1      28.701  -1.170  53.577  1.00  0.00     0.168 C 
HETATM   18  O3  UNL     1      29.226  -0.138  54.317  1.00  0.00    -0.391 OA
HETATM   19  C17 UNL     1      28.421   0.956  54.495  1.00  0.00     0.168 C 
HETATM   20  C18 UNL     1      26.964   0.650  54.729  1.00  0.00     0.036 C 
ENDBRANCH   8  15
ENDBRANCH   6   8
BRANCH   1  21
HETATM   21  N1  UNL     1      24.770   4.904  49.680  1.00  0.00    -0.344 N 
HETATM   22  H3  UNL     1      23.874   5.201  49.227  1.00  0.00     0.167 HD
BRANCH  21  23
HETATM   23  C4  UNL     1      25.964   5.447  49.153  1.00  0.00     0.035 A 
HETATM   24  C3  UNL     1      27.083   4.632  48.936  1.00  0.00     0.032 A 
HETATM   25  C2  UNL     1      28.273   5.101  48.431  1.00  0.00     0.046 A 
HETATM   26  C1  UNL     1      28.426   6.414  48.108  1.00  0.00     0.138 A 
HETATM   27  F1  UNL     1      29.580   6.916  47.609  1.00  0.00    -0.204 F 
HETATM   28  C21 UNL     1      27.358   7.260  48.302  1.00  0.00     0.074 A 
HETATM   29  C20 UNL     1      26.183   6.756  48.808  1.00  0.00     0.056 A 
HETATM   30 CL1  UNL     1      27.514   8.974  47.895  1.00  0.00    -0.081 Cl
ENDBRANCH  21  23
ENDBRANCH   1  21
TORSDOF 4
ENDMDL
MODEL 2
REMARK VINA RESULT:      -9.2      0.965      1.323
REMARK  4 active torsions:
REMARK  status: ('A' for Active; 'I' for Inactive)
REMARK    1  A    between atoms: C4_5  and  N1_6 
REMARK    2  A    between atoms: N1_6  and  C5_7 
REMARK    3  A    between atoms: C8_12  and  C9_13 
REMARK    4  A    between atoms: C9_13  and  C14_20 
ROOT
HETATM    1  C5  UNL     1      24.484   4.200  50.815  1.00  0.00     0.111 A 
HETATM    2  N2  UNL     1      23.988   4.656  51.942  1.00  0.00    -0.228 NA
HETATM    3  C6  UNL     1      23.875   3.827  53.090  1.00  0.00     0.235 A 
HETATM    4  N3  UNL     1      24.261   2.573  53.069  1.00  0.00    -0.246 NA
HETATM    5  C7  UNL     1      24.804   2.028  51.874  1.00  0.00     0.043 A 
HETATM    6  C8  UNL     1      25.192   0.749  51.858  1.00  0.00     0.037 C 
HETATM    7  C19 UNL     1      24.963   2.825  50.623  1.00  0.00     0.137 A 
ENDROOT
BRANCH   6   8
HETATM    8  C9  UNL     1      25.004   0.021  53.133  1.00  0.00    -0.021 C 
HETATM    9  C10 UNL     1      23.855  -0.343  53.722  1.00  0.00     0.076 C 
HETATM   10  C11 UNL     1      23.730  -1.076  55.007  1.00  0.00     0.232 C 
HETATM   11  O2  UNL     1      22.688   0.026  53.023  1.00  0.00    -0.351 OA
HETATM   12  O1  UNL     1      22.456  -1.659  55.002  1.00  0.00    -0.383 OA
HETATM   13  C12 UNL     1      21.445  -0.727  54.967  1.00  0.00     0.194 C 
HETATM   14  C13 UNL     1      21.488   0.162  53.757  1.00  0.00     0.201 C 
BRANCH   8  15
HETATM   15  C14 UNL     1      26.327  -0.278  53.718  1.00  0.00     0.025 C 
HETATM   16  C15 UNL     1      27.337  -0.691  52.662  1.00  0.00     0.036 C 
HETATM   17  C16 UNL     1      28.567  -1.138  53.423  1.00  0.00     0.168 C 
HETATM   18  O3  UNL     1      29.157  -0.075  54.065  1.00  0.00    -0.391 OA
HETATM   19  C17 UNL     1      28.397   1.057  54.194  1.00  0.00     0.168 C 
HETATM   20  C18 UNL     1      26.942   0.821  54.507  1.00  0.00     0.036 C 
ENDBRANCH   8  15
ENDBRANCH   6   8
BRANCH   1  21
HETATM   21  N1  UNL     1      24.531   5.145  49.764  1.00  0.00    -0.344 N 
HETATM   22  H3  UNL     1      23.740   5.151  49.078  1.00  0.00     0.167 HD
BRANCH  21  23
HETATM   23  C4  UNL     1      25.565   6.086  49.557  1.00  0.00     0.035 A 
HETATM   24  C3  UNL     1      25.530   7.335  50.191  1.00  0.00     0.032 A 
HETATM   25  C2  UNL     1      26.502   8.294  50.026  1.00  0.00     0.046 A 
HETATM   26  C1  UNL     1      27.574   8.070  49.220  1.00  0.00     0.138 A 
HETATM   27  F1  UNL     1      28.553   8.987  49.031  1.00  0.00    -0.204 F 
HETATM   28  C21 UNL     1      27.660   6.860  48.572  1.00  0.00     0.074 A 
HETATM   29  C20 UNL     1      26.669   5.924  48.759  1.00  0.00     0.056 A 
HETATM   30 CL1  UNL     1      29.037   6.527  47.513  1.00  0.00    -0.081 Cl
ENDBRANCH  21  23
ENDBRANCH   1  21
TORSDOF 4
ENDMDL
MODEL 3
REMARK VINA RESULT:      -8.8      1.936      4.293
REMARK  4 active torsions:
REMARK  status: ('A' for Active; 'I' for Inactive)
REMARK    1  A    between atoms: C4_5  and  N1_6 
REMARK    2  A    between atoms: N1_6  and  C5_7 
REMARK    3  A    between atoms: C8_12  and  C9_13 
REMARK    4  A    between atoms: C9_13  and  C14_20 
ROOT
HETATM    1  C5  UNL     1      25.495   5.003  49.855  1.00  0.00     0.111 A 
HETATM    2  N2  UNL     1      26.342   4.145  49.335  1.00  0.00    -0.228 NA
HETATM    3  C6  UNL     1      26.491   2.837  49.870  1.00  0.00     0.235 A 
HETATM    4  N3  UNL     1      25.791   2.436  50.904  1.00  0.00    -0.246 NA
HETATM    5  C7  UNL     1      24.861   3.326  51.506  1.00  0.00     0.043 A 
HETATM    6  C8  UNL     1      24.153   2.912  52.563  1.00  0.00     0.037 C 
HETATM    7  C19 UNL     1      24.636   4.715  51.010  1.00  0.00     0.137 A 
ENDROOT
BRANCH   6   8
HETATM    8  C9  UNL     1      24.430   1.526  52.999  1.00  0.00    -0.021 C 
HETATM    9  C10 UNL     1      25.508   1.056  53.647  1.00  0.00     0.076 C 
HETATM   10  C11 UNL     1      25.729  -0.353  54.060  1.00  0.00     0.232 C 
HETATM   11  O2  UNL     1      26.491   2.023  53.938  1.00  0.00    -0.351 OA
HETATM   12  O1  UNL     1      26.682  -0.314  55.086  1.00  0.00    -0.383 OA
HETATM   13  C12 UNL     1      27.895   0.180  54.666  1.00  0.00     0.194 C 
HETATM   14  C13 UNL     1      27.821   1.581  54.129  1.00  0.00     0.201 C 
BRANCH   8  15
HETATM   15  C14 UNL     1      23.298   0.661  52.609  1.00  0.00     0.025 C 
HETATM   16  C15 UNL     1      22.289   0.504  53.733  1.00  0.00     0.036 C 
HETATM   17  C16 UNL     1      21.302  -0.541  53.255  1.00  0.00     0.168 C 
HETATM   18  O3  UNL     1      20.565  -0.067  52.196  1.00  0.00    -0.391 OA
HETATM   19  C17 UNL     1      21.049   1.050  51.567  1.00  0.00     0.168 C 
HETATM   20  C18 UNL     1      22.546   1.095  51.402  1.00  0.00     0.036 C 
ENDBRANCH   8  15
ENDBRANCH   6   8
BRANCH   1  21
HETATM   21  N1  UNL     1      25.460   6.262  49.213  1.00  0.00    -0.344 N 
HETATM   22  H3  UNL     1      24.602   6.506  48.663  1.00  0.00     0.167 HD
BRANCH  21  23
HETATM   23  C4  UNL     1      26.493   7.227  49.247  1.00  0.00     0.035 A 
HETATM   24  C3  UNL     1      26.442   8.294  50.152  1.00  0.00     0.032 A 
HETATM   25  C2  UNL     1      27.413   9.266  50.230  1.00  0.00     0.046 A 
HETATM   26  C1  UNL     1      28.499   9.235  49.412  1.00  0.00     0.138 A 
HETATM   27  F1  UNL     1      29.477  10.171  49.457  1.00  0.00    -0.204 F 
HETATM   28  C21 UNL     1      28.600   8.208  48.503  1.00  0.00     0.074 A 
HETATM   29  C20 UNL     1      27.611   7.254  48.452  1.00  0.00     0.056 A 
HETATM   30 CL1  UNL     1      29.996   8.129  47.419  1.00  0.00    -0.081 Cl
ENDBRANCH  21  23
ENDBRANCH   1  21
TORSDOF 4
ENDMDL
MODEL 4
REMARK VINA RESULT:      -8.5      4.504      8.172
REMARK  4 active torsions:
REMARK  status: ('A' for Active; 'I' for Inactive)
REMARK    1  A    between atoms: C4_5  and  N1_6 
REMARK    2  A    between atoms: N1_6  and  C5_7 
REMARK    3  A    between atoms: C8_12  and  C9_13 
REMARK    4  A    between atoms: C9_13  and  C14_20 
ROOT
HETATM    1  C5  UNL     1      24.760   2.163  52.700  1.00  0.00     0.111 A 
HETATM    2  N2  UNL     1      24.213   3.116  53.419  1.00  0.00    -0.228 NA
HETATM    3  C6  UNL     1      23.681   4.286  52.814  1.00  0.00     0.235 A 
HETATM    4  N3  UNL     1      23.715   4.462  51.515  1.00  0.00    -0.246 NA
HETATM    5  C7  UNL     1      24.296   3.461  50.690  1.00  0.00     0.043 A 
HETATM    6  C8  UNL     1      24.331   3.647  49.366  1.00  0.00     0.037 C 
HETATM    7  C19 UNL     1      24.876   2.200  51.237  1.00  0.00     0.137 A 
ENDROOT
BRANCH   6   8
HETATM    8  C9  UNL     1      23.739   4.919  48.896  1.00  0.00    -0.021 C 
HETATM    9  C10 UNL     1      24.273   6.150  48.936  1.00  0.00     0.076 C 
HETATM   10  C11 UNL     1      23.627   7.394  48.446  1.00  0.00     0.232 C 
HETATM   11  O2  UNL     1      25.560   6.220  49.504  1.00  0.00    -0.351 OA
HETATM   12  O1  UNL     1      24.663   8.313  48.229  1.00  0.00    -0.383 OA
HETATM   13  C12 UNL     1      25.338   8.634  49.384  1.00  0.00     0.194 C 
HETATM   14  C13 UNL     1      25.978   7.453  50.056  1.00  0.00     0.201 C 
BRANCH   8  15
HETATM   15  C14 UNL     1      22.399   4.652  48.337  1.00  0.00     0.025 C 
HETATM   16  C15 UNL     1      22.292   3.251  47.759  1.00  0.00     0.036 C 
HETATM   17  C16 UNL     1      20.945   3.194  47.069  1.00  0.00     0.168 C 
HETATM   18  O3  UNL     1      19.924   3.265  47.986  1.00  0.00    -0.391 OA
HETATM   19  C17 UNL     1      20.260   3.701  49.240  1.00  0.00     0.168 C 
HETATM   20  C18 UNL     1      21.264   4.823  49.282  1.00  0.00     0.036 C 
ENDBRANCH   8  15
ENDBRANCH   6   8
BRANCH   1  21
HETATM   21  N1  UNL     1      25.243   1.063  53.445  1.00  0.00    -0.344 N 
HETATM   22  H3  UNL     1      24.555   0.523  54.020  1.00  0.00     0.167 HD
BRANCH  21  23
HETATM   23  C4  UNL     1      26.588   0.629  53.483  1.00  0.00     0.035 A 
HETATM   24  C3  UNL     1      27.623   1.537  53.743  1.00  0.00     0.032 A 
HETATM   25  C2  UNL     1      28.950   1.178  53.788  1.00  0.00     0.046 A 
HETATM   26  C1  UNL     1      29.332  -0.110  53.579  1.00  0.00     0.138 A 
HETATM   27  F1  UNL     1      30.627  -0.505  53.615  1.00  0.00    -0.204 F 
HETATM   28  C21 UNL     1      28.357  -1.044  53.318  1.00  0.00     0.074 A 
HETATM   29  C20 UNL     1      27.040  -0.650  53.280  1.00  0.00     0.056 A 
HETATM   30 CL1  UNL     1      28.810  -2.731  53.039  1.00  0.00    -0.081 Cl
ENDBRANCH  21  23
ENDBRANCH   1  21
TORSDOF 4
ENDMDL
MODEL 5
REMARK VINA RESULT:      -8.5      1.757      2.445
REMARK  4 active torsions:
REMARK  status: ('A' for Active; 'I' for Inactive)
REMARK    1  A    between atoms: C4_5  and  N1_6 
REMARK    2  A    between atoms: N1_6  and  C5_7 
REMARK    3  A    between atoms: C8_12  and  C9_13 
REMARK    4  A    between atoms: C9_13  and  C14_20 
ROOT
HETATM    1  C5  UNL     1      24.253   5.151  49.551  1.00  0.00     0.111 A 
HETATM    2  N2  UNL     1      23.941   4.187  48.716  1.00  0.00    -0.228 NA
HETATM    3  C6  UNL     1      23.705   2.862  49.171  1.00  0.00     0.235 A 
HETATM    4  N3  UNL     1      23.792   2.548  50.442  1.00  0.00    -0.246 NA
HETATM    5  C7  UNL     1      24.128   3.553  51.388  1.00  0.00     0.043 A 
HETATM    6  C8  UNL     1      24.219   3.226  52.682  1.00  0.00     0.037 C 
HETATM    7  C19 UNL     1      24.389   4.970  51.002  1.00  0.00     0.137 A 
ENDROOT
BRANCH   6   8
HETATM    8  C9  UNL     1      23.948   1.804  52.990  1.00  0.00    -0.021 C 
HETATM    9  C10 UNL     1      22.769   1.164  52.994  1.00  0.00     0.076 C 
HETATM   10  C11 UNL     1      22.560  -0.272  53.312  1.00  0.00     0.232 C 
HETATM   11  O2  UNL     1      21.658   1.965  52.661  1.00  0.00    -0.351 OA
HETATM   12  O1  UNL     1      21.330  -0.624  52.741  1.00  0.00    -0.383 OA
HETATM   13  C12 UNL     1      20.274   0.070  53.286  1.00  0.00     0.194 C 
HETATM   14  C13 UNL     1      20.384   1.560  53.123  1.00  0.00     0.201 C 
BRANCH   8  15
HETATM   15  C14 UNL     1      25.221   1.129  53.313  1.00  0.00     0.025 C 
HETATM   16  C15 UNL     1      25.859   0.500  52.087  1.00  0.00     0.036 C 
HETATM   17  C16 UNL     1      27.037  -0.300  52.602  1.00  0.00     0.168 C 
HETATM   18  O3  UNL     1      28.009   0.532  53.105  1.00  0.00    -0.391 OA
HETATM   19  C17 UNL     1      27.632   1.823  53.365  1.00  0.00     0.168 C 
HETATM   20  C18 UNL     1      26.255   1.983  53.955  1.00  0.00     0.036 C 
ENDBRANCH   8  15
ENDBRANCH   6   8
BRANCH   1  21
HETATM   21  N1  UNL     1      24.457   6.413  48.948  1.00  0.00    -0.344 N 
HETATM   22  H3  UNL     1      23.661   7.093  48.961  1.00  0.00     0.167 HD
BRANCH  21  23
HETATM   23  C4  UNL     1      25.651   6.836  48.321  1.00  0.00     0.035 A 
HETATM   24  C3  UNL     1      25.633   7.871  47.377  1.00  0.00     0.032 A 
HETATM   25  C2  UNL     1      26.759   8.324  46.730  1.00  0.00     0.046 A 
HETATM   26  C1  UNL     1      27.978   7.775  46.983  1.00  0.00     0.138 A 
HETATM   27  F1  UNL     1      29.110   8.191  46.368  1.00  0.00    -0.204 F 
HETATM   28  C21 UNL     1      28.054   6.754  47.901  1.00  0.00     0.074 A 
HETATM   29  C20 UNL     1      26.908   6.326  48.530  1.00  0.00     0.056 A 
HETATM   30 CL1  UNL     1      29.619   6.012  48.260  1.00  0.00    -0.081 Cl
ENDBRANCH  21  23
ENDBRANCH   1  21
TORSDOF 4
ENDMDL
MODEL 6
REMARK VINA RESULT:      -8.4      4.379      7.695
REMARK  4 active torsions:
REMARK  status: ('A' for Active; 'I' for Inactive)
REMARK    1  A    between atoms: C4_5  and  N1_6 
REMARK    2  A    between atoms: N1_6  and  C5_7 
REMARK    3  A    between atoms: C8_12  and  C9_13 
REMARK    4  A    between atoms: C9_13  and  C14_20 
ROOT
HETATM    1  C5  UNL     1      24.440   2.343  51.788  1.00  0.00     0.111 A 
HETATM    2  N2  UNL     1      24.023   3.032  52.825  1.00  0.00    -0.228 NA
HETATM    3  C6  UNL     1      23.618   4.388  52.698  1.00  0.00     0.235 A 
HETATM    4  N3  UNL     1      23.646   5.005  51.540  1.00  0.00    -0.246 NA
HETATM    5  C7  UNL     1      24.090   4.305  50.386  1.00  0.00     0.043 A 
HETATM    6  C8  UNL     1      24.120   4.941  49.210  1.00  0.00     0.037 C 
HETATM    7  C19 UNL     1      24.531   2.881  50.425  1.00  0.00     0.137 A 
ENDROOT
BRANCH   6   8
HETATM    8  C9  UNL     1      23.671   6.350  49.247  1.00  0.00    -0.021 C 
HETATM    9  C10 UNL     1      22.425   6.822  49.411  1.00  0.00     0.076 C 
HETATM   10  C11 UNL     1      22.035   8.255  49.441  1.00  0.00     0.232 C 
HETATM   11  O2  UNL     1      21.432   5.834  49.564  1.00  0.00    -0.351 OA
HETATM   12  O1  UNL     1      20.798   8.310  50.097  1.00  0.00    -0.383 OA
HETATM   13  C12 UNL     1      19.808   7.634  49.422  1.00  0.00     0.194 C 
HETATM   14  C13 UNL     1      20.100   6.172  49.230  1.00  0.00     0.201 C 
BRANCH   8  15
HETATM   15  C14 UNL     1      24.839   7.235  49.071  1.00  0.00     0.025 C 
HETATM   16  C15 UNL     1      25.538   7.525  50.388  1.00  0.00     0.036 C 
HETATM   17  C16 UNL     1      26.583   8.576  50.076  1.00  0.00     0.168 C 
HETATM   18  O3  UNL     1      27.570   8.059  49.272  1.00  0.00    -0.391 OA
HETATM   19  C17 UNL     1      27.285   6.876  48.641  1.00  0.00     0.168 C 
HETATM   20  C18 UNL     1      25.876   6.747  48.124  1.00  0.00     0.036 C 
ENDBRANCH   8  15
ENDBRANCH   6   8
BRANCH   1  21
HETATM   21  N1  UNL     1      24.808   1.008  52.075  1.00  0.00    -0.344 N 
HETATM   22  H3  UNL     1      24.091   0.261  51.921  1.00  0.00     0.167 HD
BRANCH  21  23
HETATM   23  C4  UNL     1      26.070   0.594  52.558  1.00  0.00     0.035 A 
HETATM   24  C3  UNL     1      26.458  -0.750  52.479  1.00  0.00     0.032 A 
HETATM   25  C2  UNL     1      27.669  -1.216  52.936  1.00  0.00     0.046 A 
HETATM   26  C1  UNL     1      28.574  -0.371  53.500  1.00  0.00     0.138 A 
HETATM   27  F1  UNL     1      29.777  -0.788  53.961  1.00  0.00    -0.204 F 
HETATM   28  C21 UNL     1      28.245   0.961  53.603  1.00  0.00     0.074 A 
HETATM   29  C20 UNL     1      27.025   1.391  53.136  1.00  0.00     0.056 A 
HETATM   30 CL1  UNL     1      29.392   2.094  54.330  1.00  0.00    -0.081 Cl
ENDBRANCH  21  23
ENDBRANCH   1  21
TORSDOF 4
ENDMDL
MODEL 7
REMARK VINA RESULT:      -8.4      4.585      8.042
REMARK  4 active torsions:
REMARK  status: ('A' for Active; 'I' for Inactive)
REMARK    1  A    between atoms: C4_5  and  N1_6 
REMARK    2  A    between atoms: N1_6  and  C5_7 
REMARK    3  A    between atoms: C8_12  and  C9_13 
REMARK    4  A    between atoms: C9_13  and  C14_20 
ROOT
HETATM    1  C5  UNL     1      25.061   2.220  52.430  1.00  0.00     0.111 A 
HETATM    2  N2  UNL     1      24.193   2.988  53.048  1.00  0.00    -0.228 NA
HETATM    3  C6  UNL     1      23.765   4.221  52.486  1.00  0.00     0.235 A 
HETATM    4  N3  UNL     1      24.220   4.641  51.330  1.00  0.00    -0.246 NA
HETATM    5  C7  UNL     1      25.162   3.849  50.620  1.00  0.00     0.043 A 
HETATM    6  C8  UNL     1      25.625   4.285  49.444  1.00  0.00     0.037 C 
HETATM    7  C19 UNL     1      25.665   2.541  51.131  1.00  0.00     0.137 A 
ENDROOT
BRANCH   6   8
HETATM    8  C9  UNL     1      25.083   5.589  49.001  1.00  0.00    -0.021 C 
HETATM    9  C10 UNL     1      23.929   5.837  48.362  1.00  0.00     0.076 C 
HETATM   10  C11 UNL     1      23.437   7.174  47.942  1.00  0.00     0.232 C 
HETATM   11  O2  UNL     1      23.149   4.697  48.085  1.00  0.00    -0.351 OA
HETATM   12  O1  UNL     1      22.052   7.045  47.774  1.00  0.00    -0.383 OA
HETATM   13  C12 UNL     1      21.718   6.159  46.777  1.00  0.00     0.194 C 
HETATM   14  C13 UNL     1      22.228   4.765  47.014  1.00  0.00     0.201 C 
BRANCH   8  15
HETATM   15  C14 UNL     1      26.031   6.658  49.373  1.00  0.00     0.025 C 
HETATM   16  C15 UNL     1      26.646   7.324  48.155  1.00  0.00     0.036 C 
HETATM   17  C16 UNL     1      27.716   8.253  48.691  1.00  0.00     0.168 C 
HETATM   18  O3  UNL     1      27.153   9.288  49.399  1.00  0.00    -0.391 OA
HETATM   19  C17 UNL     1      25.846   9.128  49.777  1.00  0.00     0.168 C 
HETATM   20  C18 UNL     1      25.473   7.740  50.228  1.00  0.00     0.036 C 
ENDBRANCH   8  15
ENDBRANCH   6   8
BRANCH   1  21
HETATM   21  N1  UNL     1      25.388   1.027  53.115  1.00  0.00    -0.344 N 
HETATM   22  H3  UNL     1      24.603   0.473  53.530  1.00  0.00     0.167 HD
BRANCH  21  23
HETATM   23  C4  UNL     1      26.694   0.517  53.291  1.00  0.00     0.035 A 
HETATM   24  C3  UNL     1      27.742   1.361  53.681  1.00  0.00     0.032 A 
HETATM   25  C2  UNL     1      29.035   0.927  53.863  1.00  0.00     0.046 A 
HETATM   26  C1  UNL     1      29.367  -0.378  53.671  1.00  0.00     0.138 A 
HETATM   27  F1  UNL     1      30.626  -0.846  53.840  1.00  0.00    -0.204 F 
HETATM   28  C21 UNL     1      28.376  -1.252  53.286  1.00  0.00     0.074 A 
HETATM   29  C20 UNL     1      27.094  -0.783  53.113  1.00  0.00     0.056 A 
HETATM   30 CL1  UNL     1      28.764  -2.958  53.024  1.00  0.00    -0.081 Cl
ENDBRANCH  21  23
ENDBRANCH   1  21
TORSDOF 4
ENDMDL
MODEL 8
REMARK VINA RESULT:      -8.3      4.728      7.797
REMARK  4 active torsions:
REMARK  status: ('A' for Active; 'I' for Inactive)
REMARK    1  A    between atoms: C4_5  and  N1_6 
REMARK    2  A    between atoms: N1_6  and  C5_7 
REMARK    3  A    between atoms: C8_12  and  C9_13 
REMARK    4  A    between atoms: C9_13  and  C14_20 
ROOT
HETATM    1  C5  UNL     1      25.249   2.754  52.069  1.00  0.00     0.111 A 
HETATM    2  N2  UNL     1      25.383   2.793  50.763  1.00  0.00    -0.228 NA
HETATM    3  C6  UNL     1      24.307   3.180  49.920  1.00  0.00     0.235 A 
HETATM    4  N3  UNL     1      23.137   3.512  50.412  1.00  0.00    -0.246 NA
HETATM    5  C7  UNL     1      22.938   3.487  51.819  1.00  0.00     0.043 A 
HETATM    6  C8  UNL     1      21.742   3.824  52.314  1.00  0.00     0.037 C 
HETATM    7  C19 UNL     1      24.011   3.097  52.779  1.00  0.00     0.137 A 
ENDROOT
BRANCH   6   8
HETATM    8  C9  UNL     1      20.728   4.197  51.304  1.00  0.00    -0.021 C 
HETATM    9  C10 UNL     1      20.628   5.341  50.608  1.00  0.00     0.076 C 
HETATM   10  C11 UNL     1      19.583   5.658  49.602  1.00  0.00     0.232 C 
HETATM   11  O2  UNL     1      21.625   6.295  50.891  1.00  0.00    -0.351 OA
HETATM   12  O1  UNL     1      20.108   6.682  48.802  1.00  0.00    -0.383 OA
HETATM   13  C12 UNL     1      20.355   7.836  49.510  1.00  0.00     0.194 C 
HETATM   14  C13 UNL     1      21.336   7.655  50.633  1.00  0.00     0.201 C 
BRANCH   8  15
HETATM   15  C14 UNL     1      19.773   3.082  51.141  1.00  0.00     0.025 C 
HETATM   16  C15 UNL     1      20.094   2.231  49.925  1.00  0.00     0.036 C 
HETATM   17  C16 UNL     1      18.940   1.260  49.788  1.00  0.00     0.168 C 
HETATM   18  O3  UNL     1      18.924   0.370  50.835  1.00  0.00    -0.391 OA
HETATM   19  C17 UNL     1      19.679   0.702  51.929  1.00  0.00     0.168 C 
HETATM   20  C18 UNL     1      19.660   2.161  52.303  1.00  0.00     0.036 C 
ENDBRANCH   8  15
ENDBRANCH   6   8
BRANCH   1  21
HETATM   21  N1  UNL     1      26.408   2.351  52.771  1.00  0.00    -0.344 N 
HETATM   22  H3  UNL     1      26.945   3.085  53.289  1.00  0.00     0.167 HD
BRANCH  21  23
HETATM   23  C4  UNL     1      26.910   1.030  52.830  1.00  0.00     0.035 A 
HETATM   24  C3  UNL     1      26.111  -0.054  52.444  1.00  0.00     0.032 A 
HETATM   25  C2  UNL     1      26.539  -1.360  52.483  1.00  0.00     0.046 A 
HETATM   26  C1  UNL     1      27.793  -1.672  52.908  1.00  0.00     0.138 A 
HETATM   27  F1  UNL     1      28.253  -2.944  52.962  1.00  0.00    -0.204 F 
HETATM   28  C21 UNL     1      28.621  -0.645  53.301  1.00  0.00     0.074 A 
HETATM   29  C20 UNL     1      28.160   0.649  53.248  1.00  0.00     0.056 A 
HETATM   30 CL1  UNL     1      30.259  -1.006  53.861  1.00  0.00    -0.081 Cl
ENDBRANCH  21  23
ENDBRANCH   1  21
TORSDOF 4
ENDMDL
MODEL 9
REMARK VINA RESULT:      -8.0      4.717      7.203
REMARK  4 active torsions:
REMARK  status: ('A' for Active; 'I' for Inactive)
REMARK    1  A    between atoms: C4_5  and  N1_6 
REMARK    2  A    between atoms: N1_6  and  C5_7 
REMARK    3  A    between atoms: C8_12  and  C9_13 
REMARK    4  A    between atoms: C9_13  and  C14_20 
ROOT
HETATM    1  C5  UNL     1      24.330   2.529  51.407  1.00  0.00     0.111 A 
HETATM    2  N2  UNL     1      23.960   3.614  52.048  1.00  0.00    -0.228 NA
HETATM    3  C6  UNL     1      22.590   3.894  52.298  1.00  0.00     0.235 A 
HETATM    4  N3  UNL     1      21.641   3.082  51.897  1.00  0.00    -0.246 NA
HETATM    5  C7  UNL     1      21.987   1.895  51.197  1.00  0.00     0.043 A 
HETATM    6  C8  UNL     1      21.014   1.074  50.787  1.00  0.00     0.037 C 
HETATM    7  C19 UNL     1      23.398   1.518  50.894  1.00  0.00     0.137 A 
ENDROOT
BRANCH   6   8
HETATM    8  C9  UNL     1      19.641   1.511  51.122  1.00  0.00    -0.021 C 
HETATM    9  C10 UNL     1      18.908   2.471  50.537  1.00  0.00     0.076 C 
HETATM   10  C11 UNL     1      17.528   2.866  50.919  1.00  0.00     0.232 C 
HETATM   11  O2  UNL     1      19.545   3.137  49.471  1.00  0.00    -0.351 OA
HETATM   12  O1  UNL     1      16.983   3.514  49.802  1.00  0.00    -0.383 OA
HETATM   13  C12 UNL     1      17.659   4.666  49.474  1.00  0.00     0.194 C 
HETATM   14  C13 UNL     1      19.108   4.442  49.145  1.00  0.00     0.201 C 
BRANCH   8  15
HETATM   15  C14 UNL     1      19.140   0.708  52.255  1.00  0.00     0.025 C 
HETATM   16  C15 UNL     1      18.362  -0.511  51.789  1.00  0.00     0.036 C 
HETATM   17  C16 UNL     1      17.764  -1.119  53.040  1.00  0.00     0.168 C 
HETATM   18  O3  UNL     1      18.749  -1.631  53.852  1.00  0.00    -0.391 OA
HETATM   19  C17 UNL     1      20.030  -1.222  53.588  1.00  0.00     0.168 C 
HETATM   20  C18 UNL     1      20.175   0.228  53.208  1.00  0.00     0.036 C 
ENDBRANCH   8  15
ENDBRANCH   6   8
BRANCH   1  21
HETATM   21  N1  UNL     1      25.727   2.391  51.236  1.00  0.00    -0.344 N 
HETATM   22  H3  UNL     1      26.186   2.959  50.487  1.00  0.00     0.167 HD
BRANCH  21  23
HETATM   23  C4  UNL     1      26.562   1.540  51.996  1.00  0.00     0.035 A 
HETATM   24  C3  UNL     1      27.524   2.074  52.864  1.00  0.00     0.032 A 
HETATM   25  C2  UNL     1      28.368   1.300  53.625  1.00  0.00     0.046 A 
HETATM   26  C1  UNL     1      28.309  -0.058  53.573  1.00  0.00     0.138 A 
HETATM   27  F1  UNL     1      29.121  -0.856  54.305  1.00  0.00    -0.204 F 
HETATM   28  C21 UNL     1      27.382  -0.637  52.736  1.00  0.00     0.074 A 
HETATM   29  C20 UNL     1      26.554   0.168  51.989  1.00  0.00     0.056 A 
HETATM   30 CL1  UNL     1      27.271  -2.399  52.636  1.00  0.00    -0.081 Cl
ENDBRANCH  21  23
ENDBRANCH   1  21
TORSDOF 4
ENDMDL
