MODEL 1
REMARK VINA RESULT:      -8.2      0.000      0.000
REMARK  3 active torsions:
REMARK  status: ('A' for Active; 'I' for Inactive)
REMARK    1  A    between atoms: O1_1  and  C1_2 
REMARK    2  A    between atoms: C1_2  and  C2_3 
REMARK    3  A    between atoms: C3_5  and  C4_6 
ROOT
HETATM    1  C2  UNL     1      22.549  -0.335  53.396  1.00  0.00     0.232 C 
HETATM    2  N1  UNL     1      23.910  -0.572  53.784  1.00  0.00    -0.263 NA
HETATM    3  C3  UNL     1      24.776   0.092  53.098  1.00  0.00     0.065 C 
HETATM    4  C9  UNL     1      24.092   0.914  52.124  1.00  0.00     0.144 C 
HETATM    5  C10 UNL     1      24.479   2.356  52.002  1.00  0.00     0.037 C 
HETATM    6  C11 UNL     1      23.403   3.197  52.715  1.00  0.00     0.044 C 
HETATM    7  C12 UNL     1      22.193   2.941  51.858  1.00  0.00    -0.064 C 
HETATM    8  C13 UNL     1      21.679   1.713  52.053  1.00  0.00     0.091 C 
HETATM    9  N3  UNL     1      22.681   0.790  52.525  1.00  0.00    -0.355 N 
HETATM   10  C14 UNL     1      21.417   3.684  50.811  1.00  0.00     0.036 C 
HETATM   11  C15 UNL     1      22.345   3.578  49.579  1.00  0.00     0.006 C 
HETATM   12  C16 UNL     1      23.727   3.907  50.135  1.00  0.00     0.021 C 
HETATM   13  C17 UNL     1      24.527   2.722  50.539  1.00  0.00     0.089 C 
HETATM   14 CL1  UNL     1      26.231   3.054  50.060  1.00  0.00    -0.125 Cl
ENDROOT
BRANCH   3  15
HETATM   15  C4  UNL     1      26.149  -0.172  53.512  1.00  0.00    -0.007 A 
HETATM   16  C5  UNL     1      26.964  -1.035  52.813  1.00  0.00     0.032 A 
HETATM   17  C6  UNL     1      28.266  -1.341  53.104  1.00  0.00     0.117 A 
HETATM   18  N2  UNL     1      28.822  -0.743  54.187  1.00  0.00    -0.273 NA
HETATM   19  C7  UNL     1      28.118   0.120  54.944  1.00  0.00     0.117 A 
HETATM   20  C8  UNL     1      26.818   0.372  54.583  1.00  0.00     0.032 A 
ENDBRANCH   3  15
BRANCH   1  21
HETATM   21  C1  UNL     1      21.640  -0.118  54.583  1.00  0.00     0.213 C 
BRANCH  21  22
HETATM   22  O1  UNL     1      21.169  -1.369  54.972  1.00  0.00    -0.397 OA
HETATM   23  H1  UNL     1      21.958  -1.959  55.014  1.00  0.00     0.209 HD
ENDBRANCH  21  22
ENDBRANCH   1  21
TORSDOF 3
ENDMDL
MODEL 2
REMARK VINA RESULT:      -8.0      3.150      4.139
REMARK  3 active torsions:
REMARK  status: ('A' for Active; 'I' for Inactive)
REMARK    1  A    between atoms: O1_1  and  C1_2 
REMARK    2  A    between atoms: C1_2  and  C2_3 
REMARK    3  A    between atoms: C3_5  and  C4_6 
ROOT
HETATM    1  C2  UNL     1      26.218   3.517  50.829  1.00  0.00     0.232 C 
HETATM    2  N1  UNL     1      26.878   2.317  51.261  1.00  0.00    -0.263 NA
HETATM    3  C3  UNL     1      26.138   1.537  51.971  1.00  0.00     0.065 C 
HETATM    4  C9  UNL     1      24.819   2.117  52.109  1.00  0.00     0.144 C 
HETATM    5  C10 UNL     1      23.624   1.252  51.851  1.00  0.00     0.037 C 
HETATM    6  C11 UNL     1      23.077   1.605  50.455  1.00  0.00     0.044 C 
HETATM    7  C12 UNL     1      22.620   3.025  50.652  1.00  0.00    -0.064 C 
HETATM    8  C13 UNL     1      23.650   3.889  50.712  1.00  0.00     0.091 C 
HETATM    9  N3  UNL     1      24.857   3.242  51.162  1.00  0.00    -0.355 N 
HETATM   10  C14 UNL     1      21.313   3.738  50.834  1.00  0.00     0.036 C 
HETATM   11  C15 UNL     1      20.951   3.390  52.296  1.00  0.00     0.006 C 
HETATM   12  C16 UNL     1      21.225   1.894  52.393  1.00  0.00     0.021 C 
HETATM   13  C17 UNL     1      22.579   1.546  52.899  1.00  0.00     0.089 C 
HETATM   14 CL1  UNL     1      22.383   0.112  53.970  1.00  0.00    -0.125 Cl
ENDROOT
BRANCH   3  15
HETATM   15  C4  UNL     1      26.835   0.329  52.398  1.00  0.00    -0.007 A 
HETATM   16  C5  UNL     1      28.007   0.386  53.120  1.00  0.00     0.032 A 
HETATM   17  C6  UNL     1      28.731  -0.680  53.581  1.00  0.00     0.117 A 
HETATM   18  N2  UNL     1      28.260  -1.922  53.307  1.00  0.00    -0.273 NA
HETATM   19  C7  UNL     1      27.122  -2.096  52.608  1.00  0.00     0.117 A 
HETATM   20  C8  UNL     1      26.456  -0.975  52.182  1.00  0.00     0.032 A 
ENDBRANCH   3  15
BRANCH   1  21
HETATM   21  C1  UNL     1      26.469   3.819  49.370  1.00  0.00     0.213 C 
BRANCH  21  22
HETATM   22  O1  UNL     1      27.699   4.467  49.290  1.00  0.00    -0.397 OA
HETATM   23  H1  UNL     1      28.210   4.000  48.589  1.00  0.00     0.209 HD
ENDBRANCH  21  22
ENDBRANCH   1  21
TORSDOF 3
ENDMDL
MODEL 3
REMARK VINA RESULT:      -7.9      3.290      5.461
REMARK  3 active torsions:
REMARK  status: ('A' for Active; 'I' for Inactive)
REMARK    1  A    between atoms: O1_1  and  C1_2 
REMARK    2  A    between atoms: C1_2  and  C2_3 
REMARK    3  A    between atoms: C3_5  and  C4_6 
ROOT
HETATM    1  C2  UNL     1      27.130   1.358  52.302  1.00  0.00     0.232 C 
HETATM    2  N1  UNL     1      27.227   2.521  51.466  1.00  0.00    -0.263 NA
HETATM    3  C3  UNL     1      26.136   2.815  50.846  1.00  0.00     0.065 C 
HETATM    4  C9  UNL     1      25.107   1.863  51.202  1.00  0.00     0.144 C 
HETATM    5  C10 UNL     1      23.758   2.379  51.599  1.00  0.00     0.037 C 
HETATM    6  C11 UNL     1      23.653   2.297  53.134  1.00  0.00     0.044 C 
HETATM    7  C12 UNL     1      23.697   0.811  53.369  1.00  0.00    -0.064 C 
HETATM    8  C13 UNL     1      24.934   0.305  53.203  1.00  0.00     0.091 C 
HETATM    9  N3  UNL     1      25.722   1.117  52.312  1.00  0.00    -0.355 N 
HETATM   10  C14 UNL     1      22.718  -0.272  53.709  1.00  0.00     0.036 C 
HETATM   11  C15 UNL     1      21.978  -0.478  52.366  1.00  0.00     0.006 C 
HETATM   12  C16 UNL     1      21.683   0.940  51.892  1.00  0.00     0.021 C 
HETATM   13  C17 UNL     1      22.701   1.506  50.968  1.00  0.00     0.089 C 
HETATM   14 CL1  UNL     1      21.808   2.451  49.723  1.00  0.00    -0.125 Cl
ENDROOT
BRANCH   3  15
HETATM   15  C4  UNL     1      26.265   3.998  50.002  1.00  0.00    -0.007 A 
HETATM   16  C5  UNL     1      25.270   4.948  49.930  1.00  0.00     0.032 A 
HETATM   17  C6  UNL     1      25.295   6.097  49.186  1.00  0.00     0.117 A 
HETATM   18  N2  UNL     1      26.402   6.336  48.440  1.00  0.00    -0.273 NA
HETATM   19  C7  UNL     1      27.436   5.475  48.435  1.00  0.00     0.117 A 
HETATM   20  C8  UNL     1      27.332   4.346  49.209  1.00  0.00     0.032 A 
ENDBRANCH   3  15
BRANCH   1  21
HETATM   21  C1  UNL     1      27.750   1.573  53.663  1.00  0.00     0.213 C 
BRANCH  21  22
HETATM   22  O1  UNL     1      27.553   2.911  53.996  1.00  0.00    -0.397 OA
HETATM   23  H1  UNL     1      28.170   3.429  53.428  1.00  0.00     0.209 HD
ENDBRANCH  21  22
ENDBRANCH   1  21
TORSDOF 3
ENDMDL
MODEL 4
REMARK VINA RESULT:      -7.9      2.890      4.147
REMARK  3 active torsions:
REMARK  status: ('A' for Active; 'I' for Inactive)
REMARK    1  A    between atoms: O1_1  and  C1_2 
REMARK    2  A    between atoms: C1_2  and  C2_3 
REMARK    3  A    between atoms: C3_5  and  C4_6 
ROOT
HETATM    1  C2  UNL     1      25.175   2.702  52.202  1.00  0.00     0.232 C 
HETATM    2  N1  UNL     1      26.190   1.693  52.312  1.00  0.00    -0.263 NA
HETATM    3  C3  UNL     1      25.823   0.648  52.971  1.00  0.00     0.065 C 
HETATM    4  C9  UNL     1      24.450   0.806  53.400  1.00  0.00     0.144 C 
HETATM    5  C10 UNL     1      23.491  -0.320  53.168  1.00  0.00     0.037 C 
HETATM    6  C11 UNL     1      22.618   0.045  51.953  1.00  0.00     0.044 C 
HETATM    7  C12 UNL     1      21.857   1.238  52.465  1.00  0.00    -0.064 C 
HETATM    8  C13 UNL     1      22.623   2.343  52.528  1.00  0.00     0.091 C 
HETATM    9  N3  UNL     1      24.018   2.011  52.675  1.00  0.00    -0.355 N 
HETATM   10  C14 UNL     1      20.470   1.520  52.959  1.00  0.00     0.036 C 
HETATM   11  C15 UNL     1      20.492   0.893  54.373  1.00  0.00     0.006 C 
HETATM   12  C16 UNL     1      21.154  -0.463  54.159  1.00  0.00     0.021 C 
HETATM   13  C17 UNL     1      22.623  -0.476  54.393  1.00  0.00     0.089 C 
HETATM   14 CL1  UNL     1      23.008  -2.035  55.206  1.00  0.00    -0.125 Cl
ENDROOT
BRANCH   3  15
HETATM   15  C4  UNL     1      26.874  -0.358  53.069  1.00  0.00    -0.007 A 
HETATM   16  C5  UNL     1      28.108  -0.066  53.609  1.00  0.00     0.032 A 
HETATM   17  C6  UNL     1      29.155  -0.934  53.762  1.00  0.00     0.117 A 
HETATM   18  N2  UNL     1      28.975  -2.212  53.343  1.00  0.00    -0.273 NA
HETATM   19  C7  UNL     1      27.809  -2.608  52.799  1.00  0.00     0.117 A 
HETATM   20  C8  UNL     1      26.809  -1.675  52.682  1.00  0.00     0.032 A 
ENDBRANCH   3  15
BRANCH   1  21
HETATM   21  C1  UNL     1      25.059   3.254  50.800  1.00  0.00     0.213 C 
BRANCH  21  22
HETATM   22  O1  UNL     1      26.140   4.110  50.606  1.00  0.00    -0.397 OA
HETATM   23  H1  UNL     1      26.132   4.350  49.650  1.00  0.00     0.209 HD
ENDBRANCH  21  22
ENDBRANCH   1  21
TORSDOF 3
ENDMDL
MODEL 5
REMARK VINA RESULT:      -7.6      1.356      1.550
REMARK  3 active torsions:
REMARK  status: ('A' for Active; 'I' for Inactive)
REMARK    1  A    between atoms: O1_1  and  C1_2 
REMARK    2  A    between atoms: C1_2  and  C2_3 
REMARK    3  A    between atoms: C3_5  and  C4_6 
ROOT
HETATM    1  C2  UNL     1      23.181   0.293  52.769  1.00  0.00     0.232 C 
HETATM    2  N1  UNL     1      24.478   0.420  53.371  1.00  0.00    -0.263 NA
HETATM    3  C3  UNL     1      25.293   1.169  52.710  1.00  0.00     0.065 C 
HETATM    4  C9  UNL     1      24.629   1.684  51.533  1.00  0.00     0.144 C 
HETATM    5  C10 UNL     1      24.731   3.148  51.233  1.00  0.00     0.037 C 
HETATM    6  C11 UNL     1      23.403   3.809  51.648  1.00  0.00     0.044 C 
HETATM    7  C12 UNL     1      22.430   3.179  50.689  1.00  0.00    -0.064 C 
HETATM    8  C13 UNL     1      22.151   1.902  51.009  1.00  0.00     0.091 C 
HETATM    9  N3  UNL     1      23.226   1.298  51.754  1.00  0.00    -0.355 N 
HETATM   10  C14 UNL     1      21.705   3.587  49.441  1.00  0.00     0.036 C 
HETATM   11  C15 UNL     1      22.827   3.536  48.378  1.00  0.00     0.006 C 
HETATM   12  C16 UNL     1      24.001   4.236  49.055  1.00  0.00     0.021 C 
HETATM   13  C17 UNL     1      24.947   3.324  49.749  1.00  0.00     0.089 C 
HETATM   14 CL1  UNL     1      26.602   3.967  49.457  1.00  0.00    -0.125 Cl
ENDROOT
BRANCH   3  15
HETATM   15  C4  UNL     1      26.603   1.277  53.343  1.00  0.00    -0.007 A 
HETATM   16  C5  UNL     1      27.063   0.323  54.224  1.00  0.00     0.032 A 
HETATM   17  C6  UNL     1      28.275   0.319  54.859  1.00  0.00     0.117 A 
HETATM   18  N2  UNL     1      29.118   1.351  54.606  1.00  0.00    -0.273 NA
HETATM   19  C7  UNL     1      28.772   2.341  53.761  1.00  0.00     0.117 A 
HETATM   20  C8  UNL     1      27.538   2.269  53.165  1.00  0.00     0.032 A 
ENDBRANCH   3  15
BRANCH   1  21
HETATM   21  C1  UNL     1      22.062   0.451  53.772  1.00  0.00     0.213 C 
BRANCH  21  22
HETATM   22  O1  UNL     1      21.202  -0.631  53.600  1.00  0.00    -0.397 OA
HETATM   23  H1  UNL     1      21.391  -0.991  52.701  1.00  0.00     0.209 HD
ENDBRANCH  21  22
ENDBRANCH   1  21
TORSDOF 3
ENDMDL
MODEL 6
REMARK VINA RESULT:      -7.6      3.094      4.302
REMARK  3 active torsions:
REMARK  status: ('A' for Active; 'I' for Inactive)
REMARK    1  A    between atoms: O1_1  and  C1_2 
REMARK    2  A    between atoms: C1_2  and  C2_3 
REMARK    3  A    between atoms: C3_5  and  C4_6 
ROOT
HETATM    1  C2  UNL     1      21.114   2.772  50.967  1.00  0.00     0.232 C 
HETATM    2  N1  UNL     1      21.033   1.738  51.959  1.00  0.00    -0.263 NA
HETATM    3  C3  UNL     1      22.160   1.167  52.216  1.00  0.00     0.065 C 
HETATM    4  C9  UNL     1      23.201   1.771  51.414  1.00  0.00     0.144 C 
HETATM    5  C10 UNL     1      24.478   2.180  52.083  1.00  0.00     0.037 C 
HETATM    6  C11 UNL     1      24.443   3.708  52.274  1.00  0.00     0.044 C 
HETATM    7  C12 UNL     1      24.457   4.198  50.851  1.00  0.00    -0.064 C 
HETATM    8  C13 UNL     1      23.271   4.024  50.239  1.00  0.00     0.091 C 
HETATM    9  N3  UNL     1      22.526   2.940  50.829  1.00  0.00    -0.355 N 
HETATM   10  C14 UNL     1      25.458   4.804  49.913  1.00  0.00     0.036 C 
HETATM   11  C15 UNL     1      26.329   3.585  49.530  1.00  0.00     0.006 C 
HETATM   12  C16 UNL     1      26.591   2.892  50.863  1.00  0.00     0.021 C 
HETATM   13  C17 UNL     1      25.634   1.802  51.190  1.00  0.00     0.089 C 
HETATM   14 CL1  UNL     1      26.587   0.487  51.966  1.00  0.00    -0.125 Cl
ENDROOT
BRANCH   3  15
HETATM   15  C4  UNL     1      22.047   0.120  53.225  1.00  0.00    -0.007 A 
HETATM   16  C5  UNL     1      20.877  -0.583  53.411  1.00  0.00     0.032 A 
HETATM   17  C6  UNL     1      20.667  -1.591  54.314  1.00  0.00     0.117 A 
HETATM   18  N2  UNL     1      21.706  -1.942  55.112  1.00  0.00    -0.273 NA
HETATM   19  C7  UNL     1      22.897  -1.321  55.017  1.00  0.00     0.117 A 
HETATM   20  C8  UNL     1      23.024  -0.321  54.085  1.00  0.00     0.032 A 
ENDBRANCH   3  15
BRANCH   1  21
HETATM   21  C1  UNL     1      20.360   4.018  51.369  1.00  0.00     0.213 C 
BRANCH  21  22
HETATM   22  O1  UNL     1      19.247   3.606  52.097  1.00  0.00    -0.397 OA
HETATM   23  H1  UNL     1      18.759   2.974  51.519  1.00  0.00     0.209 HD
ENDBRANCH  21  22
ENDBRANCH   1  21
TORSDOF 3
ENDMDL
MODEL 7
REMARK VINA RESULT:      -7.6      1.760      5.385
REMARK  3 active torsions:
REMARK  status: ('A' for Active; 'I' for Inactive)
REMARK    1  A    between atoms: O1_1  and  C1_2 
REMARK    2  A    between atoms: C1_2  and  C2_3 
REMARK    3  A    between atoms: C3_5  and  C4_6 
ROOT
HETATM    1  C2  UNL     1      22.931  -0.238  54.099  1.00  0.00     0.232 C 
HETATM    2  N1  UNL     1      22.307   0.167  52.871  1.00  0.00    -0.263 NA
HETATM    3  C3  UNL     1      23.054   0.903  52.121  1.00  0.00     0.065 C 
HETATM    4  C9  UNL     1      24.339   1.092  52.756  1.00  0.00     0.144 C 
HETATM    5  C10 UNL     1      25.580   0.878  51.944  1.00  0.00     0.037 C 
HETATM    6  C11 UNL     1      26.164  -0.495  52.326  1.00  0.00     0.044 C 
HETATM    7  C12 UNL     1      26.551  -0.278  53.764  1.00  0.00    -0.064 C 
HETATM    8  C13 UNL     1      25.483  -0.256  54.582  1.00  0.00     0.091 C 
HETATM    9  N3  UNL     1      24.289   0.147  53.882  1.00  0.00    -0.355 N 
HETATM   10  C14 UNL     1      27.818  -0.045  54.532  1.00  0.00     0.036 C 
HETATM   11  C15 UNL     1      28.140   1.429  54.194  1.00  0.00     0.006 C 
HETATM   12  C16 UNL     1      27.927   1.512  52.687  1.00  0.00     0.021 C 
HETATM   13  C17 UNL     1      26.571   1.966  52.279  1.00  0.00     0.089 C 
HETATM   14 CL1  UNL     1      26.788   3.041  50.852  1.00  0.00    -0.125 Cl
ENDROOT
BRANCH   3  15
HETATM   15  C4  UNL     1      22.394   1.301  50.882  1.00  0.00    -0.007 A 
HETATM   16  C5  UNL     1      21.148   0.823  50.539  1.00  0.00     0.032 A 
HETATM   17  C6  UNL     1      20.435   1.142  49.415  1.00  0.00     0.117 A 
HETATM   18  N2  UNL     1      21.001   2.011  48.541  1.00  0.00    -0.273 NA
HETATM   19  C7  UNL     1      22.217   2.541  48.775  1.00  0.00     0.117 A 
HETATM   20  C8  UNL     1      22.864   2.170  49.926  1.00  0.00     0.032 A 
ENDBRANCH   3  15
BRANCH   1  21
HETATM   21  C1  UNL     1      22.723  -1.704  54.396  1.00  0.00     0.213 C 
BRANCH  21  22
HETATM   22  O1  UNL     1      22.839  -1.864  55.774  1.00  0.00    -0.397 OA
HETATM   23  H1  UNL     1      23.652  -1.375  56.040  1.00  0.00     0.209 HD
ENDBRANCH  21  22
ENDBRANCH   1  21
TORSDOF 3
ENDMDL
MODEL 8
REMARK VINA RESULT:      -7.0      1.835      2.624
REMARK  3 active torsions:
REMARK  status: ('A' for Active; 'I' for Inactive)
REMARK    1  A    between atoms: O1_1  and  C1_2 
REMARK    2  A    between atoms: C1_2  and  C2_3 
REMARK    3  A    between atoms: C3_5  and  C4_6 
ROOT
HETATM    1  C2  UNL     1      21.130   1.336  51.308  1.00  0.00     0.232 C 
HETATM    2  N1  UNL     1      22.195   0.750  52.070  1.00  0.00    -0.263 NA
HETATM    3  C3  UNL     1      23.369   1.171  51.742  1.00  0.00     0.065 C 
HETATM    4  C9  UNL     1      23.252   2.149  50.683  1.00  0.00     0.144 C 
HETATM    5  C10 UNL     1      23.999   3.441  50.813  1.00  0.00     0.037 C 
HETATM    6  C11 UNL     1      22.992   4.528  51.236  1.00  0.00     0.044 C 
HETATM    7  C12 UNL     1      22.093   4.602  50.032  1.00  0.00    -0.064 C 
HETATM    8  C13 UNL     1      21.260   3.548  49.951  1.00  0.00     0.091 C 
HETATM    9  N3  UNL     1      21.803   2.394  50.622  1.00  0.00    -0.355 N 
HETATM   10  C14 UNL     1      21.896   5.528  48.868  1.00  0.00     0.036 C 
HETATM   11  C15 UNL     1      23.112   5.193  47.973  1.00  0.00     0.006 C 
HETATM   12  C16 UNL     1      24.281   5.148  48.951  1.00  0.00     0.021 C 
HETATM   13  C17 UNL     1      24.597   3.792  49.473  1.00  0.00     0.089 C 
HETATM   14 CL1  UNL     1      26.390   3.673  49.567  1.00  0.00    -0.125 Cl
ENDROOT
BRANCH   3  15
HETATM   15  C4  UNL     1      24.431   0.556  52.530  1.00  0.00    -0.007 A 
HETATM   16  C5  UNL     1      24.169  -0.105  53.710  1.00  0.00     0.032 A 
HETATM   17  C6  UNL     1      25.084  -0.727  54.515  1.00  0.00     0.117 A 
HETATM   18  N2  UNL     1      26.383  -0.696  54.127  1.00  0.00    -0.273 NA
HETATM   19  C7  UNL     1      26.754  -0.077  52.990  1.00  0.00     0.117 A 
HETATM   20  C8  UNL     1      25.774   0.522  52.240  1.00  0.00     0.032 A 
ENDBRANCH   3  15
BRANCH   1  21
HETATM   21  C1  UNL     1      19.973   1.774  52.176  1.00  0.00     0.213 C 
BRANCH  21  22
HETATM   22  O1  UNL     1      20.458   2.748  53.045  1.00  0.00    -0.397 OA
HETATM   23  H1  UNL     1      21.142   2.305  53.599  1.00  0.00     0.209 HD
ENDBRANCH  21  22
ENDBRANCH   1  21
TORSDOF 3
ENDMDL
MODEL 9
REMARK VINA RESULT:      -6.9      3.508      6.484
REMARK  3 active torsions:
REMARK  status: ('A' for Active; 'I' for Inactive)
REMARK    1  A    between atoms: O1_1  and  C1_2 
REMARK    2  A    between atoms: C1_2  and  C2_3 
REMARK    3  A    between atoms: C3_5  and  C4_6 
ROOT
HETATM    1  C2  UNL     1      20.999  -0.615  54.229  1.00  0.00     0.232 C 
HETATM    2  N1  UNL     1      19.776  -0.901  53.533  1.00  0.00    -0.263 NA
HETATM    3  C3  UNL     1      19.428   0.008  52.687  1.00  0.00     0.065 C 
HETATM    4  C9  UNL     1      20.414   1.066  52.683  1.00  0.00     0.144 C 
HETATM    5  C10 UNL     1      20.935   1.557  51.367  1.00  0.00     0.037 C 
HETATM    6  C11 UNL     1      22.333   0.946  51.155  1.00  0.00     0.044 C 
HETATM    7  C12 UNL     1      23.123   1.588  52.264  1.00  0.00    -0.064 C 
HETATM    8  C13 UNL     1      22.832   1.062  53.468  1.00  0.00     0.091 C 
HETATM    9  N3  UNL     1      21.505   0.500  53.492  1.00  0.00    -0.355 N 
HETATM   10  C14 UNL     1      24.133   2.689  52.392  1.00  0.00     0.036 C 
HETATM   11  C15 UNL     1      23.258   3.955  52.246  1.00  0.00     0.006 C 
HETATM   12  C16 UNL     1      22.358   3.640  51.056  1.00  0.00     0.021 C 
HETATM   13  C17 UNL     1      21.037   3.062  51.418  1.00  0.00     0.089 C 
HETATM   14 CL1  UNL     1      19.827   3.783  50.297  1.00  0.00    -0.125 Cl
ENDROOT
BRANCH   3  15
HETATM   15  C4  UNL     1      18.182  -0.308  51.999  1.00  0.00    -0.007 A 
HETATM   16  C5  UNL     1      17.164  -0.997  52.622  1.00  0.00     0.032 A 
HETATM   17  C6  UNL     1      15.954  -1.330  52.076  1.00  0.00     0.117 A 
HETATM   18  N2  UNL     1      15.720  -0.952  50.795  1.00  0.00    -0.273 NA
HETATM   19  C7  UNL     1      16.644  -0.273  50.090  1.00  0.00     0.117 A 
HETATM   20  C8  UNL     1      17.832   0.022  50.711  1.00  0.00     0.032 A 
ENDBRANCH   3  15
BRANCH   1  21
HETATM   21  C1  UNL     1      21.921  -1.810  54.288  1.00  0.00     0.213 C 
BRANCH  21  22
HETATM   22  O1  UNL     1      22.493  -1.823  55.558  1.00  0.00    -0.397 OA
HETATM   23  H1  UNL     1      21.750  -1.952  56.193  1.00  0.00     0.209 HD
ENDBRANCH  21  22
ENDBRANCH   1  21
TORSDOF 3
ENDMDL
