MODEL 1
REMARK VINA RESULT:      -8.0      0.000      0.000
REMARK  4 active torsions:
REMARK  status: ('A' for Active; 'I' for Inactive)
REMARK    1  A    between atoms: C4_4  and  C5_5 
REMARK    2  A    between atoms: C5_5  and  N1_6 
REMARK       I    between atoms: C6_7  and  N2_8 
REMARK       I    between atoms: C6_7  and  N3_9 
REMARK    3  A    between atoms: C7_10  and  N4_11 
REMARK    4  A    between atoms: N4_11  and  C8_12 
ROOT
HETATM    1  N1  UNL     1      24.920   1.125  51.941  1.00  0.00    -0.101 NA
HETATM    2  C6  UNL     1      24.932   2.345  52.365  1.00  0.00     0.716 C 
HETATM    3  N2  UNL     1      24.961   3.225  53.506  1.00  0.00    -0.231 N 
HETATM    4  N3  UNL     1      24.911   3.361  51.374  1.00  0.00    -0.059 NA
HETATM    5  C7  UNL     1      25.123   3.148  50.115  1.00  0.00     0.227 C 
HETATM    6  H7  UNL     1      23.997   3.429  53.896  1.00  0.00     0.174 HD
HETATM    7  H8  UNL     1      25.885   3.596  53.870  1.00  0.00     0.174 HD
ENDROOT
BRANCH   5   8
HETATM    8  N4  UNL     1      25.027   4.393  49.398  1.00  0.00    -0.353 N 
HETATM    9  H10 UNL     1      24.159   4.855  49.009  1.00  0.00     0.166 HD
BRANCH   8  10
HETATM   10  C8  UNL     1      26.119   5.259  49.071  1.00  0.00     0.015 C 
HETATM   11  C9  UNL     1      27.261   4.652  48.790  1.00  0.00     0.027 C 
HETATM   12  C10 UNL     1      28.546   5.270  48.422  1.00  0.00     0.026 C 
HETATM   13  C11 UNL     1      28.721   6.475  47.858  1.00  0.00     0.035 C 
HETATM   14 CL1  UNL     1      30.360   6.995  47.512  1.00  0.00    -0.084 Cl
HETATM   15  C12 UNL     1      27.670   7.445  47.483  1.00  0.00     0.043 C 
HETATM   16  C13 UNL     1      26.476   7.476  48.050  1.00  0.00     0.019 C 
HETATM   17 CL2  UNL     1      25.505   8.766  47.339  1.00  0.00    -0.089 Cl
HETATM   18  C14 UNL     1      25.793   6.708  49.102  1.00  0.00     0.108 C 
ENDBRANCH   8  10
ENDBRANCH   5   8
BRANCH   1  19
HETATM   19  C5  UNL     1      24.941   0.060  52.948  1.00  0.00     0.210 C 
BRANCH  19  20
HETATM   20  C4  UNL     1      26.310  -0.503  53.034  1.00  0.00     0.002 A 
HETATM   21  C3  UNL     1      27.455   0.090  53.716  1.00  0.00     0.022 A 
HETATM   22  C2  UNL     1      28.168  -0.951  53.329  1.00  0.00    -0.022 A 
HETATM   23  C1  UNL     1      29.544  -1.440  53.459  1.00  0.00     0.051 C 
HETATM   24  C15 UNL     1      27.022  -1.548  52.644  1.00  0.00     0.130 A 
HETATM   25  F1  UNL     1      26.631  -2.632  51.904  1.00  0.00    -0.205 F 
ENDBRANCH  19  20
ENDBRANCH   1  19
TORSDOF 4
ENDMDL
MODEL 2
REMARK VINA RESULT:      -7.9      2.643      4.324
REMARK  4 active torsions:
REMARK  status: ('A' for Active; 'I' for Inactive)
REMARK    1  A    between atoms: C4_4  and  C5_5 
REMARK    2  A    between atoms: C5_5  and  N1_6 
REMARK       I    between atoms: C6_7  and  N2_8 
REMARK       I    between atoms: C6_7  and  N3_9 
REMARK    3  A    between atoms: C7_10  and  N4_11 
REMARK    4  A    between atoms: N4_11  and  C8_12 
ROOT
HETATM    1  N1  UNL     1      24.734   0.531  53.076  1.00  0.00    -0.101 NA
HETATM    2  C6  UNL     1      25.753   1.174  53.540  1.00  0.00     0.716 C 
HETATM    3  N2  UNL     1      26.653   1.370  54.649  1.00  0.00    -0.231 N 
HETATM    4  N3  UNL     1      26.339   2.140  52.680  1.00  0.00    -0.059 NA
HETATM    5  C7  UNL     1      26.078   2.237  51.416  1.00  0.00     0.227 C 
HETATM    6  H7  UNL     1      26.287   2.062  55.362  1.00  0.00     0.174 HD
HETATM    7  H8  UNL     1      27.573   0.844  54.688  1.00  0.00     0.174 HD
ENDROOT
BRANCH   5   8
HETATM    8  N4  UNL     1      26.842   3.318  50.852  1.00  0.00    -0.353 N 
HETATM    9  H10 UNL     1      27.835   3.602  51.080  1.00  0.00     0.166 HD
BRANCH   8  10
HETATM   10  C8  UNL     1      26.388   4.233  49.850  1.00  0.00     0.015 C 
HETATM   11  C9  UNL     1      25.126   4.616  49.960  1.00  0.00     0.027 C 
HETATM   12  C10 UNL     1      24.382   5.540  49.088  1.00  0.00     0.026 C 
HETATM   13  C11 UNL     1      24.904   6.509  48.320  1.00  0.00     0.035 C 
HETATM   14 CL1  UNL     1      23.807   7.486  47.363  1.00  0.00    -0.084 Cl
HETATM   15  C12 UNL     1      26.333   6.862  48.179  1.00  0.00     0.043 C 
HETATM   16  C13 UNL     1      27.317   6.011  48.414  1.00  0.00     0.019 C 
HETATM   17 CL2  UNL     1      28.872   6.798  48.139  1.00  0.00    -0.089 Cl
HETATM   18  C14 UNL     1      27.411   4.607  48.840  1.00  0.00     0.108 C 
ENDBRANCH   8  10
ENDBRANCH   5   8
BRANCH   1  19
HETATM   19  C5  UNL     1      24.113  -0.471  53.949  1.00  0.00     0.210 C 
BRANCH  19  20
HETATM   20  C4  UNL     1      22.659  -0.527  53.667  1.00  0.00     0.002 A 
HETATM   21  C3  UNL     1      21.609  -0.960  54.583  1.00  0.00     0.022 A 
HETATM   22  C2  UNL     1      20.735  -0.717  53.625  1.00  0.00    -0.022 A 
HETATM   23  C1  UNL     1      19.285  -0.802  53.424  1.00  0.00     0.051 C 
HETATM   24  C15 UNL     1      21.784  -0.283  52.704  1.00  0.00     0.130 A 
HETATM   25  F1  UNL     1      22.004   0.185  51.436  1.00  0.00    -0.205 F 
ENDBRANCH  19  20
ENDBRANCH   1  19
TORSDOF 4
ENDMDL
MODEL 3
REMARK VINA RESULT:      -7.8      4.034      7.725
REMARK  4 active torsions:
REMARK  status: ('A' for Active; 'I' for Inactive)
REMARK    1  A    between atoms: C4_4  and  C5_5 
REMARK    2  A    between atoms: C5_5  and  N1_6 
REMARK       I    between atoms: C6_7  and  N2_8 
REMARK       I    between atoms: C6_7  and  N3_9 
REMARK    3  A    between atoms: C7_10  and  N4_11 
REMARK    4  A    between atoms: N4_11  and  C8_12 
ROOT
HETATM    1  N1  UNL     1      24.700   4.701  49.848  1.00  0.00    -0.101 NA
HETATM    2  C6  UNL     1      24.315   4.804  51.076  1.00  0.00     0.716 C 
HETATM    3  N2  UNL     1      23.808   5.669  52.113  1.00  0.00    -0.231 N 
HETATM    4  N3  UNL     1      24.360   3.619  51.857  1.00  0.00    -0.059 NA
HETATM    5  C7  UNL     1      24.522   2.434  51.364  1.00  0.00     0.227 C 
HETATM    6  H7  UNL     1      24.574   6.178  52.638  1.00  0.00     0.174 HD
HETATM    7  H8  UNL     1      22.764   5.743  52.282  1.00  0.00     0.174 HD
ENDROOT
BRANCH   5   8
HETATM    8  N4  UNL     1      24.519   1.469  52.432  1.00  0.00    -0.353 N 
HETATM    9  H10 UNL     1      23.705   1.170  53.038  1.00  0.00     0.166 HD
BRANCH   8  10
HETATM   10  C8  UNL     1      25.647   0.713  52.883  1.00  0.00     0.015 C 
HETATM   11  C9  UNL     1      25.748  -0.510  52.386  1.00  0.00     0.027 C 
HETATM   12  C10 UNL     1      26.788  -1.514  52.660  1.00  0.00     0.026 C 
HETATM   13  C11 UNL     1      28.044  -1.274  53.070  1.00  0.00     0.035 C 
HETATM   14 CL1  UNL     1      29.105  -2.645  53.330  1.00  0.00    -0.084 Cl
HETATM   15  C12 UNL     1      28.657   0.045  53.336  1.00  0.00     0.043 C 
HETATM   16  C13 UNL     1      27.956   1.120  53.652  1.00  0.00     0.019 C 
HETATM   17 CL2  UNL     1      29.036   2.494  53.893  1.00  0.00    -0.089 Cl
HETATM   18  C14 UNL     1      26.530   1.425  53.842  1.00  0.00     0.108 C 
ENDBRANCH   8  10
ENDBRANCH   5   8
BRANCH   1  19
HETATM   19  C5  UNL     1      24.661   5.912  49.023  1.00  0.00     0.210 C 
BRANCH  19  20
HETATM   20  C4  UNL     1      26.037   6.242  48.579  1.00  0.00     0.002 A 
HETATM   21  C3  UNL     1      27.205   5.369  48.636  1.00  0.00     0.022 A 
HETATM   22  C2  UNL     1      27.908   6.350  48.103  1.00  0.00    -0.022 A 
HETATM   23  C1  UNL     1      29.292   6.599  47.687  1.00  0.00     0.051 C 
HETATM   24  C15 UNL     1      26.740   7.227  48.044  1.00  0.00     0.130 A 
HETATM   25  F1  UNL     1      26.327   8.478  47.669  1.00  0.00    -0.205 F 
ENDBRANCH  19  20
ENDBRANCH   1  19
TORSDOF 4
ENDMDL
MODEL 4
REMARK VINA RESULT:      -7.8      4.648      8.062
REMARK  4 active torsions:
REMARK  status: ('A' for Active; 'I' for Inactive)
REMARK    1  A    between atoms: C4_4  and  C5_5 
REMARK    2  A    between atoms: C5_5  and  N1_6 
REMARK       I    between atoms: C6_7  and  N2_8 
REMARK       I    between atoms: C6_7  and  N3_9 
REMARK    3  A    between atoms: C7_10  and  N4_11 
REMARK    4  A    between atoms: N4_11  and  C8_12 
ROOT
HETATM    1  N1  UNL     1      24.599   5.663  49.509  1.00  0.00    -0.101 NA
HETATM    2  C6  UNL     1      24.411   5.800  50.779  1.00  0.00     0.716 C 
HETATM    3  N2  UNL     1      24.447   6.686  51.915  1.00  0.00    -0.231 N 
HETATM    4  N3  UNL     1      23.979   4.646  51.484  1.00  0.00    -0.059 NA
HETATM    5  C7  UNL     1      23.538   3.572  50.913  1.00  0.00     0.227 C 
HETATM    6  H7  UNL     1      25.404   6.742  52.367  1.00  0.00     0.174 HD
HETATM    7  H8  UNL     1      23.571   7.202  52.216  1.00  0.00     0.174 HD
ENDROOT
BRANCH   5   8
HETATM    8  N4  UNL     1      23.187   2.605  51.920  1.00  0.00    -0.353 N 
HETATM    9  H10 UNL     1      22.379   2.639  52.601  1.00  0.00     0.166 HD
BRANCH   8  10
HETATM   10  C8  UNL     1      23.886   1.386  52.192  1.00  0.00     0.015 C 
HETATM   11  C9  UNL     1      25.174   1.390  51.891  1.00  0.00     0.027 C 
HETATM   12  C10 UNL     1      26.144   0.295  52.055  1.00  0.00     0.026 C 
HETATM   13  C11 UNL     1      26.063  -0.721  52.928  1.00  0.00     0.035 C 
HETATM   14 CL1  UNL     1      27.351  -1.911  52.935  1.00  0.00    -0.084 Cl
HETATM   15  C12 UNL     1      24.987  -0.966  53.913  1.00  0.00     0.043 C 
HETATM   16  C13 UNL     1      23.757  -0.503  53.774  1.00  0.00     0.019 C 
HETATM   17 CL2  UNL     1      22.767  -1.001  55.147  1.00  0.00    -0.089 Cl
HETATM   18  C14 UNL     1      23.047   0.305  52.771  1.00  0.00     0.108 C 
ENDBRANCH   8  10
ENDBRANCH   5   8
BRANCH   1  19
HETATM   19  C5  UNL     1      25.047   6.842  48.761  1.00  0.00     0.210 C 
BRANCH  19  20
HETATM   20  C4  UNL     1      26.496   6.714  48.474  1.00  0.00     0.002 A 
HETATM   21  C3  UNL     1      27.300   5.500  48.568  1.00  0.00     0.022 A 
HETATM   22  C2  UNL     1      28.341   6.214  48.183  1.00  0.00    -0.022 A 
HETATM   23  C1  UNL     1      29.768   6.006  47.919  1.00  0.00     0.051 C 
HETATM   24  C15 UNL     1      27.538   7.432  48.088  1.00  0.00     0.130 A 
HETATM   25  F1  UNL     1      27.602   8.764  47.778  1.00  0.00    -0.205 F 
ENDBRANCH  19  20
ENDBRANCH   1  19
TORSDOF 4
ENDMDL
MODEL 5
REMARK VINA RESULT:      -7.6      1.761      2.841
REMARK  4 active torsions:
REMARK  status: ('A' for Active; 'I' for Inactive)
REMARK    1  A    between atoms: C4_4  and  C5_5 
REMARK    2  A    between atoms: C5_5  and  N1_6 
REMARK       I    between atoms: C6_7  and  N2_8 
REMARK       I    between atoms: C6_7  and  N3_9 
REMARK    3  A    between atoms: C7_10  and  N4_11 
REMARK    4  A    between atoms: N4_11  and  C8_12 
ROOT
HETATM    1  N1  UNL     1      24.598   1.019  53.010  1.00  0.00    -0.101 NA
HETATM    2  C6  UNL     1      23.396   1.451  52.817  1.00  0.00     0.716 C 
HETATM    3  N2  UNL     1      21.990   1.134  52.790  1.00  0.00    -0.231 N 
HETATM    4  N3  UNL     1      23.262   2.822  52.475  1.00  0.00    -0.059 NA
HETATM    5  C7  UNL     1      24.214   3.692  52.585  1.00  0.00     0.227 C 
HETATM    6  H7  UNL     1      21.669   0.754  51.855  1.00  0.00     0.174 HD
HETATM    7  H8  UNL     1      21.393   1.288  53.653  1.00  0.00     0.174 HD
ENDROOT
BRANCH   5   8
HETATM    8  N4  UNL     1      23.737   4.979  52.155  1.00  0.00    -0.353 N 
HETATM    9  H10 UNL     1      22.969   5.566  52.585  1.00  0.00     0.166 HD
BRANCH   8  10
HETATM   10  C8  UNL     1      24.226   5.725  51.036  1.00  0.00     0.015 C 
HETATM   11  C9  UNL     1      24.073   7.037  51.115  1.00  0.00     0.027 C 
HETATM   12  C10 UNL     1      24.472   8.055  50.130  1.00  0.00     0.026 C 
HETATM   13  C11 UNL     1      25.444   7.941  49.211  1.00  0.00     0.035 C 
HETATM   14 CL1  UNL     1      25.734   9.300  48.142  1.00  0.00    -0.084 Cl
HETATM   15  C12 UNL     1      26.324   6.775  48.986  1.00  0.00     0.043 C 
HETATM   16  C13 UNL     1      25.995   5.541  49.325  1.00  0.00     0.019 C 
HETATM   17 CL2  UNL     1      27.298   4.430  48.897  1.00  0.00    -0.089 Cl
HETATM   18  C14 UNL     1      24.831   4.901  49.957  1.00  0.00     0.108 C 
ENDBRANCH   8  10
ENDBRANCH   5   8
BRANCH   1  19
HETATM   19  C5  UNL     1      24.759  -0.395  53.362  1.00  0.00     0.210 C 
BRANCH  19  20
HETATM   20  C4  UNL     1      26.194  -0.758  53.273  1.00  0.00     0.002 A 
HETATM   21  C3  UNL     1      27.305  -0.089  53.940  1.00  0.00     0.022 A 
HETATM   22  C2  UNL     1      28.114  -0.963  53.371  1.00  0.00    -0.022 A 
HETATM   23  C1  UNL     1      29.549  -1.258  53.335  1.00  0.00     0.051 C 
HETATM   24  C15 UNL     1      27.002  -1.636  52.702  1.00  0.00     0.130 A 
HETATM   25  F1  UNL     1      26.695  -2.671  51.859  1.00  0.00    -0.205 F 
ENDBRANCH  19  20
ENDBRANCH   1  19
TORSDOF 4
ENDMDL
MODEL 6
REMARK VINA RESULT:      -7.5      2.445      4.022
REMARK  4 active torsions:
REMARK  status: ('A' for Active; 'I' for Inactive)
REMARK    1  A    between atoms: C4_4  and  C5_5 
REMARK    2  A    between atoms: C5_5  and  N1_6 
REMARK       I    between atoms: C6_7  and  N2_8 
REMARK       I    between atoms: C6_7  and  N3_9 
REMARK    3  A    between atoms: C7_10  and  N4_11 
REMARK    4  A    between atoms: N4_11  and  C8_12 
ROOT
HETATM    1  N1  UNL     1      26.303   0.830  52.171  1.00  0.00    -0.101 NA
HETATM    2  C6  UNL     1      27.102   1.817  52.404  1.00  0.00     0.716 C 
HETATM    3  N2  UNL     1      28.094   2.385  53.283  1.00  0.00    -0.231 N 
HETATM    4  N3  UNL     1      27.100   2.873  51.454  1.00  0.00    -0.059 NA
HETATM    5  C7  UNL     1      26.550   2.793  50.285  1.00  0.00     0.227 C 
HETATM    6  H7  UNL     1      27.672   2.947  54.075  1.00  0.00     0.174 HD
HETATM    7  H8  UNL     1      29.125   2.219  53.100  1.00  0.00     0.174 HD
ENDROOT
BRANCH   5   8
HETATM    8  N4  UNL     1      26.735   4.037  49.585  1.00  0.00    -0.353 N 
HETATM    9  H10 UNL     1      27.561   4.337  48.997  1.00  0.00     0.166 HD
BRANCH   8  10
HETATM   10  C8  UNL     1      25.809   5.128  49.555  1.00  0.00     0.015 C 
HETATM   11  C9  UNL     1      24.562   4.825  49.878  1.00  0.00     0.027 C 
HETATM   12  C10 UNL     1      23.399   5.725  49.936  1.00  0.00     0.026 C 
HETATM   13  C11 UNL     1      23.424   7.052  50.130  1.00  0.00     0.035 C 
HETATM   14 CL1  UNL     1      21.896   7.913  50.159  1.00  0.00    -0.084 Cl
HETATM   15  C12 UNL     1      24.618   7.902  50.326  1.00  0.00     0.043 C 
HETATM   16  C13 UNL     1      25.822   7.572  49.892  1.00  0.00     0.019 C 
HETATM   17 CL2  UNL     1      26.982   8.833  50.316  1.00  0.00    -0.089 Cl
HETATM   18  C14 UNL     1      26.400   6.433  49.162  1.00  0.00     0.108 C 
ENDBRANCH   8  10
ENDBRANCH   5   8
BRANCH   1  19
HETATM   19  C5  UNL     1      26.288  -0.270  53.140  1.00  0.00     0.210 C 
BRANCH  19  20
HETATM   20  C4  UNL     1      24.917  -0.422  53.684  1.00  0.00     0.002 A 
HETATM   21  C3  UNL     1      23.671  -0.050  53.023  1.00  0.00     0.022 A 
HETATM   22  C2  UNL     1      23.028  -0.479  54.093  1.00  0.00    -0.022 A 
HETATM   23  C1  UNL     1      21.643  -0.595  54.559  1.00  0.00     0.051 C 
HETATM   24  C15 UNL     1      24.275  -0.853  54.757  1.00  0.00     0.130 A 
HETATM   25  F1  UNL     1      24.784  -1.393  55.908  1.00  0.00    -0.205 F 
ENDBRANCH  19  20
ENDBRANCH   1  19
TORSDOF 4
ENDMDL
MODEL 7
REMARK VINA RESULT:      -7.5      4.471      7.835
REMARK  4 active torsions:
REMARK  status: ('A' for Active; 'I' for Inactive)
REMARK    1  A    between atoms: C4_4  and  C5_5 
REMARK    2  A    between atoms: C5_5  and  N1_6 
REMARK       I    between atoms: C6_7  and  N2_8 
REMARK       I    between atoms: C6_7  and  N3_9 
REMARK    3  A    between atoms: C7_10  and  N4_11 
REMARK    4  A    between atoms: N4_11  and  C8_12 
ROOT
HETATM    1  N1  UNL     1      25.790   6.854  48.770  1.00  0.00    -0.101 NA
HETATM    2  C6  UNL     1      25.885   7.359  49.955  1.00  0.00     0.716 C 
HETATM    3  N2  UNL     1      26.570   8.287  50.820  1.00  0.00    -0.231 N 
HETATM    4  N3  UNL     1      24.971   6.873  50.927  1.00  0.00    -0.059 NA
HETATM    5  C7  UNL     1      23.926   6.162  50.646  1.00  0.00     0.227 C 
HETATM    6  H7  UNL     1      27.438   7.875  51.266  1.00  0.00     0.174 HD
HETATM    7  H8  UNL     1      26.193   9.269  50.953  1.00  0.00     0.174 HD
ENDROOT
BRANCH   5   8
HETATM    8  N4  UNL     1      23.226   5.843  51.862  1.00  0.00    -0.353 N 
HETATM    9  H10 UNL     1      22.942   6.498  52.642  1.00  0.00     0.166 HD
BRANCH   8  10
HETATM   10  C8  UNL     1      22.769   4.543  52.250  1.00  0.00     0.015 C 
HETATM   11  C9  UNL     1      21.475   4.321  52.083  1.00  0.00     0.027 C 
HETATM   12  C10 UNL     1      20.721   3.095  52.388  1.00  0.00     0.026 C 
HETATM   13  C11 UNL     1      21.214   1.848  52.449  1.00  0.00     0.035 C 
HETATM   14 CL1  UNL     1      20.111   0.540  52.833  1.00  0.00    -0.084 Cl
HETATM   15  C12 UNL     1      22.615   1.431  52.224  1.00  0.00     0.043 C 
HETATM   16  C13 UNL     1      23.647   2.241  52.385  1.00  0.00     0.019 C 
HETATM   17 CL2  UNL     1      25.147   1.385  52.024  1.00  0.00    -0.089 Cl
HETATM   18  C14 UNL     1      23.828   3.646  52.782  1.00  0.00     0.108 C 
ENDBRANCH   8  10
ENDBRANCH   5   8
BRANCH   1  19
HETATM   19  C5  UNL     1      26.725   7.342  47.751  1.00  0.00     0.210 C 
BRANCH  19  20
HETATM   20  C4  UNL     1      28.008   6.611  47.879  1.00  0.00     0.002 A 
HETATM   21  C3  UNL     1      29.341   7.132  47.597  1.00  0.00     0.022 A 
HETATM   22  C2  UNL     1      29.826   5.953  47.936  1.00  0.00    -0.022 A 
HETATM   23  C1  UNL     1      31.134   5.299  48.036  1.00  0.00     0.051 C 
HETATM   24  C15 UNL     1      28.491   5.427  48.219  1.00  0.00     0.130 A 
HETATM   25  F1  UNL     1      27.821   4.308  48.637  1.00  0.00    -0.205 F 
ENDBRANCH  19  20
ENDBRANCH   1  19
TORSDOF 4
ENDMDL
MODEL 8
REMARK VINA RESULT:      -7.4      4.147      7.720
REMARK  4 active torsions:
REMARK  status: ('A' for Active; 'I' for Inactive)
REMARK    1  A    between atoms: C4_4  and  C5_5 
REMARK    2  A    between atoms: C5_5  and  N1_6 
REMARK       I    between atoms: C6_7  and  N2_8 
REMARK       I    between atoms: C6_7  and  N3_9 
REMARK    3  A    between atoms: C7_10  and  N4_11 
REMARK    4  A    between atoms: N4_11  and  C8_12 
ROOT
HETATM    1  N1  UNL     1      26.535   6.173  48.545  1.00  0.00    -0.101 NA
HETATM    2  C6  UNL     1      26.114   6.479  49.727  1.00  0.00     0.716 C 
HETATM    3  N2  UNL     1      26.060   7.475  50.768  1.00  0.00    -0.231 N 
HETATM    4  N3  UNL     1      25.359   5.488  50.408  1.00  0.00    -0.059 NA
HETATM    5  C7  UNL     1      24.875   4.431  49.840  1.00  0.00     0.227 C 
HETATM    6  H7  UNL     1      26.897   7.443  51.415  1.00  0.00     0.174 HD
HETATM    7  H8  UNL     1      25.238   8.143  50.824  1.00  0.00     0.174 HD
ENDROOT
BRANCH   5   8
HETATM    8  N4  UNL     1      24.168   3.646  50.818  1.00  0.00    -0.353 N 
HETATM    9  H10 UNL     1      23.290   3.903  51.348  1.00  0.00     0.166 HD
BRANCH   8  10
HETATM   10  C8  UNL     1      24.531   2.336  51.264  1.00  0.00     0.015 C 
HETATM   11  C9  UNL     1      25.832   2.102  51.343  1.00  0.00     0.027 C 
HETATM   12  C10 UNL     1      26.504   0.863  51.764  1.00  0.00     0.026 C 
HETATM   13  C11 UNL     1      25.999  -0.087  52.567  1.00  0.00     0.035 C 
HETATM   14 CL1  UNL     1      26.999  -1.482  52.927  1.00  0.00    -0.084 Cl
HETATM   15  C12 UNL     1      24.664  -0.100  53.202  1.00  0.00     0.043 C 
HETATM   16  C13 UNL     1      23.626   0.564  52.723  1.00  0.00     0.019 C 
HETATM   17 CL2  UNL     1      22.217   0.303  53.752  1.00  0.00    -0.089 Cl
HETATM   18  C14 UNL     1      23.384   1.442  51.569  1.00  0.00     0.108 C 
ENDBRANCH   8  10
ENDBRANCH   5   8
BRANCH   1  19
HETATM   19  C5  UNL     1      27.317   7.182  47.824  1.00  0.00     0.210 C 
BRANCH  19  20
HETATM   20  C4  UNL     1      28.757   6.982  48.116  1.00  0.00     0.002 A 
HETATM   21  C3  UNL     1      29.703   7.993  48.576  1.00  0.00     0.022 A 
HETATM   22  C2  UNL     1      30.634   7.058  48.576  1.00  0.00    -0.022 A 
HETATM   23  C1  UNL     1      32.062   6.941  48.885  1.00  0.00     0.051 C 
HETATM   24  C15 UNL     1      29.689   6.042  48.115  1.00  0.00     0.130 A 
HETATM   25  F1  UNL     1      29.580   4.719  47.780  1.00  0.00    -0.205 F 
ENDBRANCH  19  20
ENDBRANCH   1  19
TORSDOF 4
ENDMDL
MODEL 9
REMARK VINA RESULT:      -7.4      2.554      4.006
REMARK  4 active torsions:
REMARK  status: ('A' for Active; 'I' for Inactive)
REMARK    1  A    between atoms: C4_4  and  C5_5 
REMARK    2  A    between atoms: C5_5  and  N1_6 
REMARK       I    between atoms: C6_7  and  N2_8 
REMARK       I    between atoms: C6_7  and  N3_9 
REMARK    3  A    between atoms: C7_10  and  N4_11 
REMARK    4  A    between atoms: N4_11  and  C8_12 
ROOT
HETATM    1  N1  UNL     1      25.659   0.864  52.550  1.00  0.00    -0.101 NA
HETATM    2  C6  UNL     1      26.480   1.809  52.866  1.00  0.00     0.716 C 
HETATM    3  N2  UNL     1      27.321   2.387  53.885  1.00  0.00    -0.231 N 
HETATM    4  N3  UNL     1      26.765   2.766  51.856  1.00  0.00    -0.059 NA
HETATM    5  C7  UNL     1      26.458   2.614  50.608  1.00  0.00     0.227 C 
HETATM    6  H7  UNL     1      26.800   3.051  54.524  1.00  0.00     0.174 HD
HETATM    7  H8  UNL     1      28.349   2.130  53.936  1.00  0.00     0.174 HD
ENDROOT
BRANCH   5   8
HETATM    8  N4  UNL     1      26.892   3.768  49.866  1.00  0.00    -0.353 N 
HETATM    9  H10 UNL     1      27.868   3.999  49.533  1.00  0.00     0.166 HD
BRANCH   8  10
HETATM   10  C8  UNL     1      26.058   4.845  49.428  1.00  0.00     0.015 C 
HETATM   11  C9  UNL     1      26.679   5.818  48.780  1.00  0.00     0.027 C 
HETATM   12  C10 UNL     1      26.094   7.044  48.214  1.00  0.00     0.026 C 
HETATM   13  C11 UNL     1      24.820   7.219  47.829  1.00  0.00     0.035 C 
HETATM   14 CL1  UNL     1      24.359   8.782  47.181  1.00  0.00    -0.084 Cl
HETATM   15  C12 UNL     1      23.728   6.225  47.887  1.00  0.00     0.043 C 
HETATM   16  C13 UNL     1      23.719   5.204  48.727  1.00  0.00     0.019 C 
HETATM   17 CL2  UNL     1      22.256   4.246  48.496  1.00  0.00    -0.089 Cl
HETATM   18  C14 UNL     1      24.620   4.699  49.774  1.00  0.00     0.108 C 
ENDBRANCH   8  10
ENDBRANCH   5   8
BRANCH   1  19
HETATM   19  C5  UNL     1      25.350  -0.134  53.579  1.00  0.00     0.210 C 
BRANCH  19  20
HETATM   20  C4  UNL     1      23.879  -0.293  53.676  1.00  0.00     0.002 A 
HETATM   21  C3  UNL     1      22.878   0.296  52.794  1.00  0.00     0.022 A 
HETATM   22  C2  UNL     1      21.951  -0.295  53.524  1.00  0.00    -0.022 A 
HETATM   23  C1  UNL     1      20.490  -0.403  53.553  1.00  0.00     0.051 C 
HETATM   24  C15 UNL     1      22.952  -0.888  54.409  1.00  0.00     0.130 A 
HETATM   25  F1  UNL     1      23.105  -1.689  55.510  1.00  0.00    -0.205 F 
ENDBRANCH  19  20
ENDBRANCH   1  19
TORSDOF 4
ENDMDL
