MODEL 1
REMARK VINA RESULT:      -8.3      0.000      0.000
REMARK  7 active torsions:
REMARK  status: ('A' for Active; 'I' for Inactive)
REMARK    1  A    between atoms: C2_2  and  O1_3 
REMARK    2  A    between atoms: O1_3  and  C3_4 
REMARK    3  A    between atoms: C8_9  and  O2_10 
REMARK    4  A    between atoms: N1_12  and  C10_13 
REMARK       I    between atoms: N2_17  and  C14_18 
REMARK       I    between atoms: C14_18  and  N3_20 
REMARK    5  A    between atoms: N3_20  and  C15_21 
REMARK    6  A    between atoms: C17_23  and  C18_24 
REMARK    7  A    between atoms: C19_25  and  O4_26 
ROOT
HETATM    1  C10 UNL     1      21.913   1.470  51.530  1.00  0.00     0.035 A 
HETATM    2  C11 UNL     1      21.505   0.789  50.473  1.00  0.00     0.029 A 
HETATM    3  C12 UNL     1      21.398   1.477  49.191  1.00  0.00     0.019 A 
HETATM    4  C13 UNL     1      21.692   2.755  49.014  1.00  0.00     0.096 A 
HETATM    5  N2  UNL     1      22.134   3.418  50.189  1.00  0.00    -0.300 N 
HETATM    6  C14 UNL     1      22.538   4.795  50.000  1.00  0.00     0.327 C 
HETATM    7  O3  UNL     1      22.473   5.350  48.851  1.00  0.00    -0.246 OA
HETATM    8  N3  UNL     1      23.030   5.659  51.005  1.00  0.00    -0.313 N 
HETATM    9  C21 UNL     1      22.246   2.923  51.541  1.00  0.00     0.140 A 
HETATM   10  C22 UNL     1      21.208   3.664  52.371  1.00  0.00     0.039 C 
HETATM   11  H14 UNL     1      23.118   5.278  51.972  1.00  0.00     0.170 HD
ENDROOT
BRANCH   1  12
HETATM   12  N1  UNL     1      21.958   0.631  52.676  1.00  0.00    -0.342 N 
HETATM   13  C6  UNL     1      23.314   0.294  53.040  1.00  0.00     0.067 A 
HETATM   14  C5  UNL     1      23.598  -0.536  54.085  1.00  0.00     0.086 A 
HETATM   15  C7  UNL     1      24.437   0.764  52.369  1.00  0.00     0.071 A 
HETATM   16  C4  UNL     1      24.845  -0.926  54.509  1.00  0.00     0.073 A 
HETATM   17  N4  UNL     1      22.497  -1.065  54.845  1.00  0.00    -0.261 NA
HETATM   18  C3  UNL     1      25.923  -0.429  53.808  1.00  0.00     0.104 A 
HETATM   19  C8  UNL     1      25.710   0.413  52.743  1.00  0.00     0.103 A 
HETATM   20  C24 UNL     1      21.276  -0.751  54.531  1.00  0.00     0.110 A 
HETATM   21  C23 UNL     1      20.832   0.136  53.428  1.00  0.00     0.176 A 
BRANCH  18  22
HETATM   22  O1  UNL     1      27.232  -0.749  54.137  1.00  0.00    -0.349 OA
BRANCH  22  23
HETATM   23  C2  UNL     1      28.119   0.090  54.828  1.00  0.00     0.171 C 
HETATM   24  C1  UNL     1      29.445   0.254  54.126  1.00  0.00     0.034 C 
ENDBRANCH  22  23
ENDBRANCH  18  22
BRANCH  19  25
HETATM   25  O2  UNL     1      26.804   0.907  52.044  1.00  0.00    -0.353 OA
HETATM   26  C9  UNL     1      27.120   2.259  51.897  1.00  0.00     0.210 C 
ENDBRANCH  19  25
ENDBRANCH   1  12
BRANCH   8  27
HETATM   27  C15 UNL     1      23.313   6.922  50.432  1.00  0.00     0.010 C 
HETATM   28  C16 UNL     1      22.263   7.934  50.148  1.00  0.00     0.068 C 
HETATM   29  C17 UNL     1      24.574   7.205  50.140  1.00  0.00     0.026 C 
BRANCH  29  30
HETATM   30  C18 UNL     1      24.946   8.466  49.555  1.00  0.00     0.026 C 
HETATM   31  C19 UNL     1      25.967   9.246  49.872  1.00  0.00     0.134 C 
BRANCH  31  32
HETATM   32  O4  UNL     1      26.300  10.459  49.287  1.00  0.00    -0.368 OA
HETATM   33  C20 UNL     1      25.545  10.847  48.145  1.00  0.00     0.208 C 
ENDBRANCH  31  32
ENDBRANCH  29  30
ENDBRANCH   8  27
TORSDOF 7
ENDMDL
MODEL 2
REMARK VINA RESULT:      -8.2      1.666      2.293
REMARK  7 active torsions:
REMARK  status: ('A' for Active; 'I' for Inactive)
REMARK    1  A    between atoms: C2_2  and  O1_3 
REMARK    2  A    between atoms: O1_3  and  C3_4 
REMARK    3  A    between atoms: C8_9  and  O2_10 
REMARK    4  A    between atoms: N1_12  and  C10_13 
REMARK       I    between atoms: N2_17  and  C14_18 
REMARK       I    between atoms: C14_18  and  N3_20 
REMARK    5  A    between atoms: N3_20  and  C15_21 
REMARK    6  A    between atoms: C17_23  and  C18_24 
REMARK    7  A    between atoms: C19_25  and  O4_26 
ROOT
HETATM    1  C10 UNL     1      21.691   1.335  51.609  1.00  0.00     0.035 A 
HETATM    2  C11 UNL     1      21.505   0.583  50.538  1.00  0.00     0.029 A 
HETATM    3  C12 UNL     1      21.348   1.231  49.241  1.00  0.00     0.019 A 
HETATM    4  C13 UNL     1      21.385   2.542  49.063  1.00  0.00     0.096 A 
HETATM    5  N2  UNL     1      21.600   3.284  50.254  1.00  0.00    -0.300 N 
HETATM    6  C14 UNL     1      21.726   4.714  50.072  1.00  0.00     0.327 C 
HETATM    7  O3  UNL     1      21.628   5.242  48.911  1.00  0.00    -0.246 OA
HETATM    8  N3  UNL     1      21.961   5.664  51.093  1.00  0.00    -0.313 N 
HETATM    9  C21 UNL     1      21.718   2.826  51.619  1.00  0.00     0.140 A 
HETATM   10  C22 UNL     1      20.496   3.340  52.366  1.00  0.00     0.039 C 
HETATM   11  H14 UNL     1      22.058   5.310  52.069  1.00  0.00     0.170 HD
ENDROOT
BRANCH   1  12
HETATM   12  N1  UNL     1      21.828   0.525  52.769  1.00  0.00    -0.342 N 
HETATM   13  C6  UNL     1      23.213   0.240  53.062  1.00  0.00     0.067 A 
HETATM   14  C5  UNL     1      23.582  -0.556  54.107  1.00  0.00     0.086 A 
HETATM   15  C7  UNL     1      24.280   0.728  52.318  1.00  0.00     0.071 A 
HETATM   16  C4  UNL     1      24.863  -0.897  54.468  1.00  0.00     0.073 A 
HETATM   17  N4  UNL     1      22.544  -1.101  54.941  1.00  0.00    -0.261 NA
HETATM   18  C3  UNL     1      25.883  -0.385  53.695  1.00  0.00     0.104 A 
HETATM   19  C8  UNL     1      25.583   0.425  52.625  1.00  0.00     0.103 A 
HETATM   20  C24 UNL     1      21.297  -0.832  54.690  1.00  0.00     0.110 A 
HETATM   21  C23 UNL     1      20.763   0.014  53.595  1.00  0.00     0.176 A 
BRANCH  18  22
HETATM   22  O1  UNL     1      27.218  -0.656  53.955  1.00  0.00    -0.349 OA
BRANCH  22  23
HETATM   23  C2  UNL     1      28.060   0.129  54.757  1.00  0.00     0.171 C 
HETATM   24  C1  UNL     1      29.345   0.512  54.065  1.00  0.00     0.034 C 
ENDBRANCH  22  23
ENDBRANCH  18  22
BRANCH  19  25
HETATM   25  O2  UNL     1      26.620   0.935  51.854  1.00  0.00    -0.353 OA
HETATM   26  C9  UNL     1      26.823   2.288  51.577  1.00  0.00     0.210 C 
ENDBRANCH  19  25
ENDBRANCH   1  12
BRANCH   8  27
HETATM   27  C15 UNL     1      22.018   6.956  50.520  1.00  0.00     0.010 C 
HETATM   28  C16 UNL     1      23.295   7.644  50.200  1.00  0.00     0.068 C 
HETATM   29  C17 UNL     1      20.874   7.573  50.262  1.00  0.00     0.026 C 
BRANCH  29  30
HETATM   30  C18 UNL     1      20.844   8.889  49.680  1.00  0.00     0.026 C 
HETATM   31  C19 UNL     1      19.819   9.723  49.593  1.00  0.00     0.134 C 
BRANCH  31  32
HETATM   32  O4  UNL     1      19.823  10.989  49.025  1.00  0.00    -0.368 OA
HETATM   33  C20 UNL     1      18.564  11.506  48.610  1.00  0.00     0.208 C 
ENDBRANCH  31  32
ENDBRANCH  29  30
ENDBRANCH   8  27
TORSDOF 7
ENDMDL
MODEL 3
REMARK VINA RESULT:      -7.9      3.343      7.555
REMARK  7 active torsions:
REMARK  status: ('A' for Active; 'I' for Inactive)
REMARK    1  A    between atoms: C2_2  and  O1_3 
REMARK    2  A    between atoms: O1_3  and  C3_4 
REMARK    3  A    between atoms: C8_9  and  O2_10 
REMARK    4  A    between atoms: N1_12  and  C10_13 
REMARK       I    between atoms: N2_17  and  C14_18 
REMARK       I    between atoms: C14_18  and  N3_20 
REMARK    5  A    between atoms: N3_20  and  C15_21 
REMARK    6  A    between atoms: C17_23  and  C18_24 
REMARK    7  A    between atoms: C19_25  and  O4_26 
ROOT
HETATM    1  C10 UNL     1      22.926   3.596  50.837  1.00  0.00     0.035 A 
HETATM    2  C11 UNL     1      22.546   4.848  51.022  1.00  0.00     0.029 A 
HETATM    3  C12 UNL     1      21.154   5.119  51.361  1.00  0.00     0.019 A 
HETATM    4  C13 UNL     1      20.234   4.179  51.504  1.00  0.00     0.096 A 
HETATM    5  N2  UNL     1      20.717   2.859  51.304  1.00  0.00    -0.300 N 
HETATM    6  C14 UNL     1      19.747   1.810  51.535  1.00  0.00     0.327 C 
HETATM    7  O3  UNL     1      18.546   2.085  51.877  1.00  0.00    -0.246 OA
HETATM    8  N3  UNL     1      19.984   0.421  51.421  1.00  0.00    -0.313 N 
HETATM    9  C21 UNL     1      22.030   2.406  50.909  1.00  0.00     0.140 A 
HETATM   10  C22 UNL     1      21.892   1.803  49.519  1.00  0.00     0.039 C 
HETATM   11  H14 UNL     1      20.944   0.114  51.150  1.00  0.00     0.170 HD
ENDROOT
BRANCH   1  12
HETATM   12  N1  UNL     1      24.311   3.536  50.522  1.00  0.00    -0.342 N 
HETATM   13  C6  UNL     1      25.001   2.559  51.330  1.00  0.00     0.067 A 
HETATM   14  C5  UNL     1      26.347   2.359  51.229  1.00  0.00     0.086 A 
HETATM   15  C7  UNL     1      24.378   1.753  52.275  1.00  0.00     0.071 A 
HETATM   16  C4  UNL     1      27.102   1.466  51.952  1.00  0.00     0.073 A 
HETATM   17  N4  UNL     1      27.077   3.143  50.269  1.00  0.00    -0.261 NA
HETATM   18  C3  UNL     1      26.432   0.692  52.876  1.00  0.00     0.104 A 
HETATM   19  C8  UNL     1      25.074   0.841  53.029  1.00  0.00     0.103 A 
HETATM   20  C24 UNL     1      26.455   4.011  49.528  1.00  0.00     0.110 A 
HETATM   21  C23 UNL     1      25.006   4.324  49.535  1.00  0.00     0.176 A 
BRANCH  18  22
HETATM   22  O1  UNL     1      27.080  -0.245  53.667  1.00  0.00    -0.349 OA
BRANCH  22  23
HETATM   23  C2  UNL     1      28.246  -0.006  54.410  1.00  0.00     0.171 C 
HETATM   24  C1  UNL     1      29.461  -0.694  53.837  1.00  0.00     0.034 C 
ENDBRANCH  22  23
ENDBRANCH  18  22
BRANCH  19  25
HETATM   25  O2  UNL     1      24.411   0.056  53.963  1.00  0.00    -0.353 OA
HETATM   26  C9  UNL     1      23.167  -0.547  53.766  1.00  0.00     0.210 C 
ENDBRANCH  19  25
ENDBRANCH   1  12
BRANCH   8  27
HETATM   27  C15 UNL     1      18.793  -0.280  51.723  1.00  0.00     0.010 C 
HETATM   28  C16 UNL     1      17.615  -0.301  50.818  1.00  0.00     0.068 C 
HETATM   29  C17 UNL     1      18.734  -0.944  52.868  1.00  0.00     0.026 C 
BRANCH  29  30
HETATM   30  C18 UNL     1      17.559  -1.681  53.251  1.00  0.00     0.026 C 
HETATM   31  C19 UNL     1      17.432  -2.987  53.421  1.00  0.00     0.134 C 
BRANCH  31  32
HETATM   32  O4  UNL     1      16.282  -3.670  53.792  1.00  0.00    -0.368 OA
HETATM   33  C20 UNL     1      16.356  -5.090  53.799  1.00  0.00     0.208 C 
ENDBRANCH  31  32
ENDBRANCH  29  30
ENDBRANCH   8  27
TORSDOF 7
ENDMDL
MODEL 4
REMARK VINA RESULT:      -7.3      3.856      5.938
REMARK  7 active torsions:
REMARK  status: ('A' for Active; 'I' for Inactive)
REMARK    1  A    between atoms: C2_2  and  O1_3 
REMARK    2  A    between atoms: O1_3  and  C3_4 
REMARK    3  A    between atoms: C8_9  and  O2_10 
REMARK    4  A    between atoms: N1_12  and  C10_13 
REMARK       I    between atoms: N2_17  and  C14_18 
REMARK       I    between atoms: C14_18  and  N3_20 
REMARK    5  A    between atoms: N3_20  and  C15_21 
REMARK    6  A    between atoms: C17_23  and  C18_24 
REMARK    7  A    between atoms: C19_25  and  O4_26 
ROOT
HETATM    1  C10 UNL     1      24.263   5.178  49.550  1.00  0.00     0.035 A 
HETATM    2  C11 UNL     1      23.725   5.992  50.442  1.00  0.00     0.029 A 
HETATM    3  C12 UNL     1      24.457   7.190  50.835  1.00  0.00     0.019 A 
HETATM    4  C13 UNL     1      25.639   7.525  50.344  1.00  0.00     0.096 A 
HETATM    5  N2  UNL     1      26.149   6.613  49.383  1.00  0.00    -0.300 N 
HETATM    6  C14 UNL     1      27.402   7.002  48.774  1.00  0.00     0.327 C 
HETATM    7  O3  UNL     1      27.992   8.085  49.111  1.00  0.00    -0.246 OA
HETATM    8  N3  UNL     1      28.102   6.277  47.781  1.00  0.00    -0.313 N 
HETATM    9  C21 UNL     1      25.602   5.360  48.918  1.00  0.00     0.140 A 
HETATM   10  C22 UNL     1      26.534   4.261  49.407  1.00  0.00     0.039 C 
HETATM   11  H14 UNL     1      27.682   5.382  47.449  1.00  0.00     0.170 HD
ENDROOT
BRANCH   1  12
HETATM   12  N1  UNL     1      23.402   4.076  49.296  1.00  0.00    -0.342 N 
HETATM   13  C6  UNL     1      23.414   3.126  50.382  1.00  0.00     0.067 A 
HETATM   14  C5  UNL     1      22.694   1.968  50.338  1.00  0.00     0.086 A 
HETATM   15  C7  UNL     1      24.151   3.290  51.549  1.00  0.00     0.071 A 
HETATM   16  C4  UNL     1      22.640   0.996  51.308  1.00  0.00     0.073 A 
HETATM   17  N4  UNL     1      21.891   1.716  49.171  1.00  0.00    -0.261 NA
HETATM   18  C3  UNL     1      23.390   1.210  52.444  1.00  0.00     0.104 A 
HETATM   19  C8  UNL     1      24.141   2.357  52.556  1.00  0.00     0.103 A 
HETATM   20  C24 UNL     1      21.865   2.577  48.198  1.00  0.00     0.110 A 
HETATM   21  C23 UNL     1      22.594   3.867  48.121  1.00  0.00     0.176 A 
BRANCH  18  22
HETATM   22  O1  UNL     1      23.421   0.304  53.494  1.00  0.00    -0.349 OA
BRANCH  22  23
HETATM   23  C2  UNL     1      22.670  -0.878  53.562  1.00  0.00     0.171 C 
HETATM   24  C1  UNL     1      21.637  -0.857  54.663  1.00  0.00     0.034 C 
ENDBRANCH  22  23
ENDBRANCH  18  22
BRANCH  19  25
HETATM   25  O2  UNL     1      24.893   2.561  53.705  1.00  0.00    -0.353 OA
HETATM   26  C9  UNL     1      26.228   2.189  53.868  1.00  0.00     0.210 C 
ENDBRANCH  19  25
ENDBRANCH   1  12
BRANCH   8  27
HETATM   27  C15 UNL     1      29.284   6.977  47.442  1.00  0.00     0.010 C 
HETATM   28  C16 UNL     1      29.326   8.040  46.405  1.00  0.00     0.068 C 
HETATM   29  C17 UNL     1      30.399   6.664  48.085  1.00  0.00     0.026 C 
BRANCH  29  30
HETATM   30  C18 UNL     1      31.644   7.328  47.800  1.00  0.00     0.026 C 
HETATM   31  C19 UNL     1      32.856   7.012  48.226  1.00  0.00     0.134 C 
BRANCH  31  32
HETATM   32  O4  UNL     1      34.040   7.675  47.933  1.00  0.00    -0.368 OA
HETATM   33  C20 UNL     1      35.235   7.114  48.464  1.00  0.00     0.208 C 
ENDBRANCH  31  32
ENDBRANCH  29  30
ENDBRANCH   8  27
TORSDOF 7
ENDMDL
MODEL 5
REMARK VINA RESULT:      -7.1      3.048      8.075
REMARK  7 active torsions:
REMARK  status: ('A' for Active; 'I' for Inactive)
REMARK    1  A    between atoms: C2_2  and  O1_3 
REMARK    2  A    between atoms: O1_3  and  C3_4 
REMARK    3  A    between atoms: C8_9  and  O2_10 
REMARK    4  A    between atoms: N1_12  and  C10_13 
REMARK       I    between atoms: N2_17  and  C14_18 
REMARK       I    between atoms: C14_18  and  N3_20 
REMARK    5  A    between atoms: N3_20  and  C15_21 
REMARK    6  A    between atoms: C17_23  and  C18_24 
REMARK    7  A    between atoms: C19_25  and  O4_26 
ROOT
HETATM    1  C10 UNL     1      19.596   1.123  51.364  1.00  0.00     0.035 A 
HETATM    2  C11 UNL     1      18.845   0.381  52.159  1.00  0.00     0.029 A 
HETATM    3  C12 UNL     1      19.489  -0.407  53.202  1.00  0.00     0.019 A 
HETATM    4  C13 UNL     1      20.796  -0.424  53.412  1.00  0.00     0.096 A 
HETATM    5  N2  UNL     1      21.537   0.405  52.530  1.00  0.00    -0.300 N 
HETATM    6  C14 UNL     1      22.958   0.464  52.793  1.00  0.00     0.327 C 
HETATM    7  O3  UNL     1      23.481  -0.207  53.748  1.00  0.00    -0.246 OA
HETATM    8  N3  UNL     1      23.905   1.228  52.072  1.00  0.00    -0.313 N 
HETATM    9  C21 UNL     1      21.085   1.201  51.413  1.00  0.00     0.140 A 
HETATM   10  C22 UNL     1      21.657   0.565  50.155  1.00  0.00     0.039 C 
HETATM   11  H14 UNL     1      23.555   1.808  51.279  1.00  0.00     0.170 HD
ENDROOT
BRANCH   1  12
HETATM   12  N1  UNL     1      18.790   1.818  50.421  1.00  0.00    -0.342 N 
HETATM   13  C6  UNL     1      19.187   3.200  50.294  1.00  0.00     0.067 A 
HETATM   14  C5  UNL     1      18.526   4.069  49.476  1.00  0.00     0.086 A 
HETATM   15  C7  UNL     1      20.250   3.769  50.984  1.00  0.00     0.071 A 
HETATM   16  C4  UNL     1      18.814   5.400  49.287  1.00  0.00     0.073 A 
HETATM   17  N4  UNL     1      17.415   3.567  48.713  1.00  0.00    -0.261 NA
HETATM   18  C3  UNL     1      19.879   5.912  49.997  1.00  0.00     0.104 A 
HETATM   19  C8  UNL     1      20.590   5.091  50.840  1.00  0.00     0.103 A 
HETATM   20  C24 UNL     1      17.066   2.319  48.812  1.00  0.00     0.110 A 
HETATM   21  C23 UNL     1      17.695   1.275  49.656  1.00  0.00     0.176 A 
BRANCH  18  22
HETATM   22  O1  UNL     1      20.269   7.239  49.894  1.00  0.00    -0.349 OA
BRANCH  22  23
HETATM   23  C2  UNL     1      19.524   8.253  49.276  1.00  0.00     0.171 C 
HETATM   24  C1  UNL     1      19.352   9.474  50.147  1.00  0.00     0.034 C 
ENDBRANCH  22  23
ENDBRANCH  18  22
BRANCH  19  25
HETATM   25  O2  UNL     1      21.661   5.619  51.550  1.00  0.00    -0.353 OA
HETATM   26  C9  UNL     1      22.654   4.867  52.181  1.00  0.00     0.210 C 
ENDBRANCH  19  25
ENDBRANCH   1  12
BRANCH   8  27
HETATM   27  C15 UNL     1      25.189   1.021  52.628  1.00  0.00     0.010 C 
HETATM   28  C16 UNL     1      25.785   1.925  53.646  1.00  0.00     0.068 C 
HETATM   29  C17 UNL     1      25.884  -0.028  52.216  1.00  0.00     0.026 C 
BRANCH  29  30
HETATM   30  C18 UNL     1      27.198  -0.311  52.731  1.00  0.00     0.026 C 
HETATM   31  C19 UNL     1      27.717  -1.485  53.051  1.00  0.00     0.134 C 
BRANCH  31  32
HETATM   32  O4  UNL     1      28.991  -1.724  53.546  1.00  0.00    -0.368 OA
HETATM   33  C20 UNL     1      29.859  -0.601  53.648  1.00  0.00     0.208 C 
ENDBRANCH  31  32
ENDBRANCH  29  30
ENDBRANCH   8  27
TORSDOF 7
ENDMDL
MODEL 6
REMARK VINA RESULT:      -7.0      4.232      6.821
REMARK  7 active torsions:
REMARK  status: ('A' for Active; 'I' for Inactive)
REMARK    1  A    between atoms: C2_2  and  O1_3 
REMARK    2  A    between atoms: O1_3  and  C3_4 
REMARK    3  A    between atoms: C8_9  and  O2_10 
REMARK    4  A    between atoms: N1_12  and  C10_13 
REMARK       I    between atoms: N2_17  and  C14_18 
REMARK       I    between atoms: C14_18  and  N3_20 
REMARK    5  A    between atoms: N3_20  and  C15_21 
REMARK    6  A    between atoms: C17_23  and  C18_24 
REMARK    7  A    between atoms: C19_25  and  O4_26 
ROOT
HETATM    1  C10 UNL     1      21.643   2.355  50.399  1.00  0.00     0.035 A 
HETATM    2  C11 UNL     1      21.759   1.073  50.097  1.00  0.00     0.029 A 
HETATM    3  C12 UNL     1      20.564   0.238  50.103  1.00  0.00     0.019 A 
HETATM    4  C13 UNL     1      19.352   0.686  50.390  1.00  0.00     0.096 A 
HETATM    5  N2  UNL     1      19.303   2.073  50.692  1.00  0.00    -0.300 N 
HETATM    6  C14 UNL     1      17.977   2.601  50.930  1.00  0.00     0.327 C 
HETATM    7  O3  UNL     1      16.947   1.845  50.881  1.00  0.00    -0.246 OA
HETATM    8  N3  UNL     1      17.662   3.947  51.230  1.00  0.00    -0.313 N 
HETATM    9  C21 UNL     1      20.375   3.035  50.793  1.00  0.00     0.140 A 
HETATM   10  C22 UNL     1      20.466   3.446  52.255  1.00  0.00     0.039 C 
HETATM   11  H14 UNL     1      18.449   4.628  51.283  1.00  0.00     0.170 HD
ENDROOT
BRANCH   1  12
HETATM   12  N1  UNL     1      22.908   2.999  50.333  1.00  0.00    -0.342 N 
HETATM   13  C6  UNL     1      23.848   2.431  51.271  1.00  0.00     0.067 A 
HETATM   14  C5  UNL     1      25.114   2.920  51.412  1.00  0.00     0.086 A 
HETATM   15  C7  UNL     1      23.558   1.361  52.108  1.00  0.00     0.071 A 
HETATM   16  C4  UNL     1      26.080   2.462  52.275  1.00  0.00     0.073 A 
HETATM   17  N4  UNL     1      25.508   4.024  50.579  1.00  0.00    -0.261 NA
HETATM   18  C3  UNL     1      25.738   1.398  53.082  1.00  0.00     0.104 A 
HETATM   19  C8  UNL     1      24.478   0.855  52.992  1.00  0.00     0.103 A 
HETATM   20  C24 UNL     1      24.670   4.527  49.722  1.00  0.00     0.110 A 
HETATM   21  C23 UNL     1      23.276   4.092  49.467  1.00  0.00     0.176 A 
BRANCH  18  22
HETATM   22  O1  UNL     1      26.624   0.845  53.994  1.00  0.00    -0.349 OA
BRANCH  22  23
HETATM   23  C2  UNL     1      27.716   0.028  53.666  1.00  0.00     0.171 C 
HETATM   24  C1  UNL     1      29.019   0.525  54.242  1.00  0.00     0.034 C 
ENDBRANCH  22  23
ENDBRANCH  18  22
BRANCH  19  25
HETATM   25  O2  UNL     1      24.146  -0.216  53.811  1.00  0.00    -0.353 OA
HETATM   26  C9  UNL     1      22.875  -0.786  53.911  1.00  0.00     0.210 C 
ENDBRANCH  19  25
ENDBRANCH   1  12
BRANCH   8  27
HETATM   27  C15 UNL     1      16.262   4.069  51.396  1.00  0.00     0.010 C 
HETATM   28  C16 UNL     1      15.345   4.443  50.288  1.00  0.00     0.068 C 
HETATM   29  C17 UNL     1      15.755   3.838  52.598  1.00  0.00     0.026 C 
BRANCH  29  30
HETATM   30  C18 UNL     1      14.343   3.941  52.852  1.00  0.00     0.026 C 
HETATM   31  C19 UNL     1      13.735   4.518  53.876  1.00  0.00     0.134 C 
BRANCH  31  32
HETATM   32  O4  UNL     1      12.367   4.600  54.093  1.00  0.00    -0.368 OA
HETATM   33  C20 UNL     1      11.722   3.424  54.567  1.00  0.00     0.208 C 
ENDBRANCH  31  32
ENDBRANCH  29  30
ENDBRANCH   8  27
TORSDOF 7
ENDMDL
MODEL 7
REMARK VINA RESULT:      -6.9      2.922      4.571
REMARK  7 active torsions:
REMARK  status: ('A' for Active; 'I' for Inactive)
REMARK    1  A    between atoms: C2_2  and  O1_3 
REMARK    2  A    between atoms: O1_3  and  C3_4 
REMARK    3  A    between atoms: C8_9  and  O2_10 
REMARK    4  A    between atoms: N1_12  and  C10_13 
REMARK       I    between atoms: N2_17  and  C14_18 
REMARK       I    between atoms: C14_18  and  N3_20 
REMARK    5  A    between atoms: N3_20  and  C15_21 
REMARK    6  A    between atoms: C17_23  and  C18_24 
REMARK    7  A    between atoms: C19_25  and  O4_26 
ROOT
HETATM    1  C10 UNL     1      22.024   2.562  51.871  1.00  0.00     0.035 A 
HETATM    2  C11 UNL     1      22.351   3.673  52.507  1.00  0.00     0.029 A 
HETATM    3  C12 UNL     1      22.129   4.954  51.848  1.00  0.00     0.019 A 
HETATM    4  C13 UNL     1      21.607   5.080  50.639  1.00  0.00     0.096 A 
HETATM    5  N2  UNL     1      21.269   3.847  50.021  1.00  0.00    -0.300 N 
HETATM    6  C14 UNL     1      20.622   3.965  48.732  1.00  0.00     0.327 C 
HETATM    7  O3  UNL     1      20.402   5.109  48.206  1.00  0.00    -0.246 OA
HETATM    8  N3  UNL     1      20.173   2.891  47.928  1.00  0.00    -0.313 N 
HETATM    9  C21 UNL     1      21.467   2.495  50.488  1.00  0.00     0.140 A 
HETATM   10  C22 UNL     1      22.497   1.855  49.569  1.00  0.00     0.039 C 
HETATM   11  H14 UNL     1      20.313   1.924  48.291  1.00  0.00     0.170 HD
ENDROOT
BRANCH   1  12
HETATM   12  N1  UNL     1      22.308   1.424  52.673  1.00  0.00    -0.342 N 
HETATM   13  C6  UNL     1      23.719   1.119  52.689  1.00  0.00     0.067 A 
HETATM   14  C5  UNL     1      24.219   0.042  53.361  1.00  0.00     0.086 A 
HETATM   15  C7  UNL     1      24.683   1.871  52.028  1.00  0.00     0.071 A 
HETATM   16  C4  UNL     1      25.537  -0.341  53.434  1.00  0.00     0.073 A 
HETATM   17  N4  UNL     1      23.296  -0.791  54.084  1.00  0.00    -0.261 NA
HETATM   18  C3  UNL     1      26.450   0.441  52.760  1.00  0.00     0.104 A 
HETATM   19  C8  UNL     1      26.015   1.542  52.061  1.00  0.00     0.103 A 
HETATM   20  C24 UNL     1      22.027  -0.510  54.086  1.00  0.00     0.110 A 
HETATM   21  C23 UNL     1      21.357   0.623  53.403  1.00  0.00     0.176 A 
BRANCH  18  22
HETATM   22  O1  UNL     1      27.808   0.159  52.756  1.00  0.00    -0.349 OA
BRANCH  22  23
HETATM   23  C2  UNL     1      28.584  -0.090  53.898  1.00  0.00     0.171 C 
HETATM   24  C1  UNL     1      29.773  -0.978  53.620  1.00  0.00     0.034 C 
ENDBRANCH  22  23
ENDBRANCH  18  22
BRANCH  19  25
HETATM   25  O2  UNL     1      26.945   2.322  51.386  1.00  0.00    -0.353 OA
HETATM   26  C9  UNL     1      26.647   3.209  50.349  1.00  0.00     0.210 C 
ENDBRANCH  19  25
ENDBRANCH   1  12
BRANCH   8  27
HETATM   27  C15 UNL     1      19.599   3.408  46.743  1.00  0.00     0.010 C 
HETATM   28  C16 UNL     1      18.137   3.617  46.577  1.00  0.00     0.068 C 
HETATM   29  C17 UNL     1      20.409   3.717  45.741  1.00  0.00     0.026 C 
BRANCH  29  30
HETATM   30  C18 UNL     1      19.906   4.248  44.502  1.00  0.00     0.026 C 
HETATM   31  C19 UNL     1      20.250   3.914  43.268  1.00  0.00     0.134 C 
BRANCH  31  32
HETATM   32  O4  UNL     1      19.744   4.446  42.091  1.00  0.00    -0.368 OA
HETATM   33  C20 UNL     1      20.695   4.885  41.128  1.00  0.00     0.208 C 
ENDBRANCH  31  32
ENDBRANCH  29  30
ENDBRANCH   8  27
TORSDOF 7
ENDMDL
MODEL 8
REMARK VINA RESULT:      -6.7      1.825      1.998
REMARK  7 active torsions:
REMARK  status: ('A' for Active; 'I' for Inactive)
REMARK    1  A    between atoms: C2_2  and  O1_3 
REMARK    2  A    between atoms: O1_3  and  C3_4 
REMARK    3  A    between atoms: C8_9  and  O2_10 
REMARK    4  A    between atoms: N1_12  and  C10_13 
REMARK       I    between atoms: N2_17  and  C14_18 
REMARK       I    between atoms: C14_18  and  N3_20 
REMARK    5  A    between atoms: N3_20  and  C15_21 
REMARK    6  A    between atoms: C17_23  and  C18_24 
REMARK    7  A    between atoms: C19_25  and  O4_26 
ROOT
HETATM    1  C10 UNL     1      21.527   2.014  50.408  1.00  0.00     0.035 A 
HETATM    2  C11 UNL     1      21.651   1.322  49.289  1.00  0.00     0.029 A 
HETATM    3  C12 UNL     1      21.615   2.029  48.015  1.00  0.00     0.019 A 
HETATM    4  C13 UNL     1      21.470   3.340  47.904  1.00  0.00     0.096 A 
HETATM    5  N2  UNL     1      21.355   4.019  49.146  1.00  0.00    -0.300 N 
HETATM    6  C14 UNL     1      21.278   5.461  49.051  1.00  0.00     0.327 C 
HETATM    7  O3  UNL     1      21.296   6.050  47.916  1.00  0.00    -0.246 OA
HETATM    8  N3  UNL     1      21.178   6.360  50.138  1.00  0.00    -0.313 N 
HETATM    9  C21 UNL     1      21.310   3.488  50.488  1.00  0.00     0.140 A 
HETATM   10  C22 UNL     1      19.912   3.756  51.024  1.00  0.00     0.039 C 
HETATM   11  H14 UNL     1      21.162   5.956  51.100  1.00  0.00     0.170 HD
ENDROOT
BRANCH   1  12
HETATM   12  N1  UNL     1      21.592   1.154  51.538  1.00  0.00    -0.342 N 
HETATM   13  C6  UNL     1      22.949   0.980  52.000  1.00  0.00     0.067 A 
HETATM   14  C5  UNL     1      23.256   0.162  53.048  1.00  0.00     0.086 A 
HETATM   15  C7  UNL     1      24.049   1.608  51.430  1.00  0.00     0.071 A 
HETATM   16  C4  UNL     1      24.508  -0.080  53.561  1.00  0.00     0.073 A 
HETATM   17  N4  UNL     1      22.178  -0.525  53.708  1.00  0.00    -0.261 NA
HETATM   18  C3  UNL     1      25.563   0.569  52.958  1.00  0.00     0.104 A 
HETATM   19  C8  UNL     1      25.325   1.409  51.896  1.00  0.00     0.103 A 
HETATM   20  C24 UNL     1      20.954  -0.357  53.304  1.00  0.00     0.110 A 
HETATM   21  C23 UNL     1      20.485   0.498  52.188  1.00  0.00     0.176 A 
BRANCH  18  22
HETATM   22  O1  UNL     1      26.873   0.407  53.382  1.00  0.00    -0.349 OA
BRANCH  22  23
HETATM   23  C2  UNL     1      27.266   0.113  54.696  1.00  0.00     0.171 C 
HETATM   24  C1  UNL     1      28.756   0.231  54.908  1.00  0.00     0.034 C 
ENDBRANCH  22  23
ENDBRANCH  18  22
BRANCH  19  25
HETATM   25  O2  UNL     1      26.397   2.057  51.296  1.00  0.00    -0.353 OA
HETATM   26  C9  UNL     1      26.296   3.172  50.461  1.00  0.00     0.210 C 
ENDBRANCH  19  25
ENDBRANCH   1  12
BRANCH   8  27
HETATM   27  C15 UNL     1      21.122   7.684  49.642  1.00  0.00     0.010 C 
HETATM   28  C16 UNL     1      19.854   8.447  49.516  1.00  0.00     0.068 C 
HETATM   29  C17 UNL     1      22.258   8.259  49.276  1.00  0.00     0.026 C 
BRANCH  29  30
HETATM   30  C18 UNL     1      22.289   9.603  48.761  1.00  0.00     0.026 C 
HETATM   31  C19 UNL     1      22.660  10.010  47.558  1.00  0.00     0.134 C 
BRANCH  31  32
HETATM   32  O4  UNL     1      22.678  11.316  47.091  1.00  0.00    -0.368 OA
HETATM   33  C20 UNL     1      23.206  11.521  45.785  1.00  0.00     0.208 C 
ENDBRANCH  31  32
ENDBRANCH  29  30
ENDBRANCH   8  27
TORSDOF 7
ENDMDL
MODEL 9
REMARK VINA RESULT:      -6.6      3.097      5.037
REMARK  7 active torsions:
REMARK  status: ('A' for Active; 'I' for Inactive)
REMARK    1  A    between atoms: C2_2  and  O1_3 
REMARK    2  A    between atoms: O1_3  and  C3_4 
REMARK    3  A    between atoms: C8_9  and  O2_10 
REMARK    4  A    between atoms: N1_12  and  C10_13 
REMARK       I    between atoms: N2_17  and  C14_18 
REMARK       I    between atoms: C14_18  and  N3_20 
REMARK    5  A    between atoms: N3_20  and  C15_21 
REMARK    6  A    between atoms: C17_23  and  C18_24 
REMARK    7  A    between atoms: C19_25  and  O4_26 
ROOT
HETATM    1  C10 UNL     1      21.947   2.263  52.121  1.00  0.00     0.035 A 
HETATM    2  C11 UNL     1      22.659   3.310  52.499  1.00  0.00     0.029 A 
HETATM    3  C12 UNL     1      22.557   4.546  51.731  1.00  0.00     0.019 A 
HETATM    4  C13 UNL     1      21.782   4.691  50.668  1.00  0.00     0.096 A 
HETATM    5  N2  UNL     1      21.038   3.530  50.329  1.00  0.00    -0.300 N 
HETATM    6  C14 UNL     1      20.123   3.691  49.220  1.00  0.00     0.327 C 
HETATM    7  O3  UNL     1      20.027   4.805  48.599  1.00  0.00    -0.246 OA
HETATM    8  N3  UNL     1      19.261   2.696  48.704  1.00  0.00    -0.313 N 
HETATM    9  C21 UNL     1      21.053   2.216  50.928  1.00  0.00     0.140 A 
HETATM   10  C22 UNL     1      21.648   1.267  49.899  1.00  0.00     0.039 C 
HETATM   11  H14 UNL     1      19.277   1.758  49.161  1.00  0.00     0.170 HD
ENDROOT
BRANCH   1  12
HETATM   12  N1  UNL     1      22.175   1.163  52.992  1.00  0.00    -0.342 N 
HETATM   13  C6  UNL     1      23.548   0.721  52.946  1.00  0.00     0.067 A 
HETATM   14  C5  UNL     1      23.988  -0.350  53.670  1.00  0.00     0.086 A 
HETATM   15  C7  UNL     1      24.532   1.322  52.171  1.00  0.00     0.071 A 
HETATM   16  C4  UNL     1      25.265  -0.858  53.693  1.00  0.00     0.073 A 
HETATM   17  N4  UNL     1      23.040  -1.031  54.511  1.00  0.00    -0.261 NA
HETATM   18  C3  UNL     1      26.200  -0.223  52.905  1.00  0.00     0.104 A 
HETATM   19  C8  UNL     1      25.826   0.864  52.149  1.00  0.00     0.103 A 
HETATM   20  C24 UNL     1      21.807  -0.625  54.567  1.00  0.00     0.110 A 
HETATM   21  C23 UNL     1      21.204   0.518  53.840  1.00  0.00     0.176 A 
BRANCH  18  22
HETATM   22  O1  UNL     1      27.521  -0.639  52.841  1.00  0.00    -0.349 OA
BRANCH  22  23
HETATM   23  C2  UNL     1      28.496  -0.385  53.816  1.00  0.00     0.171 C 
HETATM   24  C1  UNL     1      29.800  -1.096  53.547  1.00  0.00     0.034 C 
ENDBRANCH  22  23
ENDBRANCH  18  22
BRANCH  19  25
HETATM   25  O2  UNL     1      26.778   1.495  51.359  1.00  0.00    -0.353 OA
HETATM   26  C9  UNL     1      26.782   2.854  51.038  1.00  0.00     0.210 C 
ENDBRANCH  19  25
ENDBRANCH   1  12
BRANCH   8  27
HETATM   27  C15 UNL     1      18.527   3.234  47.621  1.00  0.00     0.010 C 
HETATM   28  C16 UNL     1      19.064   3.312  46.238  1.00  0.00     0.068 C 
HETATM   29  C17 UNL     1      17.305   3.687  47.861  1.00  0.00     0.026 C 
BRANCH  29  30
HETATM   30  C18 UNL     1      16.492   4.250  46.816  1.00  0.00     0.026 C 
HETATM   31  C19 UNL     1      15.974   5.466  46.746  1.00  0.00     0.134 C 
BRANCH  31  32
HETATM   32  O4  UNL     1      15.192   5.980  45.721  1.00  0.00    -0.368 OA
HETATM   33  C20 UNL     1      14.474   5.038  44.932  1.00  0.00     0.208 C 
ENDBRANCH  31  32
ENDBRANCH  29  30
ENDBRANCH   8  27
TORSDOF 7
ENDMDL
