MODEL 1
REMARK VINA RESULT:      -8.4      0.000      0.000
REMARK  5 active torsions:
REMARK  status: ('A' for Active; 'I' for Inactive)
REMARK    1  A    between atoms: C6_8  and  N3_9 
REMARK    2  A    between atoms: N3_9  and  C7_10 
REMARK    3  A    between atoms: C10_13  and  O1_14 
REMARK    4  A    between atoms: O1_14  and  C11_15 
REMARK    5  A    between atoms: C11_15  and  C12_16 
ROOT
HETATM    1  C7  UNL     1      25.920   5.136  49.451  1.00  0.00     0.035 A 
HETATM    2  C8  UNL     1      26.694   3.999  49.318  1.00  0.00     0.032 A 
HETATM    3  C9  UNL     1      26.486   2.861  50.058  1.00  0.00     0.041 A 
HETATM    4  C10 UNL     1      25.479   2.783  50.991  1.00  0.00     0.091 A 
HETATM    5  C18 UNL     1      24.683   3.933  51.137  1.00  0.00     0.069 A 
HETATM    6 CL1  UNL     1      23.321   4.104  52.262  1.00  0.00    -0.081 Cl
HETATM    7  C19 UNL     1      24.908   5.086  50.374  1.00  0.00     0.056 A 
ENDROOT
BRANCH   1   8
HETATM    8  N3  UNL     1      26.271   6.218  48.603  1.00  0.00    -0.340 N 
HETATM    9  H8  UNL     1      25.892   6.284  47.610  1.00  0.00     0.167 HD
BRANCH   8  10
HETATM   10  C6  UNL     1      27.118   7.296  48.952  1.00  0.00     0.137 A 
HETATM   11  C3  UNL     1      28.497   7.467  48.511  1.00  0.00     0.004 A 
HETATM   12  C2  UNL     1      28.969   6.515  47.726  1.00  0.00    -0.018 C 
HETATM   13  C4  UNL     1      29.372   8.586  48.867  1.00  0.00     0.192 A 
HETATM   14  C1  UNL     1      30.369   6.631  47.246  1.00  0.00     0.036 C 
HETATM   15  N1  UNL     1      28.644   9.488  49.732  1.00  0.00    -0.278 NA
HETATM   16  C5  UNL     1      27.431   9.312  50.105  1.00  0.00     0.229 A 
HETATM   17  N2  UNL     1      26.616   8.210  49.731  1.00  0.00    -0.224 NA
ENDBRANCH   8  10
ENDBRANCH   1   8
BRANCH   4  18
HETATM   18  O1  UNL     1      25.040   1.830  51.845  1.00  0.00    -0.345 OA
BRANCH  18  19
HETATM   19  C11 UNL     1      25.515   0.615  52.248  1.00  0.00     0.214 C 
BRANCH  19  20
HETATM   20  C12 UNL     1      26.864   0.629  52.864  1.00  0.00    -0.031 A 
HETATM   21  C13 UNL     1      27.498  -0.619  52.831  1.00  0.00     0.009 A 
HETATM   22  C14 UNL     1      28.763  -0.848  53.333  1.00  0.00     0.004 A 
HETATM   23  C15 UNL     1      29.472   0.186  53.906  1.00  0.00     0.042 A 
HETATM   24  C16 UNL     1      28.854   1.409  53.940  1.00  0.00     0.117 A 
HETATM   25  F1  UNL     1      29.462   2.504  54.485  1.00  0.00    -0.206 F 
HETATM   26  C17 UNL     1      27.592   1.644  53.441  1.00  0.00     0.051 A 
ENDBRANCH  19  20
ENDBRANCH  18  19
ENDBRANCH   4  18
TORSDOF 5
ENDMDL
MODEL 2
REMARK VINA RESULT:      -8.4      2.187      2.998
REMARK  5 active torsions:
REMARK  status: ('A' for Active; 'I' for Inactive)
REMARK    1  A    between atoms: C6_8  and  N3_9 
REMARK    2  A    between atoms: N3_9  and  C7_10 
REMARK    3  A    between atoms: C10_13  and  O1_14 
REMARK    4  A    between atoms: O1_14  and  C11_15 
REMARK    5  A    between atoms: C11_15  and  C12_16 
ROOT
HETATM    1  C7  UNL     1      23.712   3.270  50.657  1.00  0.00     0.035 A 
HETATM    2  C8  UNL     1      24.586   3.397  51.719  1.00  0.00     0.032 A 
HETATM    3  C9  UNL     1      24.606   2.526  52.780  1.00  0.00     0.041 A 
HETATM    4  C10 UNL     1      23.744   1.457  52.850  1.00  0.00     0.091 A 
HETATM    5  C18 UNL     1      22.849   1.314  51.776  1.00  0.00     0.069 A 
HETATM    6 CL1  UNL     1      21.635   0.030  51.611  1.00  0.00    -0.081 Cl
HETATM    7  C19 UNL     1      22.841   2.212  50.700  1.00  0.00     0.056 A 
ENDROOT
BRANCH   1   8
HETATM    8  N3  UNL     1      23.834   4.255  49.643  1.00  0.00    -0.340 N 
HETATM    9  H8  UNL     1      23.518   4.062  48.646  1.00  0.00     0.167 HD
BRANCH   8  10
HETATM   10  C6  UNL     1      24.357   5.559  49.821  1.00  0.00     0.137 A 
HETATM   11  C3  UNL     1      25.702   5.988  49.458  1.00  0.00     0.004 A 
HETATM   12  C2  UNL     1      26.476   5.059  48.927  1.00  0.00    -0.018 C 
HETATM   13  C4  UNL     1      26.241   7.338  49.636  1.00  0.00     0.192 A 
HETATM   14  C1  UNL     1      27.859   5.435  48.539  1.00  0.00     0.036 C 
HETATM   15  N1  UNL     1      25.222   8.170  50.237  1.00  0.00    -0.278 NA
HETATM   16  C5  UNL     1      24.047   7.766  50.547  1.00  0.00     0.229 A 
HETATM   17  N2  UNL     1      23.564   6.443  50.352  1.00  0.00    -0.224 NA
ENDBRANCH   8  10
ENDBRANCH   1   8
BRANCH   4  18
HETATM   18  O1  UNL     1      23.531   0.458  53.737  1.00  0.00    -0.345 OA
BRANCH  18  19
HETATM   19  C11 UNL     1      24.225  -0.658  54.106  1.00  0.00     0.214 C 
BRANCH  19  20
HETATM   20  C12 UNL     1      25.702  -0.551  54.018  1.00  0.00    -0.031 A 
HETATM   21  C13 UNL     1      26.239  -1.218  52.909  1.00  0.00     0.009 A 
HETATM   22  C14 UNL     1      27.586  -1.247  52.613  1.00  0.00     0.004 A 
HETATM   23  C15 UNL     1      28.484  -0.594  53.432  1.00  0.00     0.042 A 
HETATM   24  C16 UNL     1      27.962   0.059  54.517  1.00  0.00     0.117 A 
HETATM   25  F1  UNL     1      28.757   0.738  55.395  1.00  0.00    -0.206 F 
HETATM   26  C17 UNL     1      26.617   0.092  54.818  1.00  0.00     0.051 A 
ENDBRANCH  19  20
ENDBRANCH  18  19
ENDBRANCH   4  18
TORSDOF 5
ENDMDL
MODEL 3
REMARK VINA RESULT:      -8.2      4.747      6.992
REMARK  5 active torsions:
REMARK  status: ('A' for Active; 'I' for Inactive)
REMARK    1  A    between atoms: C6_8  and  N3_9 
REMARK    2  A    between atoms: N3_9  and  C7_10 
REMARK    3  A    between atoms: C10_13  and  O1_14 
REMARK    4  A    between atoms: O1_14  and  C11_15 
REMARK    5  A    between atoms: C11_15  and  C12_16 
ROOT
HETATM    1  C7  UNL     1      25.268   2.370  51.579  1.00  0.00     0.035 A 
HETATM    2  C8  UNL     1      24.781   3.150  52.609  1.00  0.00     0.032 A 
HETATM    3  C9  UNL     1      23.440   3.360  52.820  1.00  0.00     0.041 A 
HETATM    4  C10 UNL     1      22.487   2.797  52.005  1.00  0.00     0.091 A 
HETATM    5  C18 UNL     1      22.967   1.999  50.952  1.00  0.00     0.069 A 
HETATM    6 CL1  UNL     1      21.961   1.157  49.758  1.00  0.00    -0.081 Cl
HETATM    7  C19 UNL     1      24.339   1.795  50.751  1.00  0.00     0.056 A 
ENDROOT
BRANCH   1   8
HETATM    8  N3  UNL     1      26.680   2.256  51.512  1.00  0.00    -0.340 N 
HETATM    9  H8  UNL     1      27.223   2.615  50.670  1.00  0.00     0.167 HD
BRANCH   8  10
HETATM   10  C6  UNL     1      27.508   1.686  52.509  1.00  0.00     0.137 A 
HETATM   11  C3  UNL     1      27.560   0.272  52.860  1.00  0.00     0.004 A 
HETATM   12  C2  UNL     1      26.750  -0.517  52.178  1.00  0.00    -0.018 C 
HETATM   13  C4  UNL     1      28.420  -0.319  53.888  1.00  0.00     0.192 A 
HETATM   14  C1  UNL     1      26.755  -1.969  52.492  1.00  0.00     0.036 C 
HETATM   15  N1  UNL     1      29.203   0.732  54.499  1.00  0.00    -0.278 NA
HETATM   16  C5  UNL     1      29.137   1.968  54.171  1.00  0.00     0.229 A 
HETATM   17  N2  UNL     1      28.287   2.498  53.162  1.00  0.00    -0.224 NA
ENDBRANCH   8  10
ENDBRANCH   1   8
BRANCH   4  18
HETATM   18  O1  UNL     1      21.135   2.818  51.961  1.00  0.00    -0.345 OA
BRANCH  18  19
HETATM   19  C11 UNL     1      20.144   2.294  52.741  1.00  0.00     0.214 C 
BRANCH  19  20
HETATM   20  C12 UNL     1      20.443   0.977  53.354  1.00  0.00    -0.031 A 
HETATM   21  C13 UNL     1      19.568  -0.035  52.939  1.00  0.00     0.009 A 
HETATM   22  C14 UNL     1      19.657  -1.344  53.365  1.00  0.00     0.004 A 
HETATM   23  C15 UNL     1      20.648  -1.714  54.250  1.00  0.00     0.042 A 
HETATM   24  C16 UNL     1      21.505  -0.725  54.658  1.00  0.00     0.117 A 
HETATM   25  F1  UNL     1      22.524  -0.976  55.532  1.00  0.00    -0.206 F 
HETATM   26  C17 UNL     1      21.422   0.584  54.236  1.00  0.00     0.051 A 
ENDBRANCH  19  20
ENDBRANCH  18  19
ENDBRANCH   4  18
TORSDOF 5
ENDMDL
MODEL 4
REMARK VINA RESULT:      -8.1      1.883      2.508
REMARK  5 active torsions:
REMARK  status: ('A' for Active; 'I' for Inactive)
REMARK    1  A    between atoms: C6_8  and  N3_9 
REMARK    2  A    between atoms: N3_9  and  C7_10 
REMARK    3  A    between atoms: C10_13  and  O1_14 
REMARK    4  A    between atoms: O1_14  and  C11_15 
REMARK    5  A    between atoms: C11_15  and  C12_16 
ROOT
HETATM    1  C7  UNL     1      26.920   5.768  48.786  1.00  0.00     0.035 A 
HETATM    2  C8  UNL     1      27.137   4.420  48.997  1.00  0.00     0.032 A 
HETATM    3  C9  UNL     1      26.319   3.645  49.781  1.00  0.00     0.041 A 
HETATM    4  C10 UNL     1      25.217   4.170  50.412  1.00  0.00     0.091 A 
HETATM    5  C18 UNL     1      24.983   5.542  50.207  1.00  0.00     0.069 A 
HETATM    6 CL1  UNL     1      23.639   6.470  50.899  1.00  0.00    -0.081 Cl
HETATM    7  C19 UNL     1      25.827   6.320  49.404  1.00  0.00     0.056 A 
ENDROOT
BRANCH   1   8
HETATM    8  N3  UNL     1      27.861   6.415  47.943  1.00  0.00    -0.340 N 
HETATM    9  H8  UNL     1      27.752   6.402  46.885  1.00  0.00     0.167 HD
BRANCH   8  10
HETATM   10  C6  UNL     1      29.001   7.132  48.380  1.00  0.00     0.137 A 
HETATM   11  C3  UNL     1      30.372   6.635  48.359  1.00  0.00     0.004 A 
HETATM   12  C2  UNL     1      30.529   5.409  47.896  1.00  0.00    -0.018 C 
HETATM   13  C4  UNL     1      31.552   7.379  48.806  1.00  0.00     0.192 A 
HETATM   14  C1  UNL     1      31.903   4.847  47.852  1.00  0.00     0.036 C 
HETATM   15  N1  UNL     1      31.131   8.681  49.274  1.00  0.00    -0.278 NA
HETATM   16  C5  UNL     1      29.918   9.091  49.282  1.00  0.00     0.229 A 
HETATM   17  N2  UNL     1      28.801   8.334  48.835  1.00  0.00    -0.224 NA
ENDBRANCH   8  10
ENDBRANCH   1   8
BRANCH   4  18
HETATM   18  O1  UNL     1      24.253   3.675  51.222  1.00  0.00    -0.345 OA
BRANCH  18  19
HETATM   19  C11 UNL     1      24.130   3.507  52.571  1.00  0.00     0.214 C 
BRANCH  19  20
HETATM   20  C12 UNL     1      24.741   2.271  53.120  1.00  0.00    -0.031 A 
HETATM   21  C13 UNL     1      23.947   1.133  52.932  1.00  0.00     0.009 A 
HETATM   22  C14 UNL     1      24.313  -0.131  53.347  1.00  0.00     0.004 A 
HETATM   23  C15 UNL     1      25.520  -0.322  53.986  1.00  0.00     0.042 A 
HETATM   24  C16 UNL     1      26.299   0.790  54.171  1.00  0.00     0.117 A 
HETATM   25  F1  UNL     1      27.513   0.718  54.791  1.00  0.00    -0.206 F 
HETATM   26  C17 UNL     1      25.940   2.055  53.759  1.00  0.00     0.051 A 
ENDBRANCH  19  20
ENDBRANCH  18  19
ENDBRANCH   4  18
TORSDOF 5
ENDMDL
MODEL 5
REMARK VINA RESULT:      -8.0      3.645      7.660
REMARK  5 active torsions:
REMARK  status: ('A' for Active; 'I' for Inactive)
REMARK    1  A    between atoms: C6_8  and  N3_9 
REMARK    2  A    between atoms: N3_9  and  C7_10 
REMARK    3  A    between atoms: C10_13  and  O1_14 
REMARK    4  A    between atoms: O1_14  and  C11_15 
REMARK    5  A    between atoms: C11_15  and  C12_16 
ROOT
HETATM    1  C7  UNL     1      25.437   2.491  52.501  1.00  0.00     0.035 A 
HETATM    2  C8  UNL     1      24.186   3.065  52.627  1.00  0.00     0.032 A 
HETATM    3  C9  UNL     1      23.662   3.928  51.696  1.00  0.00     0.041 A 
HETATM    4  C10 UNL     1      24.361   4.278  50.565  1.00  0.00     0.091 A 
HETATM    5  C18 UNL     1      25.635   3.701  50.423  1.00  0.00     0.069 A 
HETATM    6 CL1  UNL     1      26.743   3.978  49.066  1.00  0.00    -0.081 Cl
HETATM    7  C19 UNL     1      26.156   2.822  51.382  1.00  0.00     0.056 A 
ENDROOT
BRANCH   1   8
HETATM    8  N3  UNL     1      25.818   1.618  53.553  1.00  0.00    -0.340 N 
HETATM    9  H8  UNL     1      25.126   1.332  54.309  1.00  0.00     0.167 HD
BRANCH   8  10
HETATM   10  C6  UNL     1      27.099   1.039  53.718  1.00  0.00     0.137 A 
HETATM   11  C3  UNL     1      27.484  -0.300  53.289  1.00  0.00     0.004 A 
HETATM   12  C2  UNL     1      26.535  -1.010  52.707  1.00  0.00    -0.018 C 
HETATM   13  C4  UNL     1      28.811  -0.898  53.455  1.00  0.00     0.192 A 
HETATM   14  C1  UNL     1      26.867  -2.384  52.250  1.00  0.00     0.036 C 
HETATM   15  N1  UNL     1      29.671   0.057  54.120  1.00  0.00    -0.278 NA
HETATM   16  C5  UNL     1      29.305   1.228  54.488  1.00  0.00     0.229 A 
HETATM   17  N2  UNL     1      28.003   1.769  54.302  1.00  0.00    -0.224 NA
ENDBRANCH   8  10
ENDBRANCH   1   8
BRANCH   4  18
HETATM   18  O1  UNL     1      24.117   5.077  49.502  1.00  0.00    -0.345 OA
BRANCH  18  19
HETATM   19  C11 UNL     1      23.948   6.422  49.334  1.00  0.00     0.214 C 
BRANCH  19  20
HETATM   20  C12 UNL     1      25.197   7.214  49.221  1.00  0.00    -0.031 A 
HETATM   21  C13 UNL     1      25.735   7.213  47.928  1.00  0.00     0.009 A 
HETATM   22  C14 UNL     1      26.886   7.890  47.579  1.00  0.00     0.004 A 
HETATM   23  C15 UNL     1      27.571   8.617  48.529  1.00  0.00     0.042 A 
HETATM   24  C16 UNL     1      27.046   8.620  49.796  1.00  0.00     0.117 A 
HETATM   25  F1  UNL     1      27.640   9.306  50.815  1.00  0.00    -0.206 F 
HETATM   26  C17 UNL     1      25.898   7.946  50.151  1.00  0.00     0.051 A 
ENDBRANCH  19  20
ENDBRANCH  18  19
ENDBRANCH   4  18
TORSDOF 5
ENDMDL
MODEL 6
REMARK VINA RESULT:      -8.0      2.970      3.907
REMARK  5 active torsions:
REMARK  status: ('A' for Active; 'I' for Inactive)
REMARK    1  A    between atoms: C6_8  and  N3_9 
REMARK    2  A    between atoms: N3_9  and  C7_10 
REMARK    3  A    between atoms: C10_13  and  O1_14 
REMARK    4  A    between atoms: O1_14  and  C11_15 
REMARK    5  A    between atoms: C11_15  and  C12_16 
ROOT
HETATM    1  C7  UNL     1      25.765   4.494  49.756  1.00  0.00     0.035 A 
HETATM    2  C8  UNL     1      26.635   3.440  49.958  1.00  0.00     0.032 A 
HETATM    3  C9  UNL     1      26.435   2.478  50.917  1.00  0.00     0.041 A 
HETATM    4  C10 UNL     1      25.340   2.507  51.748  1.00  0.00     0.091 A 
HETATM    5  C18 UNL     1      24.445   3.574  51.554  1.00  0.00     0.069 A 
HETATM    6 CL1  UNL     1      22.958   3.850  52.481  1.00  0.00    -0.081 Cl
HETATM    7  C19 UNL     1      24.663   4.547  50.570  1.00  0.00     0.056 A 
ENDROOT
BRANCH   1   8
HETATM    8  N3  UNL     1      26.122   5.392  48.717  1.00  0.00    -0.340 N 
HETATM    9  H8  UNL     1      25.802   5.231  47.715  1.00  0.00     0.167 HD
BRANCH   8  10
HETATM   10  C6  UNL     1      26.904   6.562  48.873  1.00  0.00     0.137 A 
HETATM   11  C3  UNL     1      28.320   6.684  48.548  1.00  0.00     0.004 A 
HETATM   12  C2  UNL     1      28.895   5.592  48.078  1.00  0.00    -0.018 C 
HETATM   13  C4  UNL     1      29.128   7.896  48.704  1.00  0.00     0.192 A 
HETATM   14  C1  UNL     1      30.338   5.653  47.731  1.00  0.00     0.036 C 
HETATM   15  N1  UNL     1      28.289   8.947  49.238  1.00  0.00    -0.278 NA
HETATM   16  C5  UNL     1      27.047   8.811  49.516  1.00  0.00     0.229 A 
HETATM   17  N2  UNL     1      26.300   7.614  49.345  1.00  0.00    -0.224 NA
ENDBRANCH   8  10
ENDBRANCH   1   8
BRANCH   4  18
HETATM   18  O1  UNL     1      24.885   1.726  52.754  1.00  0.00    -0.345 OA
BRANCH  18  19
HETATM   19  C11 UNL     1      24.665   0.386  52.902  1.00  0.00     0.214 C 
BRANCH  19  20
HETATM   20  C12 UNL     1      23.251  -0.011  53.103  1.00  0.00    -0.031 A 
HETATM   21  C13 UNL     1      23.051  -0.768  54.265  1.00  0.00     0.009 A 
HETATM   22  C14 UNL     1      21.818  -1.239  54.667  1.00  0.00     0.004 A 
HETATM   23  C15 UNL     1      20.698  -0.972  53.907  1.00  0.00     0.042 A 
HETATM   24  C16 UNL     1      20.891  -0.232  52.770  1.00  0.00     0.117 A 
HETATM   25  F1  UNL     1      19.855   0.093  51.943  1.00  0.00    -0.206 F 
HETATM   26  C17 UNL     1      22.119   0.243  52.363  1.00  0.00     0.051 A 
ENDBRANCH  19  20
ENDBRANCH  18  19
ENDBRANCH   4  18
TORSDOF 5
ENDMDL
MODEL 7
REMARK VINA RESULT:      -7.9      2.271      3.341
REMARK  5 active torsions:
REMARK  status: ('A' for Active; 'I' for Inactive)
REMARK    1  A    between atoms: C6_8  and  N3_9 
REMARK    2  A    between atoms: N3_9  and  C7_10 
REMARK    3  A    between atoms: C10_13  and  O1_14 
REMARK    4  A    between atoms: O1_14  and  C11_15 
REMARK    5  A    between atoms: C11_15  and  C12_16 
ROOT
HETATM    1  C7  UNL     1      27.271   5.731  48.710  1.00  0.00     0.035 A 
HETATM    2  C8  UNL     1      27.223   4.373  48.958  1.00  0.00     0.032 A 
HETATM    3  C9  UNL     1      26.235   3.784  49.709  1.00  0.00     0.041 A 
HETATM    4  C10 UNL     1      25.219   4.523  50.267  1.00  0.00     0.091 A 
HETATM    5  C18 UNL     1      25.255   5.907  50.022  1.00  0.00     0.069 A 
HETATM    6 CL1  UNL     1      24.072   7.088  50.619  1.00  0.00    -0.081 Cl
HETATM    7  C19 UNL     1      26.269   6.492  49.254  1.00  0.00     0.056 A 
ENDROOT
BRANCH   1   8
HETATM    8  N3  UNL     1      28.359   6.168  47.910  1.00  0.00    -0.340 N 
HETATM    9  H8  UNL     1      28.227   6.398  46.879  1.00  0.00     0.167 HD
BRANCH   8  10
HETATM   10  C6  UNL     1      29.689   6.353  48.358  1.00  0.00     0.137 A 
HETATM   11  C3  UNL     1      30.256   7.611  48.828  1.00  0.00     0.004 A 
HETATM   12  C2  UNL     1      29.438   8.648  48.817  1.00  0.00    -0.018 C 
HETATM   13  C4  UNL     1      31.630   7.802  49.297  1.00  0.00     0.192 A 
HETATM   14  C1  UNL     1      29.959   9.958  49.282  1.00  0.00     0.036 C 
HETATM   15  N1  UNL     1      32.330   6.539  49.210  1.00  0.00    -0.278 NA
HETATM   16  C5  UNL     1      31.807   5.448  48.791  1.00  0.00     0.229 A 
HETATM   17  N2  UNL     1      30.463   5.308  48.347  1.00  0.00    -0.224 NA
ENDBRANCH   8  10
ENDBRANCH   1   8
BRANCH   4  18
HETATM   18  O1  UNL     1      24.138   4.238  51.029  1.00  0.00    -0.345 OA
BRANCH  18  19
HETATM   19  C11 UNL     1      23.943   3.992  52.358  1.00  0.00     0.214 C 
BRANCH  19  20
HETATM   20  C12 UNL     1      24.430   2.678  52.844  1.00  0.00    -0.031 A 
HETATM   21  C13 UNL     1      23.538   1.630  52.584  1.00  0.00     0.009 A 
HETATM   22  C14 UNL     1      23.780   0.317  52.933  1.00  0.00     0.004 A 
HETATM   23  C15 UNL     1      24.954  -0.020  53.573  1.00  0.00     0.042 A 
HETATM   24  C16 UNL     1      25.829   1.004  53.828  1.00  0.00     0.117 A 
HETATM   25  F1  UNL     1      27.021   0.787  54.456  1.00  0.00    -0.206 F 
HETATM   26  C17 UNL     1      25.593   2.317  53.483  1.00  0.00     0.051 A 
ENDBRANCH  19  20
ENDBRANCH  18  19
ENDBRANCH   4  18
TORSDOF 5
ENDMDL
MODEL 8
REMARK VINA RESULT:      -7.8      2.877      3.628
REMARK  5 active torsions:
REMARK  status: ('A' for Active; 'I' for Inactive)
REMARK    1  A    between atoms: C6_8  and  N3_9 
REMARK    2  A    between atoms: N3_9  and  C7_10 
REMARK    3  A    between atoms: C10_13  and  O1_14 
REMARK    4  A    between atoms: O1_14  and  C11_15 
REMARK    5  A    between atoms: C11_15  and  C12_16 
ROOT
HETATM    1  C7  UNL     1      27.257   5.975  48.653  1.00  0.00     0.035 A 
HETATM    2  C8  UNL     1      27.440   4.612  48.783  1.00  0.00     0.032 A 
HETATM    3  C9  UNL     1      26.611   3.813  49.532  1.00  0.00     0.041 A 
HETATM    4  C10 UNL     1      25.532   4.331  50.208  1.00  0.00     0.091 A 
HETATM    5  C18 UNL     1      25.332   5.717  50.085  1.00  0.00     0.069 A 
HETATM    6 CL1  UNL     1      24.022   6.639  50.848  1.00  0.00    -0.081 Cl
HETATM    7  C19 UNL     1      26.187   6.518  49.317  1.00  0.00     0.056 A 
ENDROOT
BRANCH   1   8
HETATM    8  N3  UNL     1      28.204   6.645  47.836  1.00  0.00    -0.340 N 
HETATM    9  H8  UNL     1      28.026   6.796  46.798  1.00  0.00     0.167 HD
BRANCH   8  10
HETATM   10  C6  UNL     1      29.439   7.178  48.275  1.00  0.00     0.137 A 
HETATM   11  C3  UNL     1      30.728   6.500  48.200  1.00  0.00     0.004 A 
HETATM   12  C2  UNL     1      30.707   5.286  47.681  1.00  0.00    -0.018 C 
HETATM   13  C4  UNL     1      32.008   7.053  48.650  1.00  0.00     0.192 A 
HETATM   14  C1  UNL     1      31.990   4.544  47.580  1.00  0.00     0.036 C 
HETATM   15  N1  UNL     1      31.778   8.378  49.185  1.00  0.00    -0.278 NA
HETATM   16  C5  UNL     1      30.634   8.949  49.239  1.00  0.00     0.229 A 
HETATM   17  N2  UNL     1      29.415   8.374  48.786  1.00  0.00    -0.224 NA
ENDBRANCH   8  10
ENDBRANCH   1   8
BRANCH   4  18
HETATM   18  O1  UNL     1      24.565   3.814  51.001  1.00  0.00    -0.345 OA
BRANCH  18  19
HETATM   19  C11 UNL     1      23.546   2.925  50.812  1.00  0.00     0.214 C 
BRANCH  19  20
HETATM   20  C12 UNL     1      23.441   1.847  51.825  1.00  0.00    -0.031 A 
HETATM   21  C13 UNL     1      24.662   1.208  52.078  1.00  0.00     0.009 A 
HETATM   22  C14 UNL     1      24.813   0.184  52.990  1.00  0.00     0.004 A 
HETATM   23  C15 UNL     1      23.725  -0.262  53.710  1.00  0.00     0.042 A 
HETATM   24  C16 UNL     1      22.530   0.361  53.464  1.00  0.00     0.117 A 
HETATM   25  F1  UNL     1      21.387   0.002  54.119  1.00  0.00    -0.206 F 
HETATM   26  C17 UNL     1      22.372   1.385  52.556  1.00  0.00     0.051 A 
ENDBRANCH  19  20
ENDBRANCH  18  19
ENDBRANCH   4  18
TORSDOF 5
ENDMDL
MODEL 9
REMARK VINA RESULT:      -7.8      5.394      8.312
REMARK  5 active torsions:
REMARK  status: ('A' for Active; 'I' for Inactive)
REMARK    1  A    between atoms: C6_8  and  N3_9 
REMARK    2  A    between atoms: N3_9  and  C7_10 
REMARK    3  A    between atoms: C10_13  and  O1_14 
REMARK    4  A    between atoms: O1_14  and  C11_15 
REMARK    5  A    between atoms: C11_15  and  C12_16 
ROOT
HETATM    1  C7  UNL     1      21.100   1.736  52.169  1.00  0.00     0.035 A 
HETATM    2  C8  UNL     1      21.728   2.565  51.259  1.00  0.00     0.032 A 
HETATM    3  C9  UNL     1      23.077   2.516  51.009  1.00  0.00     0.041 A 
HETATM    4  C10 UNL     1      23.898   1.625  51.659  1.00  0.00     0.091 A 
HETATM    5  C18 UNL     1      23.273   0.774  52.588  1.00  0.00     0.069 A 
HETATM    6 CL1  UNL     1      24.091  -0.464  53.561  1.00  0.00    -0.081 Cl
HETATM    7  C19 UNL     1      21.895   0.837  52.832  1.00  0.00     0.056 A 
ENDROOT
BRANCH   1   8
HETATM    8  N3  UNL     1      19.699   1.919  52.297  1.00  0.00    -0.340 N 
HETATM    9  H8  UNL     1      19.294   2.574  53.031  1.00  0.00     0.167 HD
BRANCH   8  10
HETATM   10  C6  UNL     1      18.711   1.291  51.502  1.00  0.00     0.137 A 
HETATM   11  C3  UNL     1      18.064   0.019  51.802  1.00  0.00     0.004 A 
HETATM   12  C2  UNL     1      18.459  -0.576  52.913  1.00  0.00    -0.018 C 
HETATM   13  C4  UNL     1      17.037  -0.628  50.982  1.00  0.00     0.192 A 
HETATM   14  C1  UNL     1      17.838  -1.876  53.271  1.00  0.00     0.036 C 
HETATM   15  N1  UNL     1      16.778   0.200  49.824  1.00  0.00    -0.278 NA
HETATM   16  C5  UNL     1      17.363   1.314  49.585  1.00  0.00     0.229 A 
HETATM   17  N2  UNL     1      18.354   1.908  50.413  1.00  0.00    -0.224 NA
ENDBRANCH   8  10
ENDBRANCH   1   8
BRANCH   4  18
HETATM   18  O1  UNL     1      25.221   1.347  51.627  1.00  0.00    -0.345 OA
BRANCH  18  19
HETATM   19  C11 UNL     1      26.359   2.100  51.688  1.00  0.00     0.214 C 
BRANCH  19  20
HETATM   20  C12 UNL     1      27.396   1.615  52.632  1.00  0.00    -0.031 A 
HETATM   21  C13 UNL     1      27.488   0.218  52.681  1.00  0.00     0.009 A 
HETATM   22  C14 UNL     1      28.387  -0.461  53.476  1.00  0.00     0.004 A 
HETATM   23  C15 UNL     1      29.259   0.240  54.281  1.00  0.00     0.042 A 
HETATM   24  C16 UNL     1      29.172   1.607  54.235  1.00  0.00     0.117 A 
HETATM   25  F1  UNL     1      29.986   2.402  54.990  1.00  0.00    -0.206 F 
HETATM   26  C17 UNL     1      28.276   2.292  53.443  1.00  0.00     0.051 A 
ENDBRANCH  19  20
ENDBRANCH  18  19
ENDBRANCH   4  18
TORSDOF 5
ENDMDL
