MODEL 1
REMARK VINA RESULT:      -7.8      0.000      0.000
REMARK  3 active torsions:
REMARK  status: ('A' for Active; 'I' for Inactive)
REMARK    1  A    between atoms: C4_5  and  N2_6 
REMARK    2  A    between atoms: C9_12  and  N3_13 
REMARK       I    between atoms: N4_17  and  C13_18 
REMARK    3  A    between atoms: C13_18  and  C14_20 
ROOT
HETATM    1  N1  UNL     1      27.639  -0.881  53.913  1.00  0.00    -0.191 NA
HETATM    2  C1  UNL     1      26.661  -0.387  53.538  1.00  0.00     0.106 C 
HETATM    3  C2  UNL     1      25.445   0.211  53.057  1.00  0.00     0.084 C 
HETATM    4  C3  UNL     1      25.367   0.945  51.956  1.00  0.00     0.044 C 
HETATM    5  C4  UNL     1      24.258   1.636  51.292  1.00  0.00     0.285 C 
HETATM    6  C10 UNL     1      22.914   1.084  51.598  1.00  0.00    -0.005 A 
HETATM    7  C11 UNL     1      21.935   1.313  50.745  1.00  0.00     0.004 A 
HETATM    8  C12 UNL     1      20.536   0.836  50.897  1.00  0.00     0.159 A 
HETATM    9  N4  UNL     1      20.382   0.078  52.118  1.00  0.00    -0.321 N 
HETATM   10  C13 UNL     1      19.026  -0.346  52.202  1.00  0.00     0.255 C 
HETATM   11  O1  UNL     1      18.684   0.194  51.120  1.00  0.00    -0.270 OA
HETATM   12  C16 UNL     1      21.417  -0.177  53.043  1.00  0.00     0.113 A 
HETATM   13  C17 UNL     1      22.622   0.302  52.795  1.00  0.00     0.030 A 
HETATM   14  S1  UNL     1      23.926  -0.028  53.976  1.00  0.00    -0.078 SA
ENDROOT
BRANCH   5  15
HETATM   15  N2  UNL     1      24.251   3.046  51.436  1.00  0.00     0.138 N 
HETATM   16  C5  UNL     1      24.140   3.593  52.742  1.00  0.00     0.305 C 
HETATM   17  C6  UNL     1      23.455   4.925  52.539  1.00  0.00     0.018 C 
HETATM   18  C7  UNL     1      23.782   5.494  51.375  1.00  0.00    -0.010 C 
HETATM   19 BR1  UNL     1      23.066   7.198  50.835  1.00  0.00    -0.056 Br
HETATM   20  C8  UNL     1      24.692   5.043  50.266  1.00  0.00     0.114 C 
HETATM   21  C9  UNL     1      25.331   3.751  50.776  1.00  0.00     0.457 C 
BRANCH  21  22
HETATM   22  N3  UNL     1      25.936   2.990  49.716  1.00  0.00     0.112 N 
HETATM   23  H9  UNL     1      26.474   2.193  50.082  1.00  0.00     0.315 HD
HETATM   24  H10 UNL     1      26.560   3.571  49.128  1.00  0.00     0.315 HD
ENDBRANCH  21  22
ENDBRANCH   5  15
BRANCH  10  25
HETATM   25  C14 UNL     1      18.481  -1.155  53.328  1.00  0.00     0.237 A 
HETATM   26  C15 UNL     1      17.417  -2.117  53.060  1.00  0.00     0.210 A 
HETATM   27  O2  UNL     1      17.037  -0.805  53.443  1.00  0.00    -0.371 OA
ENDBRANCH  10  25
TORSDOF 3
ENDMDL
MODEL 2
REMARK VINA RESULT:      -7.7      3.580      6.213
REMARK  3 active torsions:
REMARK  status: ('A' for Active; 'I' for Inactive)
REMARK    1  A    between atoms: C4_5  and  N2_6 
REMARK    2  A    between atoms: C9_12  and  N3_13 
REMARK       I    between atoms: N4_17  and  C13_18 
REMARK    3  A    between atoms: C13_18  and  C14_20 
ROOT
HETATM    1  N1  UNL     1      18.284  -2.016  53.901  1.00  0.00    -0.191 NA
HETATM    2  C1  UNL     1      19.166  -1.351  53.553  1.00  0.00     0.106 C 
HETATM    3  C2  UNL     1      20.262  -0.516  53.140  1.00  0.00     0.084 C 
HETATM    4  C3  UNL     1      20.128   0.749  52.769  1.00  0.00     0.044 C 
HETATM    5  C4  UNL     1      21.083   1.766  52.320  1.00  0.00     0.285 C 
HETATM    6  C10 UNL     1      22.480   1.543  52.773  1.00  0.00    -0.005 A 
HETATM    7  C11 UNL     1      23.294   2.580  52.820  1.00  0.00     0.004 A 
HETATM    8  C12 UNL     1      24.716   2.533  53.248  1.00  0.00     0.159 A 
HETATM    9  N4  UNL     1      25.100   1.187  53.609  1.00  0.00    -0.321 N 
HETATM   10  C13 UNL     1      26.467   1.213  54.005  1.00  0.00     0.255 C 
HETATM   11  O1  UNL     1      26.604   2.447  53.816  1.00  0.00    -0.270 OA
HETATM   12  C16 UNL     1      24.244   0.067  53.564  1.00  0.00     0.113 A 
HETATM   13  C17 UNL     1      22.996   0.237  53.166  1.00  0.00     0.030 A 
HETATM   14  S1  UNL     1      21.920  -1.193  53.113  1.00  0.00    -0.078 SA
ENDROOT
BRANCH   5  15
HETATM   15  N2  UNL     1      21.058   2.049  50.932  1.00  0.00     0.138 N 
HETATM   16  C5  UNL     1      20.968   0.963  50.021  1.00  0.00     0.305 C 
HETATM   17  C6  UNL     1      21.666   1.454  48.774  1.00  0.00     0.018 C 
HETATM   18  C7  UNL     1      21.514   2.769  48.588  1.00  0.00    -0.010 C 
HETATM   19 BR1  UNL     1      22.291   3.684  47.083  1.00  0.00    -0.056 Br
HETATM   20  C8  UNL     1      20.785   3.811  49.392  1.00  0.00     0.114 C 
HETATM   21  C9  UNL     1      20.086   3.035  50.508  1.00  0.00     0.457 C 
BRANCH  21  22
HETATM   22  N3  UNL     1      19.652   3.895  51.576  1.00  0.00     0.112 N 
HETATM   23  H9  UNL     1      18.704   3.653  51.895  1.00  0.00     0.315 HD
HETATM   24  H10 UNL     1      19.666   4.894  51.301  1.00  0.00     0.315 HD
ENDBRANCH  21  22
ENDBRANCH   5  15
BRANCH  10  25
HETATM   25  C14 UNL     1      27.222   0.007  54.448  1.00  0.00     0.237 A 
HETATM   26  C15 UNL     1      28.659   0.116  54.680  1.00  0.00     0.210 A 
HETATM   27  O2  UNL     1      28.228  -0.278  53.387  1.00  0.00    -0.371 OA
ENDBRANCH  10  25
TORSDOF 3
ENDMDL
MODEL 3
REMARK VINA RESULT:      -7.5      4.786      7.756
REMARK  3 active torsions:
REMARK  status: ('A' for Active; 'I' for Inactive)
REMARK    1  A    between atoms: C4_5  and  N2_6 
REMARK    2  A    between atoms: C9_12  and  N3_13 
REMARK       I    between atoms: N4_17  and  C13_18 
REMARK    3  A    between atoms: C13_18  and  C14_20 
ROOT
HETATM    1  N1  UNL     1      19.794   2.858  52.659  1.00  0.00    -0.191 NA
HETATM    2  C1  UNL     1      20.917   2.959  52.397  1.00  0.00     0.106 C 
HETATM    3  C2  UNL     1      22.308   3.080  52.050  1.00  0.00     0.084 C 
HETATM    4  C3  UNL     1      23.112   2.046  51.846  1.00  0.00     0.044 C 
HETATM    5  C4  UNL     1      24.529   1.937  51.492  1.00  0.00     0.285 C 
HETATM    6  C10 UNL     1      25.083   3.122  50.790  1.00  0.00    -0.005 A 
HETATM    7  C11 UNL     1      26.163   2.961  50.048  1.00  0.00     0.004 A 
HETATM    8  C12 UNL     1      26.844   4.036  49.282  1.00  0.00     0.159 A 
HETATM    9  N4  UNL     1      26.164   5.300  49.455  1.00  0.00    -0.321 N 
HETATM   10  C13 UNL     1      26.866   6.281  48.700  1.00  0.00     0.255 C 
HETATM   11  O1  UNL     1      27.734   5.480  48.274  1.00  0.00    -0.270 OA
HETATM   12  C16 UNL     1      25.010   5.491  50.244  1.00  0.00     0.113 A 
HETATM   13  C17 UNL     1      24.496   4.454  50.879  1.00  0.00     0.030 A 
HETATM   14  S1  UNL     1      23.031   4.709  51.876  1.00  0.00    -0.078 SA
ENDROOT
BRANCH   5  15
HETATM   15  N2  UNL     1      25.389   1.548  52.549  1.00  0.00     0.138 N 
HETATM   16  C5  UNL     1      25.722   2.511  53.539  1.00  0.00     0.305 C 
HETATM   17  C6  UNL     1      27.092   2.098  54.026  1.00  0.00     0.018 C 
HETATM   18  C7  UNL     1      27.265   0.772  53.998  1.00  0.00    -0.010 C 
HETATM   19 BR1  UNL     1      28.910  -0.055  54.559  1.00  0.00    -0.056 Br
HETATM   20  C8  UNL     1      26.348  -0.343  53.575  1.00  0.00     0.114 C 
HETATM   21  C9  UNL     1      25.018   0.337  53.249  1.00  0.00     0.457 C 
BRANCH  21  22
HETATM   22  N3  UNL     1      24.149  -0.515  52.483  1.00  0.00     0.112 N 
HETATM   23  H9  UNL     1      24.681  -1.125  51.848  1.00  0.00     0.315 HD
HETATM   24  H10 UNL     1      23.464   0.028  51.926  1.00  0.00     0.315 HD
ENDBRANCH  21  22
ENDBRANCH   5  15
BRANCH  10  25
HETATM   25  C14 UNL     1      26.463   7.714  48.631  1.00  0.00     0.237 A 
HETATM   26  C15 UNL     1      27.489   8.729  48.417  1.00  0.00     0.210 A 
HETATM   27  O2  UNL     1      27.154   8.404  49.757  1.00  0.00    -0.371 OA
ENDBRANCH  10  25
TORSDOF 3
ENDMDL
MODEL 4
REMARK VINA RESULT:      -7.3      4.030      6.008
REMARK  3 active torsions:
REMARK  status: ('A' for Active; 'I' for Inactive)
REMARK    1  A    between atoms: C4_5  and  N2_6 
REMARK    2  A    between atoms: C9_12  and  N3_13 
REMARK       I    between atoms: N4_17  and  C13_18 
REMARK    3  A    between atoms: C13_18  and  C14_20 
ROOT
HETATM    1  N1  UNL     1      18.870   2.837  48.184  1.00  0.00    -0.191 NA
HETATM    2  C1  UNL     1      19.847   3.028  48.776  1.00  0.00     0.106 C 
HETATM    3  C2  UNL     1      21.049   3.262  49.530  1.00  0.00     0.084 C 
HETATM    4  C3  UNL     1      21.295   4.378  50.202  1.00  0.00     0.044 C 
HETATM    5  C4  UNL     1      22.426   4.822  51.021  1.00  0.00     0.285 C 
HETATM    6  C10 UNL     1      23.239   3.723  51.600  1.00  0.00    -0.005 A 
HETATM    7  C11 UNL     1      23.962   3.979  52.673  1.00  0.00     0.004 A 
HETATM    8  C12 UNL     1      24.829   2.999  53.377  1.00  0.00     0.159 A 
HETATM    9  N4  UNL     1      24.778   1.709  52.726  1.00  0.00    -0.321 N 
HETATM   10  C13 UNL     1      25.627   0.822  53.446  1.00  0.00     0.255 C 
HETATM   11  O1  UNL     1      25.975   1.680  54.294  1.00  0.00    -0.270 OA
HETATM   12  C16 UNL     1      24.012   1.417  51.578  1.00  0.00     0.113 A 
HETATM   13  C17 UNL     1      23.279   2.376  51.043  1.00  0.00     0.030 A 
HETATM   14  S1  UNL     1      22.311   1.992  49.586  1.00  0.00    -0.078 SA
ENDROOT
BRANCH   5  15
HETATM   15  N2  UNL     1      23.269   5.787  50.416  1.00  0.00     0.138 N 
HETATM   16  C5  UNL     1      23.779   5.521  49.116  1.00  0.00     0.305 C 
HETATM   17  C6  UNL     1      25.097   6.259  49.067  1.00  0.00     0.018 C 
HETATM   18  C7  UNL     1      25.080   7.384  49.788  1.00  0.00    -0.010 C 
HETATM   19 BR1  UNL     1      26.615   8.538  49.918  1.00  0.00    -0.056 Br
HETATM   20  C8  UNL     1      23.997   8.019  50.617  1.00  0.00     0.114 C 
HETATM   21  C9  UNL     1      22.762   7.143  50.398  1.00  0.00     0.457 C 
BRANCH  21  22
HETATM   22  N3  UNL     1      21.748   7.380  51.390  1.00  0.00     0.112 N 
HETATM   23  H9  UNL     1      20.804   7.224  51.010  1.00  0.00     0.315 HD
HETATM   24  H10 UNL     1      21.797   8.340  51.775  1.00  0.00     0.315 HD
ENDBRANCH  21  22
ENDBRANCH   5  15
BRANCH  10  25
HETATM   25  C14 UNL     1      25.836  -0.606  53.074  1.00  0.00     0.237 A 
HETATM   26  C15 UNL     1      27.178  -1.172  53.163  1.00  0.00     0.210 A 
HETATM   27  O2  UNL     1      26.781  -0.610  51.922  1.00  0.00    -0.371 OA
ENDBRANCH  10  25
TORSDOF 3
ENDMDL
MODEL 5
REMARK VINA RESULT:      -7.2      3.495      6.563
REMARK  3 active torsions:
REMARK  status: ('A' for Active; 'I' for Inactive)
REMARK    1  A    between atoms: C4_5  and  N2_6 
REMARK    2  A    between atoms: C9_12  and  N3_13 
REMARK       I    between atoms: N4_17  and  C13_18 
REMARK    3  A    between atoms: C13_18  and  C14_20 
ROOT
HETATM    1  N1  UNL     1      26.591  -1.267  53.829  1.00  0.00    -0.191 NA
HETATM    2  C1  UNL     1      25.877  -0.466  53.394  1.00  0.00     0.106 C 
HETATM    3  C2  UNL     1      24.993   0.542  52.871  1.00  0.00     0.084 C 
HETATM    4  C3  UNL     1      23.756   0.737  53.305  1.00  0.00     0.044 C 
HETATM    5  C4  UNL     1      22.703   1.683  52.927  1.00  0.00     0.285 C 
HETATM    6  C10 UNL     1      23.193   2.933  52.293  1.00  0.00    -0.005 A 
HETATM    7  C11 UNL     1      22.418   4.000  52.333  1.00  0.00     0.004 A 
HETATM    8  C12 UNL     1      22.754   5.325  51.751  1.00  0.00     0.159 A 
HETATM    9  N4  UNL     1      24.057   5.296  51.125  1.00  0.00    -0.321 N 
HETATM   10  C13 UNL     1      24.313   6.589  50.590  1.00  0.00     0.255 C 
HETATM   11  O1  UNL     1      23.219   7.075  50.968  1.00  0.00    -0.270 OA
HETATM   12  C16 UNL     1      24.899   4.165  51.072  1.00  0.00     0.113 A 
HETATM   13  C17 UNL     1      24.487   3.041  51.629  1.00  0.00     0.030 A 
HETATM   14  S1  UNL     1      25.565   1.613  51.555  1.00  0.00    -0.078 SA
ENDROOT
BRANCH   5  15
HETATM   15  N2  UNL     1      21.641   1.134  52.167  1.00  0.00     0.138 N 
HETATM   16  C5  UNL     1      21.942   0.546  50.909  1.00  0.00     0.305 C 
HETATM   17  C6  UNL     1      20.685   0.735  50.091  1.00  0.00     0.018 C 
HETATM   18  C7  UNL     1      19.578   0.688  50.838  1.00  0.00    -0.010 C 
HETATM   19 BR1  UNL     1      17.823   0.896  50.076  1.00  0.00    -0.056 Br
HETATM   20  C8  UNL     1      19.381   0.484  52.315  1.00  0.00     0.114 C 
HETATM   21  C9  UNL     1      20.779   0.205  52.868  1.00  0.00     0.457 C 
BRANCH  21  22
HETATM   22  N3  UNL     1      20.835   0.354  54.298  1.00  0.00     0.112 N 
HETATM   23  H9  UNL     1      20.185   1.080  54.628  1.00  0.00     0.315 HD
HETATM   24  H10 UNL     1      21.789   0.586  54.628  1.00  0.00     0.315 HD
ENDBRANCH  21  22
ENDBRANCH   5  15
BRANCH  10  25
HETATM   25  C14 UNL     1      25.564   6.950  49.865  1.00  0.00     0.237 A 
HETATM   26  C15 UNL     1      25.540   8.059  48.917  1.00  0.00     0.210 A 
HETATM   27  O2  UNL     1      25.285   6.758  48.414  1.00  0.00    -0.371 OA
ENDBRANCH  10  25
TORSDOF 3
ENDMDL
MODEL 6
REMARK VINA RESULT:      -7.2      9.317     11.981
REMARK  3 active torsions:
REMARK  status: ('A' for Active; 'I' for Inactive)
REMARK    1  A    between atoms: C4_5  and  N2_6 
REMARK    2  A    between atoms: C9_12  and  N3_13 
REMARK       I    between atoms: N4_17  and  C13_18 
REMARK    3  A    between atoms: C13_18  and  C14_20 
ROOT
HETATM    1  N1  UNL     1      24.785   7.921  50.215  1.00  0.00    -0.191 NA
HETATM    2  C1  UNL     1      25.861   7.977  49.791  1.00  0.00     0.106 C 
HETATM    3  C2  UNL     1      27.206   8.042  49.283  1.00  0.00     0.084 C 
HETATM    4  C3  UNL     1      28.028   9.059  49.495  1.00  0.00     0.044 C 
HETATM    5  C4  UNL     1      29.408   9.331  49.085  1.00  0.00     0.285 C 
HETATM    6  C10 UNL     1      30.210   8.120  48.776  1.00  0.00    -0.005 A 
HETATM    7  C11 UNL     1      31.525   8.208  48.843  1.00  0.00     0.004 A 
HETATM    8  C12 UNL     1      32.473   7.098  48.566  1.00  0.00     0.159 A 
HETATM    9  N4  UNL     1      31.761   5.892  48.208  1.00  0.00    -0.321 N 
HETATM   10  C13 UNL     1      32.724   4.874  47.956  1.00  0.00     0.255 C 
HETATM   11  O1  UNL     1      33.714   5.610  48.192  1.00  0.00    -0.270 OA
HETATM   12  C16 UNL     1      30.357   5.779  48.130  1.00  0.00     0.113 A 
HETATM   13  C17 UNL     1      29.619   6.841  48.401  1.00  0.00     0.030 A 
HETATM   14  S1  UNL     1      27.839   6.685  48.300  1.00  0.00    -0.078 SA
ENDROOT
BRANCH   5  15
HETATM   15  N2  UNL     1      29.554  10.291  48.053  1.00  0.00     0.138 N 
HETATM   16  C5  UNL     1      28.482  10.469  47.137  1.00  0.00     0.305 C 
HETATM   17  C6  UNL     1      29.148  10.923  45.858  1.00  0.00     0.018 C 
HETATM   18  C7  UNL     1      30.239  11.660  46.084  1.00  0.00    -0.010 C 
HETATM   19 BR1  UNL     1      31.299  12.382  44.649  1.00  0.00    -0.056 Br
HETATM   20  C8  UNL     1      30.896  12.100  47.364  1.00  0.00     0.114 C 
HETATM   21  C9  UNL     1      29.968  11.612  48.477  1.00  0.00     0.457 C 
BRANCH  21  22
HETATM   22  N3  UNL     1      30.614  11.616  49.762  1.00  0.00     0.112 N 
HETATM   23  H9  UNL     1      31.590  11.935  49.693  1.00  0.00     0.315 HD
HETATM   24  H10 UNL     1      30.601  10.681  50.207  1.00  0.00     0.315 HD
ENDBRANCH  21  22
ENDBRANCH   5  15
BRANCH  10  25
HETATM   25  C14 UNL     1      32.370   3.483  47.557  1.00  0.00     0.237 A 
HETATM   26  C15 UNL     1      33.348   2.685  46.825  1.00  0.00     0.210 A 
HETATM   27  O2  UNL     1      32.418   3.443  46.068  1.00  0.00    -0.371 OA
ENDBRANCH  10  25
TORSDOF 3
ENDMDL
MODEL 7
REMARK VINA RESULT:      -7.1      5.518      9.108
REMARK  3 active torsions:
REMARK  status: ('A' for Active; 'I' for Inactive)
REMARK    1  A    between atoms: C4_5  and  N2_6 
REMARK    2  A    between atoms: C9_12  and  N3_13 
REMARK       I    between atoms: N4_17  and  C13_18 
REMARK    3  A    between atoms: C13_18  and  C14_20 
ROOT
HETATM    1  N1  UNL     1      20.146   8.443  50.134  1.00  0.00    -0.191 NA
HETATM    2  C1  UNL     1      21.142   7.852  50.138  1.00  0.00     0.106 C 
HETATM    3  C2  UNL     1      22.378   7.117  50.120  1.00  0.00     0.084 C 
HETATM    4  C3  UNL     1      22.462   5.816  49.879  1.00  0.00     0.044 C 
HETATM    5  C4  UNL     1      23.589   4.883  49.812  1.00  0.00     0.285 C 
HETATM    6  C10 UNL     1      24.897   5.514  49.500  1.00  0.00    -0.005 A 
HETATM    7  C11 UNL     1      25.847   4.761  48.983  1.00  0.00     0.004 A 
HETATM    8  C12 UNL     1      27.208   5.230  48.614  1.00  0.00     0.159 A 
HETATM    9  N4  UNL     1      27.359   6.640  48.898  1.00  0.00    -0.321 N 
HETATM   10  C13 UNL     1      28.678   7.022  48.524  1.00  0.00     0.255 C 
HETATM   11  O1  UNL     1      29.009   5.876  48.133  1.00  0.00    -0.270 OA
HETATM   12  C16 UNL     1      26.355   7.461  49.452  1.00  0.00     0.113 A 
HETATM   13  C17 UNL     1      25.182   6.925  49.738  1.00  0.00     0.030 A 
HETATM   14  S1  UNL     1      23.916   7.978  50.440  1.00  0.00    -0.078 SA
ENDROOT
BRANCH   5  15
HETATM   15  N2  UNL     1      23.720   4.011  50.922  1.00  0.00     0.138 N 
HETATM   16  C5  UNL     1      23.388   4.504  52.212  1.00  0.00     0.305 C 
HETATM   17  C6  UNL     1      24.262   3.712  53.157  1.00  0.00     0.018 C 
HETATM   18  C7  UNL     1      24.485   2.467  52.725  1.00  0.00    -0.010 C 
HETATM   19 BR1  UNL     1      25.564   1.219  53.716  1.00  0.00    -0.056 Br
HETATM   20  C8  UNL     1      24.023   1.745  51.488  1.00  0.00     0.114 C 
HETATM   21  C9  UNL     1      23.078   2.720  50.787  1.00  0.00     0.457 C 
BRANCH  21  22
HETATM   22  N3  UNL     1      22.836   2.350  49.418  1.00  0.00     0.112 N 
HETATM   23  H9  UNL     1      21.957   2.754  49.067  1.00  0.00     0.315 HD
HETATM   24  H10 UNL     1      22.804   1.323  49.293  1.00  0.00     0.315 HD
ENDBRANCH  21  22
ENDBRANCH   5  15
BRANCH  10  25
HETATM   25  C14 UNL     1      29.209   8.407  48.670  1.00  0.00     0.237 A 
HETATM   26  C15 UNL     1      30.439   8.771  47.974  1.00  0.00     0.210 A 
HETATM   27  O2  UNL     1      30.554   8.281  49.300  1.00  0.00    -0.371 OA
ENDBRANCH  10  25
TORSDOF 3
ENDMDL
MODEL 8
REMARK VINA RESULT:      -6.9      3.159      4.167
REMARK  3 active torsions:
REMARK  status: ('A' for Active; 'I' for Inactive)
REMARK    1  A    between atoms: C4_5  and  N2_6 
REMARK    2  A    between atoms: C9_12  and  N3_13 
REMARK       I    between atoms: N4_17  and  C13_18 
REMARK    3  A    between atoms: C13_18  and  C14_20 
ROOT
HETATM    1  N1  UNL     1      27.484   4.130  49.341  1.00  0.00    -0.191 NA
HETATM    2  C1  UNL     1      26.389   3.819  49.554  1.00  0.00     0.106 C 
HETATM    3  C2  UNL     1      25.034   3.413  49.812  1.00  0.00     0.084 C 
HETATM    4  C3  UNL     1      24.128   3.213  48.865  1.00  0.00     0.044 C 
HETATM    5  C4  UNL     1      22.721   2.806  48.897  1.00  0.00     0.285 C 
HETATM    6  C10 UNL     1      22.327   2.042  50.108  1.00  0.00    -0.005 A 
HETATM    7  C11 UNL     1      21.264   1.264  50.037  1.00  0.00     0.004 A 
HETATM    8  C12 UNL     1      20.734   0.434  51.150  1.00  0.00     0.159 A 
HETATM    9  N4  UNL     1      21.543   0.590  52.338  1.00  0.00    -0.321 N 
HETATM   10  C13 UNL     1      20.982  -0.226  53.359  1.00  0.00     0.255 C 
HETATM   11  O1  UNL     1      20.046  -0.658  52.642  1.00  0.00    -0.270 OA
HETATM   12  C16 UNL     1      22.682   1.417  52.432  1.00  0.00     0.113 A 
HETATM   13  C17 UNL     1      23.055   2.108  51.370  1.00  0.00     0.030 A 
HETATM   14  S1  UNL     1      24.502   3.153  51.503  1.00  0.00    -0.078 SA
ENDROOT
BRANCH   5  15
HETATM   15  N2  UNL     1      21.786   3.841  48.647  1.00  0.00     0.138 N 
HETATM   16  C5  UNL     1      21.900   5.050  49.385  1.00  0.00     0.305 C 
HETATM   17  C6  UNL     1      20.487   5.583  49.462  1.00  0.00     0.018 C 
HETATM   18  C7  UNL     1      19.770   5.284  48.374  1.00  0.00    -0.010 C 
HETATM   19 BR1  UNL     1      17.934   5.828  48.181  1.00  0.00    -0.056 Br
HETATM   20  C8  UNL     1      20.125   4.526  47.124  1.00  0.00     0.114 C 
HETATM   21  C9  UNL     1      21.615   4.212  47.258  1.00  0.00     0.457 C 
BRANCH  21  22
HETATM   22  N3  UNL     1      22.036   3.185  46.343  1.00  0.00     0.112 N 
HETATM   23  H9  UNL     1      21.439   2.350  46.413  1.00  0.00     0.315 HD
HETATM   24  H10 UNL     1      23.020   2.904  46.501  1.00  0.00     0.315 HD
ENDBRANCH  21  22
ENDBRANCH   5  15
BRANCH  10  25
HETATM   25  C14 UNL     1      21.543  -0.329  54.736  1.00  0.00     0.237 A 
HETATM   26  C15 UNL     1      22.751  -1.119  54.952  1.00  0.00     0.210 A 
HETATM   27  O2  UNL     1      21.500  -1.772  55.105  1.00  0.00    -0.371 OA
ENDBRANCH  10  25
TORSDOF 3
ENDMDL
MODEL 9
REMARK VINA RESULT:      -6.8      4.564      7.223
REMARK  3 active torsions:
REMARK  status: ('A' for Active; 'I' for Inactive)
REMARK    1  A    between atoms: C4_5  and  N2_6 
REMARK    2  A    between atoms: C9_12  and  N3_13 
REMARK       I    between atoms: N4_17  and  C13_18 
REMARK    3  A    between atoms: C13_18  and  C14_20 
ROOT
HETATM    1  N1  UNL     1      20.698   6.072  48.632  1.00  0.00    -0.191 NA
HETATM    2  C1  UNL     1      20.213   5.251  49.291  1.00  0.00     0.106 C 
HETATM    3  C2  UNL     1      19.620   4.217  50.095  1.00  0.00     0.084 C 
HETATM    4  C3  UNL     1      18.538   3.537  49.745  1.00  0.00     0.044 C 
HETATM    5  C4  UNL     1      17.778   2.465  50.393  1.00  0.00     0.285 C 
HETATM    6  C10 UNL     1      18.554   1.663  51.373  1.00  0.00    -0.005 A 
HETATM    7  C11 UNL     1      18.132   0.446  51.658  1.00  0.00     0.004 A 
HETATM    8  C12 UNL     1      18.787  -0.486  52.612  1.00  0.00     0.159 A 
HETATM    9  N4  UNL     1      19.963   0.118  53.195  1.00  0.00    -0.321 N 
HETATM   10  C13 UNL     1      20.538  -0.823  54.095  1.00  0.00     0.255 C 
HETATM   11  O1  UNL     1      19.672  -1.708  53.884  1.00  0.00    -0.270 OA
HETATM   12  C16 UNL     1      20.429   1.417  52.903  1.00  0.00     0.113 A 
HETATM   13  C17 UNL     1      19.758   2.152  52.034  1.00  0.00     0.030 A 
HETATM   14  S1  UNL     1      20.361   3.798  51.671  1.00  0.00    -0.078 SA
ENDROOT
BRANCH   5  15
HETATM   15  N2  UNL     1      16.538   2.858  50.957  1.00  0.00     0.138 N 
HETATM   16  C5  UNL     1      16.443   4.143  51.554  1.00  0.00     0.305 C 
HETATM   17  C6  UNL     1      15.383   3.988  52.621  1.00  0.00     0.018 C 
HETATM   18  C7  UNL     1      14.438   3.109  52.277  1.00  0.00    -0.010 C 
HETATM   19 BR1  UNL     1      12.955   2.700  53.435  1.00  0.00    -0.056 Br
HETATM   20  C8  UNL     1      14.258   2.272  51.040  1.00  0.00     0.114 C 
HETATM   21  C9  UNL     1      15.381   2.706  50.099  1.00  0.00     0.457 C 
BRANCH  21  22
HETATM   22  N3  UNL     1      15.589   1.764  49.032  1.00  0.00     0.112 N 
HETATM   23  H9  UNL     1      16.583   1.697  48.775  1.00  0.00     0.315 HD
HETATM   24  H10 UNL     1      15.042   2.006  48.187  1.00  0.00     0.315 HD
ENDBRANCH  21  22
ENDBRANCH   5  15
BRANCH  10  25
HETATM   25  C14 UNL     1      21.770  -0.559  54.890  1.00  0.00     0.237 A 
HETATM   26  C15 UNL     1      23.040  -1.117  54.436  1.00  0.00     0.210 A 
HETATM   27  O2  UNL     1      22.272  -1.886  55.348  1.00  0.00    -0.371 OA
ENDBRANCH  10  25
TORSDOF 3
ENDMDL
