MODEL 1
REMARK VINA RESULT:      -9.4      0.000      0.000
REMARK  2 active torsions:
REMARK  status: ('A' for Active; 'I' for Inactive)
REMARK       I    between atoms: C8_11  and  N3_12 
REMARK    1  A    between atoms: N3_12  and  C9_13 
REMARK    2  A    between atoms: C9_13  and  C10_14 
ROOT
HETATM    1  C1  UNL     1      20.229  -0.264  53.663  1.00  0.00     0.049 C 
HETATM    2  C2  UNL     1      21.672  -0.480  53.988  1.00  0.00    -0.049 A 
HETATM    3  C3  UNL     1      22.191  -1.262  54.916  1.00  0.00     0.010 A 
HETATM    4  C4  UNL     1      23.646  -1.229  54.954  1.00  0.00     0.039 A 
HETATM    5  C5  UNL     1      24.016  -0.381  53.994  1.00  0.00     0.087 A 
HETATM    6  O1  UNL     1      25.374  -0.206  53.864  1.00  0.00    -0.303 OA
HETATM    7  C6  UNL     1      26.163   0.305  54.919  1.00  0.00     0.260 C 
HETATM    8  N1  UNL     1      27.229   0.992  54.644  1.00  0.00    -0.229 NA
HETATM    9  C7  UNL     1      27.510   1.169  53.242  1.00  0.00     0.254 C 
HETATM   10  N2  UNL     1      27.492   1.422  51.987  1.00  0.00    -0.056 NA
HETATM   11  C8  UNL     1      26.297   1.960  51.372  1.00  0.00     0.719 C 
HETATM   12  N3  UNL     1      26.644   2.898  50.367  1.00  0.00    -0.218 N 
HETATM   13  N4  UNL     1      25.223   1.501  51.844  1.00  0.00    -0.102 NA
HETATM   14  C16 UNL     1      23.869   1.745  51.543  1.00  0.00     0.197 C 
HETATM   15  C17 UNL     1      22.873   1.000  52.352  1.00  0.00     0.010 C 
HETATM   16  C18 UNL     1      22.832   0.129  53.343  1.00  0.00     0.002 A 
HETATM   17  H8  UNL     1      27.590   2.986  49.950  1.00  0.00     0.178 HD
ENDROOT
BRANCH  12  18
HETATM   18  C9  UNL     1      25.544   3.762  49.941  1.00  0.00     0.176 C 
BRANCH  18  19
HETATM   19  C10 UNL     1      26.179   4.917  49.202  1.00  0.00    -0.040 A 
HETATM   20  C11 UNL     1      27.524   4.825  48.857  1.00  0.00     0.009 A 
HETATM   21  C12 UNL     1      28.099   5.885  48.180  1.00  0.00     0.001 A 
HETATM   22  C13 UNL     1      27.362   7.006  47.855  1.00  0.00     0.000 A 
HETATM   23  C14 UNL     1      26.030   7.082  48.203  1.00  0.00     0.001 A 
HETATM   24  C15 UNL     1      25.433   6.043  48.876  1.00  0.00     0.009 A 
ENDBRANCH  18  19
ENDBRANCH  12  18
TORSDOF 2
ENDMDL
MODEL 2
REMARK VINA RESULT:      -8.7      3.869      6.168
REMARK  2 active torsions:
REMARK  status: ('A' for Active; 'I' for Inactive)
REMARK       I    between atoms: C8_11  and  N3_12 
REMARK    1  A    between atoms: N3_12  and  C9_13 
REMARK    2  A    between atoms: C9_13  and  C10_14 
ROOT
HETATM    1  C1  UNL     1      17.857  -2.690  53.815  1.00  0.00     0.049 C 
HETATM    2  C2  UNL     1      18.218  -1.412  53.130  1.00  0.00    -0.049 A 
HETATM    3  C3  UNL     1      17.432  -0.610  52.435  1.00  0.00     0.010 A 
HETATM    4  C4  UNL     1      18.120   0.558  51.904  1.00  0.00     0.039 A 
HETATM    5  C5  UNL     1      19.388   0.446  52.305  1.00  0.00     0.087 A 
HETATM    6  O1  UNL     1      20.218   1.466  51.900  1.00  0.00    -0.303 OA
HETATM    7  C6  UNL     1      20.447   1.741  50.533  1.00  0.00     0.260 C 
HETATM    8  N1  UNL     1      21.587   2.240  50.165  1.00  0.00    -0.229 NA
HETATM    9  C7  UNL     1      22.536   2.471  51.224  1.00  0.00     0.254 C 
HETATM   10  N2  UNL     1      23.327   2.405  52.228  1.00  0.00    -0.056 NA
HETATM   11  C8  UNL     1      23.462   1.166  52.965  1.00  0.00     0.719 C 
HETATM   12  N3  UNL     1      24.807   0.988  53.379  1.00  0.00    -0.218 N 
HETATM   13  N4  UNL     1      22.390   0.516  53.082  1.00  0.00    -0.102 NA
HETATM   14  C16 UNL     1      22.080  -0.708  53.706  1.00  0.00     0.197 C 
HETATM   15  C17 UNL     1      20.669  -1.155  53.608  1.00  0.00     0.010 C 
HETATM   16  C18 UNL     1      19.525  -0.765  53.080  1.00  0.00     0.002 A 
HETATM   17  H8  UNL     1      25.519   1.742  53.393  1.00  0.00     0.178 HD
ENDROOT
BRANCH  12  18
HETATM   18  C9  UNL     1      25.133  -0.373  53.801  1.00  0.00     0.176 C 
BRANCH  18  19
HETATM   19  C10 UNL     1      26.642  -0.447  53.851  1.00  0.00    -0.040 A 
HETATM   20  C11 UNL     1      27.317   0.366  54.758  1.00  0.00     0.009 A 
HETATM   21  C12 UNL     1      28.697   0.293  54.799  1.00  0.00     0.001 A 
HETATM   22  C13 UNL     1      29.390  -0.560  53.966  1.00  0.00     0.000 A 
HETATM   23  C14 UNL     1      28.708  -1.360  53.073  1.00  0.00     0.001 A 
HETATM   24  C15 UNL     1      27.336  -1.308  53.010  1.00  0.00     0.009 A 
ENDBRANCH  18  19
ENDBRANCH  12  18
TORSDOF 2
ENDMDL
MODEL 3
REMARK VINA RESULT:      -8.6      2.458      8.238
REMARK  2 active torsions:
REMARK  status: ('A' for Active; 'I' for Inactive)
REMARK       I    between atoms: C8_11  and  N3_12 
REMARK    1  A    between atoms: N3_12  and  C9_13 
REMARK    2  A    between atoms: C9_13  and  C10_14 
ROOT
HETATM    1  C1  UNL     1      29.075   5.479  48.201  1.00  0.00     0.049 C 
HETATM    2  C2  UNL     1      27.640   5.865  48.360  1.00  0.00    -0.049 A 
HETATM    3  C3  UNL     1      27.041   6.963  47.938  1.00  0.00     0.010 A 
HETATM    4  C4  UNL     1      25.623   7.012  48.267  1.00  0.00     0.039 A 
HETATM    5  C5  UNL     1      25.363   5.879  48.921  1.00  0.00     0.087 A 
HETATM    6  O1  UNL     1      24.057   5.729  49.327  1.00  0.00    -0.303 OA
HETATM    7  C6  UNL     1      23.445   6.638  50.219  1.00  0.00     0.260 C 
HETATM    8  N1  UNL     1      22.514   6.219  51.019  1.00  0.00    -0.229 NA
HETATM    9  C7  UNL     1      22.187   4.819  50.913  1.00  0.00     0.254 C 
HETATM   10  N2  UNL     1      22.176   3.541  50.854  1.00  0.00    -0.056 NA
HETATM   11  C8  UNL     1      23.411   2.798  50.983  1.00  0.00     0.719 C 
HETATM   12  N3  UNL     1      23.187   1.599  51.707  1.00  0.00    -0.218 N 
HETATM   13  N4  UNL     1      24.406   3.352  50.444  1.00  0.00    -0.102 NA
HETATM   14  C16 UNL     1      25.760   2.983  50.336  1.00  0.00     0.197 C 
HETATM   15  C17 UNL     1      26.644   3.935  49.620  1.00  0.00     0.010 C 
HETATM   16  C18 UNL     1      26.580   5.108  49.018  1.00  0.00     0.002 A 
HETATM   17  H8  UNL     1      22.251   1.186  51.880  1.00  0.00     0.178 HD
ENDROOT
BRANCH  12  18
HETATM   18  C9  UNL     1      24.403   0.961  52.210  1.00  0.00     0.176 C 
BRANCH  18  19
HETATM   19  C10 UNL     1      23.975   0.105  53.380  1.00  0.00    -0.040 A 
HETATM   20  C11 UNL     1      22.619  -0.160  53.548  1.00  0.00     0.009 A 
HETATM   21  C12 UNL     1      22.235  -0.945  54.619  1.00  0.00     0.001 A 
HETATM   22  C13 UNL     1      23.167  -1.452  55.501  1.00  0.00     0.000 A 
HETATM   23  C14 UNL     1      24.507  -1.182  55.321  1.00  0.00     0.001 A 
HETATM   24  C15 UNL     1      24.918  -0.405  54.264  1.00  0.00     0.009 A 
ENDBRANCH  18  19
ENDBRANCH  12  18
TORSDOF 2
ENDMDL
MODEL 4
REMARK VINA RESULT:      -8.4      2.192      3.686
REMARK  2 active torsions:
REMARK  status: ('A' for Active; 'I' for Inactive)
REMARK       I    between atoms: C8_11  and  N3_12 
REMARK    1  A    between atoms: N3_12  and  C9_13 
REMARK    2  A    between atoms: C9_13  and  C10_14 
ROOT
HETATM    1  C1  UNL     1      24.917  -0.878  54.687  1.00  0.00     0.049 C 
HETATM    2  C2  UNL     1      23.825  -0.436  53.767  1.00  0.00    -0.049 A 
HETATM    3  C3  UNL     1      22.585  -0.885  53.700  1.00  0.00     0.010 A 
HETATM    4  C4  UNL     1      21.784  -0.223  52.680  1.00  0.00     0.039 A 
HETATM    5  C5  UNL     1      22.592   0.671  52.108  1.00  0.00     0.087 A 
HETATM    6  O1  UNL     1      22.018   1.413  51.101  1.00  0.00    -0.303 OA
HETATM    7  C6  UNL     1      21.502   0.809  49.932  1.00  0.00     0.260 C 
HETATM    8  N1  UNL     1      21.518   1.465  48.814  1.00  0.00    -0.229 NA
HETATM    9  C7  UNL     1      22.080   2.791  48.879  1.00  0.00     0.254 C 
HETATM   10  N2  UNL     1      22.799   3.835  49.056  1.00  0.00    -0.056 NA
HETATM   11  C8  UNL     1      24.108   3.719  49.665  1.00  0.00     0.719 C 
HETATM   12  N3  UNL     1      25.011   4.629  49.058  1.00  0.00    -0.218 N 
HETATM   13  N4  UNL     1      24.177   2.858  50.580  1.00  0.00    -0.102 NA
HETATM   14  C16 UNL     1      25.230   2.434  51.414  1.00  0.00     0.197 C 
HETATM   15  C17 UNL     1      24.908   1.356  52.381  1.00  0.00     0.010 C 
HETATM   16  C18 UNL     1      23.889   0.597  52.737  1.00  0.00     0.002 A 
HETATM   17  H8  UNL     1      24.723   5.433  48.468  1.00  0.00     0.178 HD
ENDROOT
BRANCH  12  18
HETATM   18  C9  UNL     1      26.421   4.352  49.329  1.00  0.00     0.176 C 
BRANCH  18  19
HETATM   19  C10 UNL     1      27.203   5.451  48.648  1.00  0.00    -0.040 A 
HETATM   20  C11 UNL     1      28.564   5.259  48.430  1.00  0.00     0.009 A 
HETATM   21  C12 UNL     1      29.274   6.269  47.806  1.00  0.00     0.001 A 
HETATM   22  C13 UNL     1      28.653   7.436  47.410  1.00  0.00     0.000 A 
HETATM   23  C14 UNL     1      27.304   7.611  47.633  1.00  0.00     0.001 A 
HETATM   24  C15 UNL     1      26.573   6.624  48.251  1.00  0.00     0.009 A 
ENDBRANCH  18  19
ENDBRANCH  12  18
TORSDOF 2
ENDMDL
MODEL 5
REMARK VINA RESULT:      -8.4      2.405      6.629
REMARK  2 active torsions:
REMARK  status: ('A' for Active; 'I' for Inactive)
REMARK       I    between atoms: C8_11  and  N3_12 
REMARK    1  A    between atoms: N3_12  and  C9_13 
REMARK    2  A    between atoms: C9_13  and  C10_14 
ROOT
HETATM    1  C1  UNL     1      25.320   5.279  48.969  1.00  0.00     0.049 C 
HETATM    2  C2  UNL     1      24.278   4.235  49.213  1.00  0.00    -0.049 A 
HETATM    3  C3  UNL     1      23.135   4.061  48.577  1.00  0.00     0.010 A 
HETATM    4  C4  UNL     1      22.357   2.937  49.079  1.00  0.00     0.039 A 
HETATM    5  C5  UNL     1      23.079   2.411  50.071  1.00  0.00     0.087 A 
HETATM    6  O1  UNL     1      22.510   1.321  50.689  1.00  0.00    -0.303 OA
HETATM    7  C6  UNL     1      21.264   1.406  51.349  1.00  0.00     0.260 C 
HETATM    8  N1  UNL     1      21.026   0.634  52.365  1.00  0.00    -0.229 NA
HETATM    9  C7  UNL     1      22.094  -0.263  52.728  1.00  0.00     0.254 C 
HETATM   10  N2  UNL     1      23.198  -0.823  53.053  1.00  0.00    -0.056 NA
HETATM   11  C8  UNL     1      24.395  -0.025  53.215  1.00  0.00     0.719 C 
HETATM   12  N3  UNL     1      25.176  -0.528  54.287  1.00  0.00    -0.218 N 
HETATM   13  N4  UNL     1      24.496   0.928  52.398  1.00  0.00    -0.102 NA
HETATM   14  C16 UNL     1      25.474   1.922  52.208  1.00  0.00     0.197 C 
HETATM   15  C17 UNL     1      25.216   2.898  51.121  1.00  0.00     0.010 C 
HETATM   16  C18 UNL     1      24.297   3.172  50.213  1.00  0.00     0.002 A 
HETATM   17  H8  UNL     1      25.053  -1.468  54.709  1.00  0.00     0.178 HD
ENDROOT
BRANCH  12  18
HETATM   18  C9  UNL     1      26.200   0.396  54.774  1.00  0.00     0.176 C 
BRANCH  18  19
HETATM   19  C10 UNL     1      27.517  -0.120  54.241  1.00  0.00    -0.040 A 
HETATM   20  C11 UNL     1      28.672   0.609  54.510  1.00  0.00     0.009 A 
HETATM   21  C12 UNL     1      29.874   0.131  54.020  1.00  0.00     0.001 A 
HETATM   22  C13 UNL     1      29.930  -1.035  53.285  1.00  0.00     0.000 A 
HETATM   23  C14 UNL     1      28.777  -1.747  53.028  1.00  0.00     0.001 A 
HETATM   24  C15 UNL     1      27.568  -1.295  53.502  1.00  0.00     0.009 A 
ENDBRANCH  18  19
ENDBRANCH  12  18
TORSDOF 2
ENDMDL
MODEL 6
REMARK VINA RESULT:      -8.0      2.113      3.902
REMARK  2 active torsions:
REMARK  status: ('A' for Active; 'I' for Inactive)
REMARK       I    between atoms: C8_11  and  N3_12 
REMARK    1  A    between atoms: N3_12  and  C9_13 
REMARK    2  A    between atoms: C9_13  and  C10_14 
ROOT
HETATM    1  C1  UNL     1      28.233  -0.781  53.071  1.00  0.00     0.049 C 
HETATM    2  C2  UNL     1      26.797  -0.368  53.068  1.00  0.00    -0.049 A 
HETATM    3  C3  UNL     1      25.778  -0.959  53.664  1.00  0.00     0.010 A 
HETATM    4  C4  UNL     1      24.508  -0.280  53.450  1.00  0.00     0.039 A 
HETATM    5  C5  UNL     1      24.785   0.775  52.683  1.00  0.00     0.087 A 
HETATM    6  O1  UNL     1      23.703   1.560  52.359  1.00  0.00    -0.303 OA
HETATM    7  C6  UNL     1      22.603   1.049  51.634  1.00  0.00     0.260 C 
HETATM    8  N1  UNL     1      21.926   1.840  50.860  1.00  0.00    -0.229 NA
HETATM    9  C7  UNL     1      22.380   3.207  50.817  1.00  0.00     0.254 C 
HETATM   10  N2  UNL     1      23.034   4.303  50.720  1.00  0.00    -0.056 NA
HETATM   11  C8  UNL     1      24.448   4.279  50.409  1.00  0.00     0.719 C 
HETATM   12  N3  UNL     1      24.781   5.366  49.562  1.00  0.00    -0.218 N 
HETATM   13  N4  UNL     1      25.076   3.323  50.936  1.00  0.00    -0.102 NA
HETATM   14  C16 UNL     1      26.429   2.934  50.898  1.00  0.00     0.197 C 
HETATM   15  C17 UNL     1      26.781   1.709  51.658  1.00  0.00     0.010 C 
HETATM   16  C18 UNL     1      26.202   0.787  52.403  1.00  0.00     0.002 A 
HETATM   17  H8  UNL     1      24.176   6.195  49.410  1.00  0.00     0.178 HD
ENDROOT
BRANCH  12  18
HETATM   18  C9  UNL     1      26.076   5.238  48.896  1.00  0.00     0.176 C 
BRANCH  18  19
HETATM   19  C10 UNL     1      26.767   6.572  49.062  1.00  0.00    -0.040 A 
HETATM   20  C11 UNL     1      27.933   6.810  48.341  1.00  0.00     0.009 A 
HETATM   21  C12 UNL     1      28.560   8.033  48.497  1.00  0.00     0.001 A 
HETATM   22  C13 UNL     1      28.046   8.993  49.345  1.00  0.00     0.000 A 
HETATM   23  C14 UNL     1      26.889   8.743  50.053  1.00  0.00     0.001 A 
HETATM   24  C15 UNL     1      26.245   7.536  49.917  1.00  0.00     0.009 A 
ENDBRANCH  18  19
ENDBRANCH  12  18
TORSDOF 2
ENDMDL
MODEL 7
REMARK VINA RESULT:      -7.9      3.167      8.426
REMARK  2 active torsions:
REMARK  status: ('A' for Active; 'I' for Inactive)
REMARK       I    between atoms: C8_11  and  N3_12 
REMARK    1  A    between atoms: N3_12  and  C9_13 
REMARK    2  A    between atoms: C9_13  and  C10_14 
ROOT
HETATM    1  C1  UNL     1      24.102   3.678  49.076  1.00  0.00     0.049 C 
HETATM    2  C2  UNL     1      24.479   2.955  50.328  1.00  0.00    -0.049 A 
HETATM    3  C3  UNL     1      25.672   2.859  50.885  1.00  0.00     0.010 A 
HETATM    4  C4  UNL     1      25.677   2.073  52.111  1.00  0.00     0.039 A 
HETATM    5  C5  UNL     1      24.416   1.679  52.295  1.00  0.00     0.087 A 
HETATM    6  O1  UNL     1      24.205   0.910  53.416  1.00  0.00    -0.303 OA
HETATM    7  C6  UNL     1      24.849  -0.334  53.598  1.00  0.00     0.260 C 
HETATM    8  N1  UNL     1      24.255  -1.266  54.278  1.00  0.00    -0.229 NA
HETATM    9  C7  UNL     1      22.954  -0.926  54.796  1.00  0.00     0.254 C 
HETATM   10  N2  UNL     1      21.745  -0.553  54.987  1.00  0.00    -0.056 NA
HETATM   11  C8  UNL     1      20.952  -0.068  53.877  1.00  0.00     0.719 C 
HETATM   12  N3  UNL     1      19.607  -0.497  54.013  1.00  0.00    -0.218 N 
HETATM   13  N4  UNL     1      21.599   0.615  53.039  1.00  0.00    -0.102 NA
HETATM   14  C16 UNL     1      21.228   1.260  51.845  1.00  0.00     0.197 C 
HETATM   15  C17 UNL     1      22.310   1.966  51.116  1.00  0.00     0.010 C 
HETATM   16  C18 UNL     1      23.606   2.194  51.217  1.00  0.00     0.002 A 
HETATM   17  H8  UNL     1      19.196  -0.863  54.893  1.00  0.00     0.178 HD
ENDROOT
BRANCH  12  18
HETATM   18  C9  UNL     1      18.811  -0.384  52.792  1.00  0.00     0.176 C 
BRANCH  18  19
HETATM   19  C10 UNL     1      17.778  -1.486  52.861  1.00  0.00    -0.040 A 
HETATM   20  C11 UNL     1      18.094  -2.649  53.557  1.00  0.00     0.009 A 
HETATM   21  C12 UNL     1      17.144  -3.652  53.616  1.00  0.00     0.001 A 
HETATM   22  C13 UNL     1      15.917  -3.508  53.003  1.00  0.00     0.000 A 
HETATM   23  C14 UNL     1      15.618  -2.350  52.317  1.00  0.00     0.001 A 
HETATM   24  C15 UNL     1      16.543  -1.335  52.242  1.00  0.00     0.009 A 
ENDBRANCH  18  19
ENDBRANCH  12  18
TORSDOF 2
ENDMDL
MODEL 8
REMARK VINA RESULT:      -7.9      2.782      7.306
REMARK  2 active torsions:
REMARK  status: ('A' for Active; 'I' for Inactive)
REMARK       I    between atoms: C8_11  and  N3_12 
REMARK    1  A    between atoms: N3_12  and  C9_13 
REMARK    2  A    between atoms: C9_13  and  C10_14 
ROOT
HETATM    1  C1  UNL     1      25.830   7.481  47.846  1.00  0.00     0.049 C 
HETATM    2  C2  UNL     1      24.641   6.637  48.174  1.00  0.00    -0.049 A 
HETATM    3  C3  UNL     1      23.392   6.801  47.779  1.00  0.00     0.010 A 
HETATM    4  C4  UNL     1      22.485   5.783  48.291  1.00  0.00     0.039 A 
HETATM    5  C5  UNL     1      23.236   4.967  49.032  1.00  0.00     0.087 A 
HETATM    6  O1  UNL     1      22.557   3.922  49.615  1.00  0.00    -0.303 OA
HETATM    7  C6  UNL     1      21.503   4.137  50.532  1.00  0.00     0.260 C 
HETATM    8  N1  UNL     1      21.285   3.268  51.469  1.00  0.00    -0.229 NA
HETATM    9  C7  UNL     1      22.169   2.130  51.480  1.00  0.00     0.254 C 
HETATM   10  N2  UNL     1      23.159   1.317  51.489  1.00  0.00    -0.056 NA
HETATM   11  C8  UNL     1      24.514   1.825  51.491  1.00  0.00     0.719 C 
HETATM   12  N3  UNL     1      25.342   1.005  52.300  1.00  0.00    -0.218 N 
HETATM   13  N4  UNL     1      24.678   2.863  50.798  1.00  0.00    -0.102 NA
HETATM   14  C16 UNL     1      25.805   3.663  50.529  1.00  0.00     0.197 C 
HETATM   15  C17 UNL     1      25.581   4.840  49.654  1.00  0.00     0.010 C 
HETATM   16  C18 UNL     1      24.600   5.438  49.005  1.00  0.00     0.002 A 
HETATM   17  H8  UNL     1      25.088   0.050  52.617  1.00  0.00     0.178 HD
ENDROOT
BRANCH  12  18
HETATM   18  C9  UNL     1      26.619   1.614  52.669  1.00  0.00     0.176 C 
BRANCH  18  19
HETATM   19  C10 UNL     1      27.571   0.468  52.928  1.00  0.00    -0.040 A 
HETATM   20  C11 UNL     1      28.848   0.759  53.397  1.00  0.00     0.009 A 
HETATM   21  C12 UNL     1      29.713  -0.293  53.632  1.00  0.00     0.001 A 
HETATM   22  C13 UNL     1      29.324  -1.598  53.408  1.00  0.00     0.000 A 
HETATM   23  C14 UNL     1      28.055  -1.872  52.944  1.00  0.00     0.001 A 
HETATM   24  C15 UNL     1      27.174  -0.844  52.701  1.00  0.00     0.009 A 
ENDBRANCH  18  19
ENDBRANCH  12  18
TORSDOF 2
ENDMDL
MODEL 9
REMARK VINA RESULT:      -7.7      1.653      2.487
REMARK  2 active torsions:
REMARK  status: ('A' for Active; 'I' for Inactive)
REMARK       I    between atoms: C8_11  and  N3_12 
REMARK    1  A    between atoms: N3_12  and  C9_13 
REMARK    2  A    between atoms: C9_13  and  C10_14 
ROOT
HETATM    1  C1  UNL     1      19.319   2.576  51.913  1.00  0.00     0.049 C 
HETATM    2  C2  UNL     1      20.606   1.861  52.174  1.00  0.00    -0.049 A 
HETATM    3  C3  UNL     1      20.793   0.740  52.845  1.00  0.00     0.010 A 
HETATM    4  C4  UNL     1      22.188   0.326  52.903  1.00  0.00     0.039 A 
HETATM    5  C5  UNL     1      22.870   1.253  52.228  1.00  0.00     0.087 A 
HETATM    6  O1  UNL     1      24.228   1.044  52.166  1.00  0.00    -0.303 OA
HETATM    7  C6  UNL     1      25.028   0.991  53.329  1.00  0.00     0.260 C 
HETATM    8  N1  UNL     1      26.266   1.376  53.271  1.00  0.00    -0.229 NA
HETATM    9  C7  UNL     1      26.714   1.835  51.981  1.00  0.00     0.254 C 
HETATM   10  N2  UNL     1      26.885   2.412  50.851  1.00  0.00    -0.056 NA
HETATM   11  C8  UNL     1      25.954   3.427  50.407  1.00  0.00     0.719 C 
HETATM   12  N3  UNL     1      26.644   4.455  49.715  1.00  0.00    -0.218 N 
HETATM   13  N4  UNL     1      24.755   3.199  50.718  1.00  0.00    -0.102 NA
HETATM   14  C16 UNL     1      23.559   3.906  50.488  1.00  0.00     0.197 C 
HETATM   15  C17 UNL     1      22.323   3.302  51.041  1.00  0.00     0.010 C 
HETATM   16  C18 UNL     1      21.945   2.248  51.741  1.00  0.00     0.002 A 
HETATM   17  H8  UNL     1      27.611   4.366  49.349  1.00  0.00     0.178 HD
ENDROOT
BRANCH  12  18
HETATM   18  C9  UNL     1      25.878   5.688  49.545  1.00  0.00     0.176 C 
BRANCH  18  19
HETATM   19  C10 UNL     1      26.630   6.513  48.526  1.00  0.00    -0.040 A 
HETATM   20  C11 UNL     1      25.931   7.474  47.803  1.00  0.00     0.009 A 
HETATM   21  C12 UNL     1      26.625   8.225  46.873  1.00  0.00     0.001 A 
HETATM   22  C13 UNL     1      27.975   8.030  46.664  1.00  0.00     0.000 A 
HETATM   23  C14 UNL     1      28.655   7.074  47.389  1.00  0.00     0.001 A 
HETATM   24  C15 UNL     1      27.990   6.312  48.320  1.00  0.00     0.009 A 
ENDBRANCH  18  19
ENDBRANCH  12  18
TORSDOF 2
ENDMDL
