MODEL 1
REMARK VINA RESULT:      -7.7      0.000      0.000
REMARK  4 active torsions:
REMARK  status: ('A' for Active; 'I' for Inactive)
REMARK    1  A    between atoms: O1_2  and  C2_3 
REMARK    2  A    between atoms: C6_9  and  N2_10 
REMARK    3  A    between atoms: N2_10  and  C7_11 
REMARK    4  A    between atoms: C15_20  and  O2_21 
ROOT
HETATM    1  C2  UNL     1      21.659   0.348  52.081  1.00  0.00     0.103 A 
HETATM    2  C3  UNL     1      22.170   1.217  51.114  1.00  0.00     0.072 A 
HETATM    3  C4  UNL     1      23.479   1.715  51.167  1.00  0.00     0.071 A 
HETATM    4  N1  UNL     1      23.693   2.510  50.130  1.00  0.00    -0.259 NA
HETATM    5  C5  UNL     1      24.810   3.176  49.826  1.00  0.00     0.135 A 
HETATM    6  P1  UNL     1      26.064   2.898  50.983  1.00  0.00     0.017 P 
HETATM    7  C6  UNL     1      25.603   1.832  52.267  1.00  0.00     0.059 A 
HETATM    8  C13 UNL     1      24.315   1.352  52.199  1.00  0.00     0.024 A 
HETATM    9  C14 UNL     1      23.768   0.495  53.129  1.00  0.00     0.055 A 
HETATM   10  C15 UNL     1      22.494  -0.021  53.123  1.00  0.00     0.102 A 
ENDROOT
BRANCH   7  11
HETATM   11  N2  UNL     1      26.436   1.451  53.323  1.00  0.00    -0.354 N 
HETATM   12  H6  UNL     1      26.359   1.868  54.249  1.00  0.00     0.166 HD
BRANCH  11  13
HETATM   13  C7  UNL     1      27.481   0.496  53.348  1.00  0.00     0.035 A 
HETATM   14  C8  UNL     1      28.784   0.760  53.683  1.00  0.00     0.029 A 
HETATM   15  C9  UNL     1      29.808  -0.149  53.688  1.00  0.00     0.005 A 
HETATM   16  C10 UNL     1      29.546  -1.453  53.330  1.00  0.00     0.042 A 
HETATM   17  C11 UNL     1      28.269  -1.813  52.978  1.00  0.00     0.118 A 
HETATM   18  F1  UNL     1      27.996  -3.083  52.626  1.00  0.00    -0.206 F 
HETATM   19  C12 UNL     1      27.298  -0.841  53.000  1.00  0.00     0.071 A 
ENDBRANCH  11  13
ENDBRANCH   7  11
BRANCH  10  20
HETATM   20  O2  UNL     1      22.001  -0.879  54.086  1.00  0.00    -0.353 OA
HETATM   21  C16 UNL     1      22.746  -1.266  55.230  1.00  0.00     0.210 C 
ENDBRANCH  10  20
BRANCH   1  22
HETATM   22  O1  UNL     1      20.366  -0.153  52.042  1.00  0.00    -0.353 OA
HETATM   23  C1  UNL     1      19.285   0.757  51.962  1.00  0.00     0.210 C 
ENDBRANCH   1  22
TORSDOF 4
ENDMDL
MODEL 2
REMARK VINA RESULT:      -7.3      2.765      6.083
REMARK  4 active torsions:
REMARK  status: ('A' for Active; 'I' for Inactive)
REMARK    1  A    between atoms: O1_2  and  C2_3 
REMARK    2  A    between atoms: C6_9  and  N2_10 
REMARK    3  A    between atoms: N2_10  and  C7_11 
REMARK    4  A    between atoms: C15_20  and  O2_21 
ROOT
HETATM    1  C2  UNL     1      27.039  -0.297  53.355  1.00  0.00     0.103 A 
HETATM    2  C3  UNL     1      27.297   0.647  52.359  1.00  0.00     0.072 A 
HETATM    3  C4  UNL     1      26.326   1.552  51.911  1.00  0.00     0.071 A 
HETATM    4  N1  UNL     1      26.842   2.326  50.968  1.00  0.00    -0.259 NA
HETATM    5  C5  UNL     1      26.237   3.307  50.294  1.00  0.00     0.135 A 
HETATM    6  P1  UNL     1      24.593   3.512  50.784  1.00  0.00     0.017 P 
HETATM    7  C6  UNL     1      24.094   2.415  52.026  1.00  0.00     0.059 A 
HETATM    8  C13 UNL     1      25.061   1.534  52.454  1.00  0.00     0.024 A 
HETATM    9  C14 UNL     1      24.852   0.585  53.432  1.00  0.00     0.055 A 
HETATM   10  C15 UNL     1      25.768  -0.324  53.906  1.00  0.00     0.102 A 
ENDROOT
BRANCH   7  11
HETATM   11  N2  UNL     1      22.816   2.379  52.590  1.00  0.00    -0.354 N 
HETATM   12  H6  UNL     1      22.567   2.943  53.400  1.00  0.00     0.166 HD
BRANCH  11  13
HETATM   13  C7  UNL     1      21.683   1.620  52.208  1.00  0.00     0.035 A 
HETATM   14  C8  UNL     1      21.060   1.691  50.989  1.00  0.00     0.029 A 
HETATM   15  C9  UNL     1      19.951   0.981  50.615  1.00  0.00     0.005 A 
HETATM   16  C10 UNL     1      19.380   0.110  51.517  1.00  0.00     0.042 A 
HETATM   17  C11 UNL     1      19.933  -0.029  52.765  1.00  0.00     0.118 A 
HETATM   18  F1  UNL     1      19.388  -0.877  53.657  1.00  0.00    -0.206 F 
HETATM   19  C12 UNL     1      21.048   0.719  53.060  1.00  0.00     0.071 A 
ENDBRANCH  11  13
ENDBRANCH   7  11
BRANCH  10  20
HETATM   20  O2  UNL     1      25.500  -1.253  54.892  1.00  0.00    -0.353 OA
HETATM   21  C16 UNL     1      24.283  -1.275  55.620  1.00  0.00     0.210 C 
ENDBRANCH  10  20
BRANCH   1  22
HETATM   22  O1  UNL     1      27.990  -1.200  53.809  1.00  0.00    -0.353 OA
HETATM   23  C1  UNL     1      29.353  -0.815  53.801  1.00  0.00     0.210 C 
ENDBRANCH   1  22
TORSDOF 4
ENDMDL
MODEL 3
REMARK VINA RESULT:      -7.3      1.685      2.062
REMARK  4 active torsions:
REMARK  status: ('A' for Active; 'I' for Inactive)
REMARK    1  A    between atoms: O1_2  and  C2_3 
REMARK    2  A    between atoms: C6_9  and  N2_10 
REMARK    3  A    between atoms: N2_10  and  C7_11 
REMARK    4  A    between atoms: C15_20  and  O2_21 
ROOT
HETATM    1  C2  UNL     1      21.079   0.508  52.151  1.00  0.00     0.103 A 
HETATM    2  C3  UNL     1      21.448   1.149  50.966  1.00  0.00     0.072 A 
HETATM    3  C4  UNL     1      22.656   1.847  50.834  1.00  0.00     0.071 A 
HETATM    4  N1  UNL     1      22.747   2.351  49.613  1.00  0.00    -0.259 NA
HETATM    5  C5  UNL     1      23.741   3.079  49.099  1.00  0.00     0.135 A 
HETATM    6  P1  UNL     1      25.012   3.335  50.241  1.00  0.00     0.017 P 
HETATM    7  C6  UNL     1      24.722   2.603  51.783  1.00  0.00     0.059 A 
HETATM    8  C13 UNL     1      23.532   1.922  51.894  1.00  0.00     0.024 A 
HETATM    9  C14 UNL     1      23.125   1.275  53.042  1.00  0.00     0.055 A 
HETATM   10  C15 UNL     1      21.953   0.579  53.223  1.00  0.00     0.102 A 
ENDROOT
BRANCH   7  11
HETATM   11  N2  UNL     1      25.596   2.666  52.872  1.00  0.00    -0.354 N 
HETATM   12  H6  UNL     1      25.471   3.338  53.626  1.00  0.00     0.166 HD
BRANCH  11  13
HETATM   13  C7  UNL     1      26.747   1.890  53.150  1.00  0.00     0.035 A 
HETATM   14  C8  UNL     1      26.894   0.561  52.851  1.00  0.00     0.029 A 
HETATM   15  C9  UNL     1      27.991  -0.207  53.134  1.00  0.00     0.005 A 
HETATM   16  C10 UNL     1      29.064   0.373  53.778  1.00  0.00     0.042 A 
HETATM   17  C11 UNL     1      29.009   1.701  54.118  1.00  0.00     0.118 A 
HETATM   18  F1  UNL     1      30.048   2.282  54.746  1.00  0.00    -0.206 F 
HETATM   19  C12 UNL     1      27.871   2.401  53.796  1.00  0.00     0.071 A 
ENDBRANCH  11  13
ENDBRANCH   7  11
BRANCH  10  20
HETATM   20  O2  UNL     1      21.600  -0.050  54.400  1.00  0.00    -0.353 OA
HETATM   21  C16 UNL     1      21.965  -1.387  54.700  1.00  0.00     0.210 C 
ENDBRANCH  10  20
BRANCH   1  22
HETATM   22  O1  UNL     1      19.887  -0.187  52.296  1.00  0.00    -0.353 OA
HETATM   23  C1  UNL     1      18.796   0.149  51.458  1.00  0.00     0.210 C 
ENDBRANCH   1  22
TORSDOF 4
ENDMDL
MODEL 4
REMARK VINA RESULT:      -7.2      3.539      6.810
REMARK  4 active torsions:
REMARK  status: ('A' for Active; 'I' for Inactive)
REMARK    1  A    between atoms: O1_2  and  C2_3 
REMARK    2  A    between atoms: C6_9  and  N2_10 
REMARK    3  A    between atoms: N2_10  and  C7_11 
REMARK    4  A    between atoms: C15_20  and  O2_21 
ROOT
HETATM    1  C2  UNL     1      26.347   1.145  53.956  1.00  0.00     0.103 A 
HETATM    2  C3  UNL     1      25.774   2.402  53.756  1.00  0.00     0.072 A 
HETATM    3  C4  UNL     1      24.523   2.570  53.146  1.00  0.00     0.071 A 
HETATM    4  N1  UNL     1      24.228   3.859  53.087  1.00  0.00    -0.259 NA
HETATM    5  C5  UNL     1      23.130   4.425  52.578  1.00  0.00     0.135 A 
HETATM    6  P1  UNL     1      22.029   3.250  51.951  1.00  0.00     0.017 P 
HETATM    7  C6  UNL     1      22.581   1.618  52.117  1.00  0.00     0.059 A 
HETATM    8  C13 UNL     1      23.810   1.473  52.718  1.00  0.00     0.024 A 
HETATM    9  C14 UNL     1      24.416   0.253  52.935  1.00  0.00     0.055 A 
HETATM   10  C15 UNL     1      25.637   0.035  53.527  1.00  0.00     0.102 A 
ENDROOT
BRANCH   7  11
HETATM   11  N2  UNL     1      21.874   0.491  51.689  1.00  0.00    -0.354 N 
HETATM   12  H6  UNL     1      22.284  -0.198  51.061  1.00  0.00     0.166 HD
BRANCH  11  13
HETATM   13  C7  UNL     1      20.552   0.087  51.995  1.00  0.00     0.035 A 
HETATM   14  C8  UNL     1      20.163  -0.525  53.158  1.00  0.00     0.029 A 
HETATM   15  C9  UNL     1      18.893  -0.942  53.457  1.00  0.00     0.005 A 
HETATM   16  C10 UNL     1      17.891  -0.747  52.531  1.00  0.00     0.042 A 
HETATM   17  C11 UNL     1      18.185  -0.142  51.335  1.00  0.00     0.118 A 
HETATM   18  F1  UNL     1      17.217   0.055  50.421  1.00  0.00    -0.206 F 
HETATM   19  C12 UNL     1      19.484   0.247  51.114  1.00  0.00     0.071 A 
ENDBRANCH  11  13
ENDBRANCH   7  11
BRANCH  10  20
HETATM   20  O2  UNL     1      26.194  -1.214  53.718  1.00  0.00    -0.353 OA
HETATM   21  C16 UNL     1      26.913  -1.901  52.708  1.00  0.00     0.210 C 
ENDBRANCH  10  20
BRANCH   1  22
HETATM   22  O1  UNL     1      27.584   0.963  54.558  1.00  0.00    -0.353 OA
HETATM   23  C1  UNL     1      28.749   1.349  53.851  1.00  0.00     0.210 C 
ENDBRANCH   1  22
TORSDOF 4
ENDMDL
MODEL 5
REMARK VINA RESULT:      -7.2      3.631      6.683
REMARK  4 active torsions:
REMARK  status: ('A' for Active; 'I' for Inactive)
REMARK    1  A    between atoms: O1_2  and  C2_3 
REMARK    2  A    between atoms: C6_9  and  N2_10 
REMARK    3  A    between atoms: N2_10  and  C7_11 
REMARK    4  A    between atoms: C15_20  and  O2_21 
ROOT
HETATM    1  C2  UNL     1      26.211  -0.207  53.624  1.00  0.00     0.103 A 
HETATM    2  C3  UNL     1      25.144  -0.835  54.271  1.00  0.00     0.072 A 
HETATM    3  C4  UNL     1      23.812  -0.451  54.070  1.00  0.00     0.071 A 
HETATM    4  N1  UNL     1      23.014  -1.211  54.804  1.00  0.00    -0.259 NA
HETATM    5  C5  UNL     1      21.683  -1.157  54.890  1.00  0.00     0.135 A 
HETATM    6  P1  UNL     1      21.019   0.083  53.886  1.00  0.00     0.017 P 
HETATM    7  C6  UNL     1      22.210   0.973  52.999  1.00  0.00     0.059 A 
HETATM    8  C13 UNL     1      23.512   0.582  53.209  1.00  0.00     0.024 A 
HETATM    9  C14 UNL     1      24.597   1.171  52.594  1.00  0.00     0.055 A 
HETATM   10  C15 UNL     1      25.919   0.833  52.757  1.00  0.00     0.102 A 
ENDROOT
BRANCH   7  11
HETATM   11  N2  UNL     1      21.928   2.024  52.121  1.00  0.00    -0.354 N 
HETATM   12  H6  UNL     1      21.603   2.930  52.450  1.00  0.00     0.166 HD
BRANCH  11  13
HETATM   13  C7  UNL     1      22.017   2.066  50.709  1.00  0.00     0.035 A 
HETATM   14  C8  UNL     1      21.560   1.091  49.860  1.00  0.00     0.029 A 
HETATM   15  C9  UNL     1      21.660   1.108  48.495  1.00  0.00     0.005 A 
HETATM   16  C10 UNL     1      22.268   2.183  47.882  1.00  0.00     0.042 A 
HETATM   17  C11 UNL     1      22.757   3.209  48.651  1.00  0.00     0.118 A 
HETATM   18  F1  UNL     1      23.353   4.266  48.068  1.00  0.00    -0.206 F 
HETATM   19  C12 UNL     1      22.615   3.115  50.014  1.00  0.00     0.071 A 
ENDBRANCH  11  13
ENDBRANCH   7  11
BRANCH  10  20
HETATM   20  O2  UNL     1      26.965   1.462  52.112  1.00  0.00    -0.353 OA
HETATM   21  C16 UNL     1      26.775   2.510  51.175  1.00  0.00     0.210 C 
ENDBRANCH  10  20
BRANCH   1  22
HETATM   22  O1  UNL     1      27.535  -0.577  53.814  1.00  0.00    -0.353 OA
HETATM   23  C1  UNL     1      28.271   0.036  54.856  1.00  0.00     0.210 C 
ENDBRANCH   1  22
TORSDOF 4
ENDMDL
MODEL 6
REMARK VINA RESULT:      -7.2      3.714      5.928
REMARK  4 active torsions:
REMARK  status: ('A' for Active; 'I' for Inactive)
REMARK    1  A    between atoms: O1_2  and  C2_3 
REMARK    2  A    between atoms: C6_9  and  N2_10 
REMARK    3  A    between atoms: N2_10  and  C7_11 
REMARK    4  A    between atoms: C15_20  and  O2_21 
ROOT
HETATM    1  C2  UNL     1      25.322   0.270  53.724  1.00  0.00     0.103 A 
HETATM    2  C3  UNL     1      24.140   0.140  52.993  1.00  0.00     0.072 A 
HETATM    3  C4  UNL     1      23.643   1.167  52.178  1.00  0.00     0.071 A 
HETATM    4  N1  UNL     1      22.516   0.775  51.606  1.00  0.00    -0.259 NA
HETATM    5  C5  UNL     1      21.741   1.465  50.765  1.00  0.00     0.135 A 
HETATM    6  P1  UNL     1      22.373   3.042  50.449  1.00  0.00     0.017 P 
HETATM    7  C6  UNL     1      23.853   3.379  51.282  1.00  0.00     0.059 A 
HETATM    8  C13 UNL     1      24.325   2.360  52.076  1.00  0.00     0.024 A 
HETATM    9  C14 UNL     1      25.485   2.442  52.816  1.00  0.00     0.055 A 
HETATM   10  C15 UNL     1      26.014   1.467  53.628  1.00  0.00     0.102 A 
ENDROOT
BRANCH   7  11
HETATM   11  N2  UNL     1      24.560   4.581  51.193  1.00  0.00    -0.354 N 
HETATM   12  H6  UNL     1      24.425   5.338  51.859  1.00  0.00     0.166 HD
BRANCH  11  13
HETATM   13  C7  UNL     1      25.531   4.988  50.245  1.00  0.00     0.035 A 
HETATM   14  C8  UNL     1      26.456   4.163  49.660  1.00  0.00     0.029 A 
HETATM   15  C9  UNL     1      27.414   4.547  48.760  1.00  0.00     0.005 A 
HETATM   16  C10 UNL     1      27.488   5.871  48.387  1.00  0.00     0.042 A 
HETATM   17  C11 UNL     1      26.602   6.773  48.921  1.00  0.00     0.118 A 
HETATM   18  F1  UNL     1      26.661   8.070  48.566  1.00  0.00    -0.206 F 
HETATM   19  C12 UNL     1      25.670   6.306  49.816  1.00  0.00     0.071 A 
ENDBRANCH  11  13
ENDBRANCH   7  11
BRANCH  10  20
HETATM   20  O2  UNL     1      27.184   1.607  54.347  1.00  0.00    -0.353 OA
HETATM   21  C16 UNL     1      28.378   2.126  53.785  1.00  0.00     0.210 C 
ENDBRANCH  10  20
BRANCH   1  22
HETATM   22  O1  UNL     1      25.826  -0.738  54.535  1.00  0.00    -0.353 OA
HETATM   23  C1  UNL     1      25.082  -1.131  55.674  1.00  0.00     0.210 C 
ENDBRANCH   1  22
TORSDOF 4
ENDMDL
MODEL 7
REMARK VINA RESULT:      -7.2      3.669      6.531
REMARK  4 active torsions:
REMARK  status: ('A' for Active; 'I' for Inactive)
REMARK    1  A    between atoms: O1_2  and  C2_3 
REMARK    2  A    between atoms: C6_9  and  N2_10 
REMARK    3  A    between atoms: N2_10  and  C7_11 
REMARK    4  A    between atoms: C15_20  and  O2_21 
ROOT
HETATM    1  C2  UNL     1      26.501   0.264  54.234  1.00  0.00     0.103 A 
HETATM    2  C3  UNL     1      25.344  -0.459  53.936  1.00  0.00     0.072 A 
HETATM    3  C4  UNL     1      24.200   0.143  53.394  1.00  0.00     0.071 A 
HETATM    4  N1  UNL     1      23.260  -0.772  53.213  1.00  0.00    -0.259 NA
HETATM    5  C5  UNL     1      22.031  -0.598  52.722  1.00  0.00     0.135 A 
HETATM    6  P1  UNL     1      21.731   1.051  52.301  1.00  0.00     0.017 P 
HETATM    7  C6  UNL     1      23.072   2.103  52.606  1.00  0.00     0.059 A 
HETATM    8  C13 UNL     1      24.186   1.495  53.136  1.00  0.00     0.024 A 
HETATM    9  C14 UNL     1      25.349   2.168  53.447  1.00  0.00     0.055 A 
HETATM   10  C15 UNL     1      26.496   1.626  53.978  1.00  0.00     0.102 A 
ENDROOT
BRANCH   7  11
HETATM   11  N2  UNL     1      23.079   3.478  52.351  1.00  0.00    -0.354 N 
HETATM   12  H6  UNL     1      22.724   4.153  53.025  1.00  0.00     0.166 HD
BRANCH  11  13
HETATM   13  C7  UNL     1      23.533   4.180  51.209  1.00  0.00     0.035 A 
HETATM   14  C8  UNL     1      23.253   3.842  49.911  1.00  0.00     0.029 A 
HETATM   15  C9  UNL     1      23.705   4.498  48.797  1.00  0.00     0.005 A 
HETATM   16  C10 UNL     1      24.516   5.601  48.955  1.00  0.00     0.042 A 
HETATM   17  C11 UNL     1      24.852   6.017  50.219  1.00  0.00     0.118 A 
HETATM   18  F1  UNL     1      25.643   7.092  50.390  1.00  0.00    -0.206 F 
HETATM   19  C12 UNL     1      24.356   5.303  51.283  1.00  0.00     0.071 A 
ENDBRANCH  11  13
ENDBRANCH   7  11
BRANCH  10  20
HETATM   20  O2  UNL     1      27.633   2.352  54.269  1.00  0.00    -0.353 OA
HETATM   21  C16 UNL     1      28.663   2.584  53.322  1.00  0.00     0.210 C 
ENDBRANCH  10  20
BRANCH   1  22
HETATM   22  O1  UNL     1      27.641  -0.318  54.770  1.00  0.00    -0.353 OA
HETATM   23  C1  UNL     1      28.580  -0.912  53.892  1.00  0.00     0.210 C 
ENDBRANCH   1  22
TORSDOF 4
ENDMDL
MODEL 8
REMARK VINA RESULT:      -7.2      2.134      3.379
REMARK  4 active torsions:
REMARK  status: ('A' for Active; 'I' for Inactive)
REMARK    1  A    between atoms: O1_2  and  C2_3 
REMARK    2  A    between atoms: C6_9  and  N2_10 
REMARK    3  A    between atoms: N2_10  and  C7_11 
REMARK    4  A    between atoms: C15_20  and  O2_21 
ROOT
HETATM    1  C2  UNL     1      20.702   0.561  51.913  1.00  0.00     0.103 A 
HETATM    2  C3  UNL     1      20.888  -0.169  53.089  1.00  0.00     0.072 A 
HETATM    3  C4  UNL     1      22.155  -0.378  53.651  1.00  0.00     0.071 A 
HETATM    4  N1  UNL     1      22.037  -1.098  54.756  1.00  0.00    -0.259 NA
HETATM    5  C5  UNL     1      23.010  -1.507  55.573  1.00  0.00     0.135 A 
HETATM    6  P1  UNL     1      24.568  -0.983  55.039  1.00  0.00     0.017 P 
HETATM    7  C6  UNL     1      24.527  -0.054  53.579  1.00  0.00     0.059 A 
HETATM    8  C13 UNL     1      23.276   0.142  53.042  1.00  0.00     0.024 A 
HETATM    9  C14 UNL     1      23.043   0.854  51.885  1.00  0.00     0.055 A 
HETATM   10  C15 UNL     1      21.824   1.087  51.294  1.00  0.00     0.102 A 
ENDROOT
BRANCH   7  11
HETATM   11  N2  UNL     1      25.652   0.483  52.946  1.00  0.00    -0.354 N 
HETATM   12  H6  UNL     1      25.574   1.146  52.177  1.00  0.00     0.166 HD
BRANCH  11  13
HETATM   13  C7  UNL     1      27.025   0.250  53.197  1.00  0.00     0.035 A 
HETATM   14  C8  UNL     1      27.924   1.198  53.612  1.00  0.00     0.029 A 
HETATM   15  C9  UNL     1      29.259   0.992  53.836  1.00  0.00     0.005 A 
HETATM   16  C10 UNL     1      29.783  -0.267  53.638  1.00  0.00     0.042 A 
HETATM   17  C11 UNL     1      28.959  -1.283  53.222  1.00  0.00     0.118 A 
HETATM   18  F1  UNL     1      29.456  -2.518  53.024  1.00  0.00    -0.206 F 
HETATM   19  C12 UNL     1      27.631  -0.992  53.021  1.00  0.00     0.071 A 
ENDBRANCH  11  13
ENDBRANCH   7  11
BRANCH  10  20
HETATM   20  O2  UNL     1      21.653   1.810  50.130  1.00  0.00    -0.353 OA
HETATM   21  C16 UNL     1      21.770   1.234  48.839  1.00  0.00     0.210 C 
ENDBRANCH  10  20
BRANCH   1  22
HETATM   22  O1  UNL     1      19.454   0.777  51.345  1.00  0.00    -0.353 OA
HETATM   23  C1  UNL     1      18.370  -0.039  51.751  1.00  0.00     0.210 C 
ENDBRANCH   1  22
TORSDOF 4
ENDMDL
MODEL 9
REMARK VINA RESULT:      -7.0      4.585      6.533
REMARK  4 active torsions:
REMARK  status: ('A' for Active; 'I' for Inactive)
REMARK    1  A    between atoms: O1_2  and  C2_3 
REMARK    2  A    between atoms: C6_9  and  N2_10 
REMARK    3  A    between atoms: N2_10  and  C7_11 
REMARK    4  A    between atoms: C15_20  and  O2_21 
ROOT
HETATM    1  C2  UNL     1      26.937   6.519  48.522  1.00  0.00     0.103 A 
HETATM    2  C3  UNL     1      25.729   6.567  49.222  1.00  0.00     0.072 A 
HETATM    3  C4  UNL     1      25.247   5.481  49.965  1.00  0.00     0.071 A 
HETATM    4  N1  UNL     1      24.089   5.802  50.521  1.00  0.00    -0.259 NA
HETATM    5  C5  UNL     1      23.316   5.040  51.299  1.00  0.00     0.135 A 
HETATM    6  P1  UNL     1      23.997   3.473  51.552  1.00  0.00     0.017 P 
HETATM    7  C6  UNL     1      25.512   3.234  50.751  1.00  0.00     0.059 A 
HETATM    8  C13 UNL     1      25.970   4.310  50.026  1.00  0.00     0.024 A 
HETATM    9  C14 UNL     1      27.154   4.310  49.320  1.00  0.00     0.055 A 
HETATM   10  C15 UNL     1      27.670   5.345  48.577  1.00  0.00     0.102 A 
ENDROOT
BRANCH   7  11
HETATM   11  N2  UNL     1      26.262   2.054  50.799  1.00  0.00    -0.354 N 
HETATM   12  H6  UNL     1      26.375   1.453  49.986  1.00  0.00     0.166 HD
BRANCH  11  13
HETATM   13  C7  UNL     1      26.964   1.477  51.885  1.00  0.00     0.035 A 
HETATM   14  C8  UNL     1      26.850   0.174  52.295  1.00  0.00     0.029 A 
HETATM   15  C9  UNL     1      27.504  -0.391  53.356  1.00  0.00     0.005 A 
HETATM   16  C10 UNL     1      28.361   0.388  54.104  1.00  0.00     0.042 A 
HETATM   17  C11 UNL     1      28.541   1.706  53.769  1.00  0.00     0.118 A 
HETATM   18  F1  UNL     1      29.374   2.480  54.489  1.00  0.00    -0.206 F 
HETATM   19  C12 UNL     1      27.847   2.195  52.689  1.00  0.00     0.071 A 
ENDBRANCH  11  13
ENDBRANCH   7  11
BRANCH  10  20
HETATM   20  O2  UNL     1      28.865   5.286  47.890  1.00  0.00    -0.353 OA
HETATM   21  C16 UNL     1      30.107   5.657  48.467  1.00  0.00     0.210 C 
ENDBRANCH  10  20
BRANCH   1  22
HETATM   22  O1  UNL     1      27.426   7.587  47.782  1.00  0.00    -0.353 OA
HETATM   23  C1  UNL     1      27.928   8.719  48.469  1.00  0.00     0.210 C 
ENDBRANCH   1  22
TORSDOF 4
ENDMDL
