MODEL 1
REMARK VINA RESULT:      -8.1      0.000      0.000
REMARK  6 active torsions:
REMARK  status: ('A' for Active; 'I' for Inactive)
REMARK    1  A    between atoms: C2_2  and  C3_3 
REMARK    2  A    between atoms: C3_3  and  C4_4 
REMARK    3  A    between atoms: C4_4  and  O1_5 
REMARK    4  A    between atoms: O1_5  and  C5_6 
REMARK    5  A    between atoms: C10_16  and  N5_17 
REMARK    6  A    between atoms: N5_17  and  C11_18 
ROOT
HETATM    1  C3  UNL     1      24.889   2.254  52.624  1.00  0.00     0.146 A 
HETATM    2  N2  UNL     1      25.599   1.930  53.870  1.00  0.00    -0.289 N 
HETATM    3  N3  UNL     1      26.978   1.867  54.094  1.00  0.00    -0.171 NA
HETATM    4  C9  UNL     1      27.782   2.121  53.096  1.00  0.00     0.256 A 
HETATM    5  N4  UNL     1      27.283   2.455  51.809  1.00  0.00    -0.224 NA
HETATM    6  C10 UNL     1      25.987   2.510  51.611  1.00  0.00     0.142 A 
HETATM    7  H14 UNL     1      24.996   1.716  54.709  1.00  0.00     0.184 HD
ENDROOT
BRANCH   6   8
HETATM    8  N5  UNL     1      25.668   2.851  50.264  1.00  0.00    -0.342 N 
HETATM    9  H16 UNL     1      25.194   2.139  49.653  1.00  0.00     0.167 HD
BRANCH   8  10
HETATM   10  C11 UNL     1      25.984   4.155  49.732  1.00  0.00     0.034 A 
HETATM   11  C12 UNL     1      25.220   5.301  49.742  1.00  0.00     0.032 A 
HETATM   12  C13 UNL     1      25.744   6.442  49.171  1.00  0.00     0.034 A 
HETATM   13  C14 UNL     1      26.987   6.498  48.594  1.00  0.00     0.064 A 
HETATM   14  C15 UNL     1      27.760   5.335  48.585  1.00  0.00     0.013 A 
HETATM   15  N7  UNL     1      27.658   7.493  48.002  1.00  0.00    -0.274 N 
HETATM   16  C16 UNL     1      28.919   5.755  47.942  1.00  0.00     0.152 A 
HETATM   17  C18 UNL     1      27.255   4.184  49.150  1.00  0.00     0.044 A 
HETATM   18  N6  UNL     1      28.833   7.036  47.606  1.00  0.00    -0.184 NA
HETATM   19  C17 UNL     1      27.264   8.872  47.778  1.00  0.00     0.180 C 
ENDBRANCH   8  10
ENDBRANCH   6   8
BRANCH   1  20
HETATM   20  C2  UNL     1      24.175   3.546  52.737  1.00  0.00     0.005 C 
HETATM   21  C1  UNL     1      22.962   3.695  52.270  1.00  0.00     0.010 C 
ENDBRANCH   1  20
BRANCH   1  22
HETATM   22  C4  UNL     1      24.044   1.103  52.179  1.00  0.00     0.215 C 
BRANCH  22  23
HETATM   23  O1  UNL     1      23.702   0.180  53.108  1.00  0.00    -0.356 OA
BRANCH  23  24
HETATM   24  C5  UNL     1      22.423  -0.257  53.198  1.00  0.00     0.276 C 
HETATM   25  C6  UNL     1      22.187  -1.101  54.450  1.00  0.00     0.174 C 
HETATM   26  N1  UNL     1      20.812  -1.447  54.563  1.00  0.00    -0.415 N 
HETATM   27  C7  UNL     1      19.918  -0.829  53.646  1.00  0.00     0.140 C 
HETATM   28  H9  UNL     1      20.457  -1.505  55.543  1.00  0.00     0.153 HD
HETATM   29  C8  UNL     1      20.305   0.549  53.227  1.00  0.00     0.190 C 
HETATM   30  O2  UNL     1      21.617   0.892  53.413  1.00  0.00    -0.358 OA
ENDBRANCH  23  24
ENDBRANCH  22  23
ENDBRANCH   1  22
TORSDOF 6
ENDMDL
MODEL 2
REMARK VINA RESULT:      -8.0      3.339      5.809
REMARK  6 active torsions:
REMARK  status: ('A' for Active; 'I' for Inactive)
REMARK    1  A    between atoms: C2_2  and  C3_3 
REMARK    2  A    between atoms: C3_3  and  C4_4 
REMARK    3  A    between atoms: C4_4  and  O1_5 
REMARK    4  A    between atoms: O1_5  and  C5_6 
REMARK    5  A    between atoms: C10_16  and  N5_17 
REMARK    6  A    between atoms: N5_17  and  C11_18 
ROOT
HETATM    1  C3  UNL     1      22.728   3.193  50.950  1.00  0.00     0.146 A 
HETATM    2  N2  UNL     1      22.633   4.621  50.613  1.00  0.00    -0.289 N 
HETATM    3  N3  UNL     1      23.021   5.724  51.382  1.00  0.00    -0.171 NA
HETATM    4  C9  UNL     1      23.540   5.507  52.562  1.00  0.00     0.256 A 
HETATM    5  N4  UNL     1      23.713   4.189  53.065  1.00  0.00    -0.224 NA
HETATM    6  C10 UNL     1      23.345   3.164  52.333  1.00  0.00     0.142 A 
HETATM    7  H14 UNL     1      22.220   4.853  49.671  1.00  0.00     0.184 HD
ENDROOT
BRANCH   6   8
HETATM    8  N5  UNL     1      23.586   1.925  52.996  1.00  0.00    -0.342 N 
HETATM    9  H16 UNL     1      22.769   1.373  53.365  1.00  0.00     0.167 HD
BRANCH   8  10
HETATM   10  C11 UNL     1      24.926   1.418  53.165  1.00  0.00     0.034 A 
HETATM   11  C12 UNL     1      26.050   2.079  53.609  1.00  0.00     0.032 A 
HETATM   12  C13 UNL     1      27.233   1.373  53.696  1.00  0.00     0.034 A 
HETATM   13  C14 UNL     1      27.350   0.048  53.364  1.00  0.00     0.064 A 
HETATM   14  C15 UNL     1      26.210  -0.620  52.913  1.00  0.00     0.013 A 
HETATM   15  N7  UNL     1      28.391  -0.793  53.381  1.00  0.00    -0.274 N 
HETATM   16  C16 UNL     1      26.691  -1.903  52.679  1.00  0.00     0.152 A 
HETATM   17  C18 UNL     1      25.018   0.066  52.819  1.00  0.00     0.044 A 
HETATM   18  N6  UNL     1      27.985  -1.979  52.963  1.00  0.00    -0.184 NA
HETATM   19  C17 UNL     1      29.769  -0.555  53.771  1.00  0.00     0.180 C 
ENDBRANCH   8  10
ENDBRANCH   6   8
BRANCH   1  20
HETATM   20  C2  UNL     1      23.715   2.506  50.086  1.00  0.00     0.005 C 
HETATM   21  C1  UNL     1      24.867   3.056  49.800  1.00  0.00     0.010 C 
ENDBRANCH   1  20
BRANCH   1  22
HETATM   22  C4  UNL     1      21.372   2.564  50.984  1.00  0.00     0.215 C 
BRANCH  22  23
HETATM   23  O1  UNL     1      20.696   2.593  52.157  1.00  0.00    -0.356 OA
BRANCH  23  24
HETATM   24  C5  UNL     1      19.987   1.512  52.563  1.00  0.00     0.276 C 
HETATM   25  C6  UNL     1      19.210   0.867  51.417  1.00  0.00     0.174 C 
HETATM   26  N1  UNL     1      18.568  -0.323  51.860  1.00  0.00    -0.415 N 
HETATM   27  C7  UNL     1      18.894  -0.777  53.168  1.00  0.00     0.140 C 
HETATM   28  H9  UNL     1      18.506  -1.078  51.141  1.00  0.00     0.153 HD
HETATM   29  C8  UNL     1      20.287  -0.477  53.606  1.00  0.00     0.190 C 
HETATM   30  O2  UNL     1      20.934   0.519  52.926  1.00  0.00    -0.358 OA
ENDBRANCH  23  24
ENDBRANCH  22  23
ENDBRANCH   1  22
TORSDOF 6
ENDMDL
MODEL 3
REMARK VINA RESULT:      -8.0      3.299      5.563
REMARK  6 active torsions:
REMARK  status: ('A' for Active; 'I' for Inactive)
REMARK    1  A    between atoms: C2_2  and  C3_3 
REMARK    2  A    between atoms: C3_3  and  C4_4 
REMARK    3  A    between atoms: C4_4  and  O1_5 
REMARK    4  A    between atoms: O1_5  and  C5_6 
REMARK    5  A    between atoms: C10_16  and  N5_17 
REMARK    6  A    between atoms: N5_17  and  C11_18 
ROOT
HETATM    1  C3  UNL     1      21.403   3.444  51.263  1.00  0.00     0.146 A 
HETATM    2  N2  UNL     1      21.229   4.897  51.410  1.00  0.00    -0.289 N 
HETATM    3  N3  UNL     1      22.210   5.877  51.598  1.00  0.00    -0.171 NA
HETATM    4  C9  UNL     1      23.460   5.500  51.659  1.00  0.00     0.256 A 
HETATM    5  N4  UNL     1      23.829   4.134  51.538  1.00  0.00    -0.224 NA
HETATM    6  C10 UNL     1      22.900   3.225  51.362  1.00  0.00     0.142 A 
HETATM    7  H14 UNL     1      20.238   5.255  51.369  1.00  0.00     0.184 HD
ENDROOT
BRANCH   6   8
HETATM    8  N5  UNL     1      23.449   1.913  51.269  1.00  0.00    -0.342 N 
HETATM    9  H16 UNL     1      22.886   1.152  50.810  1.00  0.00     0.167 HD
BRANCH   8  10
HETATM   10  C11 UNL     1      24.762   1.616  51.791  1.00  0.00     0.034 A 
HETATM   11  C12 UNL     1      25.993   1.878  51.233  1.00  0.00     0.032 A 
HETATM   12  C13 UNL     1      27.122   1.504  51.933  1.00  0.00     0.034 A 
HETATM   13  C14 UNL     1      27.084   0.886  53.157  1.00  0.00     0.064 A 
HETATM   14  C15 UNL     1      25.834   0.621  53.721  1.00  0.00     0.013 A 
HETATM   15  N7  UNL     1      28.051   0.455  53.976  1.00  0.00    -0.274 N 
HETATM   16  C16 UNL     1      26.174   0.009  54.921  1.00  0.00     0.152 A 
HETATM   17  C18 UNL     1      24.694   0.986  53.038  1.00  0.00     0.044 A 
HETATM   18  N6  UNL     1      27.493  -0.078  55.048  1.00  0.00    -0.184 NA
HETATM   19  C17 UNL     1      29.493   0.511  53.817  1.00  0.00     0.180 C 
ENDBRANCH   8  10
ENDBRANCH   6   8
BRANCH   1  20
HETATM   20  C2  UNL     1      21.050   3.000  49.897  1.00  0.00     0.005 C 
HETATM   21  C1  UNL     1      21.341   3.727  48.849  1.00  0.00     0.010 C 
ENDBRANCH   1  20
BRANCH   1  22
HETATM   22  C4  UNL     1      20.708   2.712  52.366  1.00  0.00     0.215 C 
BRANCH  22  23
HETATM   23  O1  UNL     1      20.332   1.433  52.130  1.00  0.00    -0.356 OA
BRANCH  23  24
HETATM   24  C5  UNL     1      20.627   0.458  53.024  1.00  0.00     0.276 C 
HETATM   25  C6  UNL     1      19.447  -0.480  53.268  1.00  0.00     0.174 C 
HETATM   26  N1  UNL     1      19.830  -1.548  54.125  1.00  0.00    -0.415 N 
HETATM   27  C7  UNL     1      21.214  -1.654  54.437  1.00  0.00     0.140 C 
HETATM   28  H9  UNL     1      19.360  -2.459  53.923  1.00  0.00     0.153 HD
HETATM   29  C8  UNL     1      22.136  -1.201  53.356  1.00  0.00     0.190 C 
HETATM   30  O2  UNL     1      21.595  -0.377  52.406  1.00  0.00    -0.358 OA
ENDBRANCH  23  24
ENDBRANCH  22  23
ENDBRANCH   1  22
TORSDOF 6
ENDMDL
MODEL 4
REMARK VINA RESULT:      -7.9      2.795      7.340
REMARK  6 active torsions:
REMARK  status: ('A' for Active; 'I' for Inactive)
REMARK    1  A    between atoms: C2_2  and  C3_3 
REMARK    2  A    between atoms: C3_3  and  C4_4 
REMARK    3  A    between atoms: C4_4  and  O1_5 
REMARK    4  A    between atoms: O1_5  and  C5_6 
REMARK    5  A    between atoms: C10_16  and  N5_17 
REMARK    6  A    between atoms: N5_17  and  C11_18 
ROOT
HETATM    1  C3  UNL     1      23.452   3.448  51.028  1.00  0.00     0.146 A 
HETATM    2  N2  UNL     1      22.566   3.229  49.876  1.00  0.00    -0.289 N 
HETATM    3  N3  UNL     1      21.787   2.105  49.578  1.00  0.00    -0.171 NA
HETATM    4  C9  UNL     1      21.818   1.091  50.402  1.00  0.00     0.256 A 
HETATM    5  N4  UNL     1      22.619   1.115  51.575  1.00  0.00    -0.224 NA
HETATM    6  C10 UNL     1      23.344   2.175  51.843  1.00  0.00     0.142 A 
HETATM    7  H14 UNL     1      22.504   4.017  49.177  1.00  0.00     0.184 HD
ENDROOT
BRANCH   6   8
HETATM    8  N5  UNL     1      24.085   2.021  53.051  1.00  0.00    -0.342 N 
HETATM    9  H16 UNL     1      23.791   2.559  53.906  1.00  0.00     0.167 HD
BRANCH   8  10
HETATM   10  C11 UNL     1      25.225   1.139  53.119  1.00  0.00     0.034 A 
HETATM   11  C12 UNL     1      25.280  -0.221  52.910  1.00  0.00     0.032 A 
HETATM   12  C13 UNL     1      26.502  -0.852  53.023  1.00  0.00     0.034 A 
HETATM   13  C14 UNL     1      27.667  -0.198  53.331  1.00  0.00     0.064 A 
HETATM   14  C15 UNL     1      27.609   1.181  53.543  1.00  0.00     0.013 A 
HETATM   15  N7  UNL     1      28.925  -0.627  53.482  1.00  0.00    -0.274 N 
HETATM   16  C16 UNL     1      28.934   1.494  53.823  1.00  0.00     0.152 A 
HETATM   17  C18 UNL     1      26.399   1.832  53.435  1.00  0.00     0.044 A 
HETATM   18  N6  UNL     1      29.693   0.405  53.782  1.00  0.00    -0.184 NA
HETATM   19  C17 UNL     1      29.468  -1.968  53.362  1.00  0.00     0.180 C 
ENDBRANCH   8  10
ENDBRANCH   6   8
BRANCH   1  20
HETATM   20  C2  UNL     1      22.921   4.506  51.916  1.00  0.00     0.005 C 
HETATM   21  C1  UNL     1      21.639   4.609  52.159  1.00  0.00     0.010 C 
ENDBRANCH   1  20
BRANCH   1  22
HETATM   22  C4  UNL     1      24.865   3.648  50.581  1.00  0.00     0.215 C 
BRANCH  22  23
HETATM   23  O1  UNL     1      25.074   3.950  49.278  1.00  0.00    -0.356 OA
BRANCH  23  24
HETATM   24  C5  UNL     1      25.888   4.978  48.937  1.00  0.00     0.276 C 
HETATM   25  C6  UNL     1      25.807   6.134  49.932  1.00  0.00     0.174 C 
HETATM   26  N1  UNL     1      26.753   7.143  49.600  1.00  0.00    -0.415 N 
HETATM   27  C7  UNL     1      27.683   6.833  48.569  1.00  0.00     0.140 C 
HETATM   28  H9  UNL     1      27.164   7.642  50.420  1.00  0.00     0.153 HD
HETATM   29  C8  UNL     1      28.070   5.395  48.485  1.00  0.00     0.190 C 
HETATM   30  O2  UNL     1      27.219   4.505  49.083  1.00  0.00    -0.358 OA
ENDBRANCH  23  24
ENDBRANCH  22  23
ENDBRANCH   1  22
TORSDOF 6
ENDMDL
MODEL 5
REMARK VINA RESULT:      -7.8      3.356      6.968
REMARK  6 active torsions:
REMARK  status: ('A' for Active; 'I' for Inactive)
REMARK    1  A    between atoms: C2_2  and  C3_3 
REMARK    2  A    between atoms: C3_3  and  C4_4 
REMARK    3  A    between atoms: C4_4  and  O1_5 
REMARK    4  A    between atoms: O1_5  and  C5_6 
REMARK    5  A    between atoms: C10_16  and  N5_17 
REMARK    6  A    between atoms: N5_17  and  C11_18 
ROOT
HETATM    1  C3  UNL     1      22.880   3.429  51.698  1.00  0.00     0.146 A 
HETATM    2  N2  UNL     1      22.192   3.494  50.400  1.00  0.00    -0.289 N 
HETATM    3  N3  UNL     1      22.728   3.315  49.120  1.00  0.00    -0.171 NA
HETATM    4  C9  UNL     1      24.004   3.053  49.013  1.00  0.00     0.256 A 
HETATM    5  N4  UNL     1      24.839   2.950  50.158  1.00  0.00    -0.224 NA
HETATM    6  C10 UNL     1      24.323   3.120  51.352  1.00  0.00     0.142 A 
HETATM    7  H14 UNL     1      21.158   3.704  50.429  1.00  0.00     0.184 HD
ENDROOT
BRANCH   6   8
HETATM    8  N5  UNL     1      25.303   2.988  52.379  1.00  0.00    -0.342 N 
HETATM    9  H16 UNL     1      25.482   3.798  53.026  1.00  0.00     0.167 HD
BRANCH   8  10
HETATM   10  C11 UNL     1      26.050   1.764  52.542  1.00  0.00     0.034 A 
HETATM   11  C12 UNL     1      25.682   0.477  52.217  1.00  0.00     0.032 A 
HETATM   12  C13 UNL     1      26.579  -0.543  52.463  1.00  0.00     0.034 A 
HETATM   13  C14 UNL     1      27.820  -0.344  53.012  1.00  0.00     0.064 A 
HETATM   14  C15 UNL     1      28.190   0.962  53.341  1.00  0.00     0.013 A 
HETATM   15  N7  UNL     1      28.811  -1.188  53.319  1.00  0.00    -0.274 N 
HETATM   16  C16 UNL     1      29.469   0.785  53.857  1.00  0.00     0.152 A 
HETATM   17  C18 UNL     1      27.309   1.995  53.105  1.00  0.00     0.044 A 
HETATM   18  N6  UNL     1      29.813  -0.497  53.833  1.00  0.00    -0.184 NA
HETATM   19  C17 UNL     1      28.885  -2.629  53.160  1.00  0.00     0.180 C 
ENDBRANCH   8  10
ENDBRANCH   6   8
BRANCH   1  20
HETATM   20  C2  UNL     1      22.426   2.260  52.484  1.00  0.00     0.005 C 
HETATM   21  C1  UNL     1      22.099   1.134  51.901  1.00  0.00     0.010 C 
ENDBRANCH   1  20
BRANCH   1  22
HETATM   22  C4  UNL     1      22.796   4.741  52.410  1.00  0.00     0.215 C 
BRANCH  22  23
HETATM   23  O1  UNL     1      23.727   5.678  52.111  1.00  0.00    -0.356 OA
BRANCH  23  24
HETATM   24  C5  UNL     1      23.414   6.714  51.296  1.00  0.00     0.276 C 
HETATM   25  C6  UNL     1      24.138   6.632  49.954  1.00  0.00     0.174 C 
HETATM   26  N1  UNL     1      23.702   7.674  49.089  1.00  0.00    -0.415 N 
HETATM   27  C7  UNL     1      22.598   8.452  49.532  1.00  0.00     0.140 C 
HETATM   28  H9  UNL     1      23.675   7.417  48.077  1.00  0.00     0.153 HD
HETATM   29  C8  UNL     1      21.605   7.715  50.366  1.00  0.00     0.190 C 
HETATM   30  O2  UNL     1      22.047   6.557  50.947  1.00  0.00    -0.358 OA
ENDBRANCH  23  24
ENDBRANCH  22  23
ENDBRANCH   1  22
TORSDOF 6
ENDMDL
MODEL 6
REMARK VINA RESULT:      -7.8      2.579      4.196
REMARK  6 active torsions:
REMARK  status: ('A' for Active; 'I' for Inactive)
REMARK    1  A    between atoms: C2_2  and  C3_3 
REMARK    2  A    between atoms: C3_3  and  C4_4 
REMARK    3  A    between atoms: C4_4  and  O1_5 
REMARK    4  A    between atoms: O1_5  and  C5_6 
REMARK    5  A    between atoms: C10_16  and  N5_17 
REMARK    6  A    between atoms: N5_17  and  C11_18 
ROOT
HETATM    1  C3  UNL     1      24.489   2.762  51.148  1.00  0.00     0.146 A 
HETATM    2  N2  UNL     1      24.058   2.924  52.544  1.00  0.00    -0.289 N 
HETATM    3  N3  UNL     1      23.690   4.098  53.211  1.00  0.00    -0.171 NA
HETATM    4  C9  UNL     1      23.719   5.223  52.548  1.00  0.00     0.256 A 
HETATM    5  N4  UNL     1      24.111   5.270  51.183  1.00  0.00    -0.224 NA
HETATM    6  C10 UNL     1      24.453   4.162  50.570  1.00  0.00     0.142 A 
HETATM    7  H14 UNL     1      24.018   2.045  53.126  1.00  0.00     0.184 HD
ENDROOT
BRANCH   6   8
HETATM    8  N5  UNL     1      24.821   4.398  49.213  1.00  0.00    -0.342 N 
HETATM    9  H16 UNL     1      24.171   4.092  48.444  1.00  0.00     0.167 HD
BRANCH   8  10
HETATM   10  C11 UNL     1      26.066   5.047  48.881  1.00  0.00     0.034 A 
HETATM   11  C12 UNL     1      27.340   4.523  48.873  1.00  0.00     0.032 A 
HETATM   12  C13 UNL     1      28.385   5.347  48.508  1.00  0.00     0.034 A 
HETATM   13  C14 UNL     1      28.224   6.661  48.151  1.00  0.00     0.064 A 
HETATM   14  C15 UNL     1      26.932   7.191  48.160  1.00  0.00     0.013 A 
HETATM   15  N7  UNL     1      29.098   7.601  47.772  1.00  0.00    -0.274 N 
HETATM   16  C16 UNL     1      27.148   8.503  47.756  1.00  0.00     0.152 A 
HETATM   17  C18 UNL     1      25.874   6.385  48.522  1.00  0.00     0.044 A 
HETATM   18  N6  UNL     1      28.438   8.721  47.533  1.00  0.00    -0.184 NA
HETATM   19  C17 UNL     1      30.539   7.519  47.616  1.00  0.00     0.180 C 
ENDBRANCH   8  10
ENDBRANCH   6   8
BRANCH   1  20
HETATM   20  C2  UNL     1      23.486   2.007  50.364  1.00  0.00     0.005 C 
HETATM   21  C1  UNL     1      22.254   1.872  50.787  1.00  0.00     0.010 C 
ENDBRANCH   1  20
BRANCH   1  22
HETATM   22  C4  UNL     1      25.881   2.219  51.081  1.00  0.00     0.215 C 
BRANCH  22  23
HETATM   23  O1  UNL     1      26.771   2.661  52.001  1.00  0.00    -0.356 OA
BRANCH  23  24
HETATM   24  C5  UNL     1      27.352   1.790  52.862  1.00  0.00     0.276 C 
HETATM   25  C6  UNL     1      28.571   2.392  53.558  1.00  0.00     0.174 C 
HETATM   26  N1  UNL     1      29.085   1.489  54.529  1.00  0.00    -0.415 N 
HETATM   27  C7  UNL     1      28.308   0.329  54.799  1.00  0.00     0.140 C 
HETATM   28  H9  UNL     1      29.492   1.946  55.376  1.00  0.00     0.153 HD
HETATM   29  C8  UNL     1      26.834   0.516  54.664  1.00  0.00     0.190 C 
HETATM   30  O2  UNL     1      26.427   1.592  53.922  1.00  0.00    -0.358 OA
ENDBRANCH  23  24
ENDBRANCH  22  23
ENDBRANCH   1  22
TORSDOF 6
ENDMDL
MODEL 7
REMARK VINA RESULT:      -7.6      5.216      9.830
REMARK  6 active torsions:
REMARK  status: ('A' for Active; 'I' for Inactive)
REMARK    1  A    between atoms: C2_2  and  C3_3 
REMARK    2  A    between atoms: C3_3  and  C4_4 
REMARK    3  A    between atoms: C4_4  and  O1_5 
REMARK    4  A    between atoms: O1_5  and  C5_6 
REMARK    5  A    between atoms: C10_16  and  N5_17 
REMARK    6  A    between atoms: N5_17  and  C11_18 
ROOT
HETATM    1  C3  UNL     1      31.385   8.392  47.993  1.00  0.00     0.146 A 
HETATM    2  N2  UNL     1      31.647   9.621  47.230  1.00  0.00    -0.289 N 
HETATM    3  N3  UNL     1      31.092  10.023  46.010  1.00  0.00    -0.171 NA
HETATM    4  C9  UNL     1      30.222   9.237  45.434  1.00  0.00     0.256 A 
HETATM    5  N4  UNL     1      29.838   8.001  46.020  1.00  0.00    -0.224 NA
HETATM    6  C10 UNL     1      30.366   7.635  47.164  1.00  0.00     0.142 A 
HETATM    7  H14 UNL     1      32.344  10.292  47.649  1.00  0.00     0.184 HD
ENDROOT
BRANCH   6   8
HETATM    8  N5  UNL     1      29.872   6.370  47.598  1.00  0.00    -0.342 N 
HETATM    9  H16 UNL     1      30.513   5.536  47.582  1.00  0.00     0.167 HD
BRANCH   8  10
HETATM   10  C11 UNL     1      28.513   6.219  48.057  1.00  0.00     0.034 A 
HETATM   11  C12 UNL     1      27.497   7.148  48.071  1.00  0.00     0.032 A 
HETATM   12  C13 UNL     1      26.263   6.763  48.556  1.00  0.00     0.034 A 
HETATM   13  C14 UNL     1      25.994   5.503  49.024  1.00  0.00     0.064 A 
HETATM   14  C15 UNL     1      27.025   4.562  49.009  1.00  0.00     0.013 A 
HETATM   15  N7  UNL     1      24.882   4.950  49.524  1.00  0.00    -0.274 N 
HETATM   16  C16 UNL     1      26.407   3.436  49.539  1.00  0.00     0.152 A 
HETATM   17  C18 UNL     1      28.265   4.926  48.529  1.00  0.00     0.044 A 
HETATM   18  N6  UNL     1      25.138   3.692  49.836  1.00  0.00    -0.184 NA
HETATM   19  C17 UNL     1      23.569   5.533  49.732  1.00  0.00     0.180 C 
ENDBRANCH   8  10
ENDBRANCH   6   8
BRANCH   1  20
HETATM   20  C2  UNL     1      30.685   8.692  49.262  1.00  0.00     0.005 C 
HETATM   21  C1  UNL     1      29.862   9.705  49.362  1.00  0.00     0.010 C 
ENDBRANCH   1  20
BRANCH   1  22
HETATM   22  C4  UNL     1      32.631   7.578  48.135  1.00  0.00     0.215 C 
BRANCH  22  23
HETATM   23  O1  UNL     1      33.007   6.816  47.081  1.00  0.00    -0.356 OA
BRANCH  23  24
HETATM   24  C5  UNL     1      33.622   5.626  47.283  1.00  0.00     0.276 C 
HETATM   25  C6  UNL     1      34.571   5.663  48.479  1.00  0.00     0.174 C 
HETATM   26  N1  UNL     1      35.113   4.370  48.724  1.00  0.00    -0.415 N 
HETATM   27  C7  UNL     1      34.565   3.294  47.971  1.00  0.00     0.140 C 
HETATM   28  H9  UNL     1      35.284   4.153  49.731  1.00  0.00     0.153 HD
HETATM   29  C8  UNL     1      33.122   3.442  47.625  1.00  0.00     0.190 C 
HETATM   30  O2  UNL     1      32.613   4.711  47.684  1.00  0.00    -0.358 OA
ENDBRANCH  23  24
ENDBRANCH  22  23
ENDBRANCH   1  22
TORSDOF 6
ENDMDL
MODEL 8
REMARK VINA RESULT:      -7.6      2.949      7.486
REMARK  6 active torsions:
REMARK  status: ('A' for Active; 'I' for Inactive)
REMARK    1  A    between atoms: C2_2  and  C3_3 
REMARK    2  A    between atoms: C3_3  and  C4_4 
REMARK    3  A    between atoms: C4_4  and  O1_5 
REMARK    4  A    between atoms: O1_5  and  C5_6 
REMARK    5  A    between atoms: C10_16  and  N5_17 
REMARK    6  A    between atoms: N5_17  and  C11_18 
ROOT
HETATM    1  C3  UNL     1      23.973   3.587  52.164  1.00  0.00     0.146 A 
HETATM    2  N2  UNL     1      24.525   4.828  51.602  1.00  0.00    -0.289 N 
HETATM    3  N3  UNL     1      24.866   5.105  50.273  1.00  0.00    -0.171 NA
HETATM    4  C9  UNL     1      24.691   4.169  49.378  1.00  0.00     0.256 A 
HETATM    5  N4  UNL     1      24.167   2.896  49.731  1.00  0.00    -0.224 NA
HETATM    6  C10 UNL     1      23.850   2.650  50.980  1.00  0.00     0.142 A 
HETATM    7  H14 UNL     1      24.687   5.618  52.282  1.00  0.00     0.184 HD
ENDROOT
BRANCH   6   8
HETATM    8  N5  UNL     1      23.348   1.326  51.150  1.00  0.00    -0.342 N 
HETATM    9  H16 UNL     1      24.021   0.545  51.360  1.00  0.00     0.167 HD
BRANCH   8  10
HETATM   10  C11 UNL     1      21.937   1.045  51.040  1.00  0.00     0.034 A 
HETATM   11  C12 UNL     1      21.079   1.324  49.999  1.00  0.00     0.032 A 
HETATM   12  C13 UNL     1      19.757   0.947  50.122  1.00  0.00     0.034 A 
HETATM   13  C14 UNL     1      19.251   0.307  51.224  1.00  0.00     0.064 A 
HETATM   14  C15 UNL     1      20.123   0.025  52.278  1.00  0.00     0.013 A 
HETATM   15  N7  UNL     1      18.022  -0.132  51.522  1.00  0.00    -0.274 N 
HETATM   16  C16 UNL     1      19.288  -0.607  53.192  1.00  0.00     0.152 A 
HETATM   17  C18 UNL     1      21.447   0.394  52.176  1.00  0.00     0.044 A 
HETATM   18  N6  UNL     1      18.050  -0.687  52.721  1.00  0.00    -0.184 NA
HETATM   19  C17 UNL     1      16.799  -0.064  50.743  1.00  0.00     0.180 C 
ENDBRANCH   8  10
ENDBRANCH   6   8
BRANCH   1  20
HETATM   20  C2  UNL     1      22.582   3.785  52.630  1.00  0.00     0.005 C 
HETATM   21  C1  UNL     1      21.770   4.608  52.017  1.00  0.00     0.010 C 
ENDBRANCH   1  20
BRANCH   1  22
HETATM   22  C4  UNL     1      24.903   3.005  53.180  1.00  0.00     0.215 C 
BRANCH  22  23
HETATM   23  O1  UNL     1      25.976   2.314  52.726  1.00  0.00    -0.356 OA
BRANCH  23  24
HETATM   24  C5  UNL     1      26.777   1.649  53.592  1.00  0.00     0.276 C 
HETATM   25  C6  UNL     1      26.283   0.229  53.862  1.00  0.00     0.174 C 
HETATM   26  N1  UNL     1      27.206  -0.470  54.687  1.00  0.00    -0.415 N 
HETATM   27  C7  UNL     1      28.446   0.175  54.950  1.00  0.00     0.140 C 
HETATM   28  H9  UNL     1      27.283  -1.492  54.487  1.00  0.00     0.153 HD
HETATM   29  C8  UNL     1      28.947   1.044  53.846  1.00  0.00     0.190 C 
HETATM   30  O2  UNL     1      28.016   1.451  52.928  1.00  0.00    -0.358 OA
ENDBRANCH  23  24
ENDBRANCH  22  23
ENDBRANCH   1  22
TORSDOF 6
ENDMDL
MODEL 9
REMARK VINA RESULT:      -7.6      3.406      6.856
REMARK  6 active torsions:
REMARK  status: ('A' for Active; 'I' for Inactive)
REMARK    1  A    between atoms: C2_2  and  C3_3 
REMARK    2  A    between atoms: C3_3  and  C4_4 
REMARK    3  A    between atoms: C4_4  and  O1_5 
REMARK    4  A    between atoms: O1_5  and  C5_6 
REMARK    5  A    between atoms: C10_16  and  N5_17 
REMARK    6  A    between atoms: N5_17  and  C11_18 
ROOT
HETATM    1  C3  UNL     1      20.952   2.913  51.048  1.00  0.00     0.146 A 
HETATM    2  N2  UNL     1      20.964   3.429  49.672  1.00  0.00    -0.289 N 
HETATM    3  N3  UNL     1      21.947   3.265  48.689  1.00  0.00    -0.171 NA
HETATM    4  C9  UNL     1      23.013   2.569  48.987  1.00  0.00     0.256 A 
HETATM    5  N4  UNL     1      23.183   1.988  50.272  1.00  0.00    -0.224 NA
HETATM    6  C10 UNL     1      22.254   2.150  51.184  1.00  0.00     0.142 A 
HETATM    7  H14 UNL     1      20.126   3.999  49.379  1.00  0.00     0.184 HD
ENDROOT
BRANCH   6   8
HETATM    8  N5  UNL     1      22.595   1.506  52.410  1.00  0.00    -0.342 N 
HETATM    9  H16 UNL     1      21.829   1.095  53.004  1.00  0.00     0.167 HD
BRANCH   8  10
HETATM   10  C11 UNL     1      23.967   1.409  52.844  1.00  0.00     0.034 A 
HETATM   11  C12 UNL     1      24.788   2.397  53.342  1.00  0.00     0.032 A 
HETATM   12  C13 UNL     1      26.076   2.057  53.703  1.00  0.00     0.034 A 
HETATM   13  C14 UNL     1      26.584   0.788  53.593  1.00  0.00     0.064 A 
HETATM   14  C15 UNL     1      25.750  -0.211  53.088  1.00  0.00     0.013 A 
HETATM   15  N7  UNL     1      27.784   0.273  53.886  1.00  0.00    -0.274 N 
HETATM   16  C16 UNL     1      26.575  -1.330  53.121  1.00  0.00     0.152 A 
HETATM   17  C18 UNL     1      24.460   0.106  52.721  1.00  0.00     0.044 A 
HETATM   18  N6  UNL     1      27.774  -1.016  53.597  1.00  0.00    -0.184 NA
HETATM   19  C17 UNL     1      28.963   0.921  54.431  1.00  0.00     0.180 C 
ENDBRANCH   8  10
ENDBRANCH   6   8
BRANCH   1  20
HETATM   20  C2  UNL     1      19.898   1.888  51.224  1.00  0.00     0.005 C 
HETATM   21  C1  UNL     1      19.570   1.077  50.251  1.00  0.00     0.010 C 
ENDBRANCH   1  20
BRANCH   1  22
HETATM   22  C4  UNL     1      20.914   4.035  52.036  1.00  0.00     0.215 C 
BRANCH  22  23
HETATM   23  O1  UNL     1      22.094   4.467  52.541  1.00  0.00    -0.356 OA
BRANCH  23  24
HETATM   24  C5  UNL     1      22.658   5.608  52.078  1.00  0.00     0.276 C 
HETATM   25  C6  UNL     1      24.037   5.365  51.469  1.00  0.00     0.174 C 
HETATM   26  N1  UNL     1      24.547   6.564  50.898  1.00  0.00    -0.415 N 
HETATM   27  C7  UNL     1      23.656   7.671  50.834  1.00  0.00     0.140 C 
HETATM   28  H9  UNL     1      25.131   6.426  50.043  1.00  0.00     0.153 HD
HETATM   29  C8  UNL     1      22.221   7.311  50.646  1.00  0.00     0.190 C 
HETATM   30  O2  UNL     1      21.873   6.027  50.971  1.00  0.00    -0.358 OA
ENDBRANCH  23  24
ENDBRANCH  22  23
ENDBRANCH   1  22
TORSDOF 6
ENDMDL
