MODEL 1
REMARK VINA RESULT:      -9.4      0.000      0.000
REMARK  2 active torsions:
REMARK  status: ('A' for Active; 'I' for Inactive)
REMARK    1  A    between atoms: C4_5  and  N1_6 
REMARK    2  A    between atoms: N1_6  and  C5_7 
ROOT
HETATM    1  C5  UNL     1      23.986  -0.247  53.734  1.00  0.00     0.160 A 
HETATM    2  N2  UNL     1      24.198  -0.965  54.854  1.00  0.00    -0.222 NA
HETATM    3  C6  UNL     1      23.132  -1.489  55.513  1.00  0.00     0.238 A 
HETATM    4  N3  UNL     1      21.855  -1.306  55.070  1.00  0.00    -0.215 NA
HETATM    5  C7  UNL     1      21.655  -0.578  53.937  1.00  0.00     0.202 A 
HETATM    6  C8  UNL     1      22.700  -0.026  53.233  1.00  0.00     0.129 A 
HETATM    7  N4  UNL     1      22.704   0.746  52.057  1.00  0.00    -0.379 N 
HETATM    8  C9  UNL     1      21.742   0.775  51.001  1.00  0.00     0.161 C 
HETATM    9  C10 UNL     1      20.375   0.421  51.350  1.00  0.00    -0.007 A 
HETATM   10  C11 UNL     1      19.590   0.729  50.247  1.00  0.00     0.011 A 
HETATM   11  C12 UNL     1      18.226   0.513  50.245  1.00  0.00     0.001 A 
HETATM   12  C13 UNL     1      17.567  -0.024  51.342  1.00  0.00     0.003 A 
HETATM   13  C14 UNL     1      18.337  -0.342  52.465  1.00  0.00     0.038 A 
HETATM   14  C15 UNL     1      19.698  -0.112  52.429  1.00  0.00     0.086 A 
HETATM   15  O1  UNL     1      20.312  -0.481  53.618  1.00  0.00    -0.289 OA
HETATM   16  H5  UNL     1      23.534   1.378  51.963  1.00  0.00     0.160 HD
ENDROOT
BRANCH   1  17
HETATM   17  N1  UNL     1      25.092   0.312  53.028  1.00  0.00    -0.339 N 
HETATM   18  H3  UNL     1      24.749   0.968  52.294  1.00  0.00     0.167 HD
BRANCH  17  19
HETATM   19  C4  UNL     1      26.481   0.082  53.212  1.00  0.00     0.035 A 
HETATM   20  C3  UNL     1      27.017  -1.134  52.837  1.00  0.00     0.032 A 
HETATM   21  C2  UNL     1      28.369  -1.334  53.028  1.00  0.00     0.046 A 
HETATM   22  C1  UNL     1      29.143  -0.329  53.579  1.00  0.00     0.138 A 
HETATM   23  F1  UNL     1      30.469  -0.600  53.735  1.00  0.00    -0.204 F 
HETATM   24  C17 UNL     1      28.627   0.899  53.961  1.00  0.00     0.074 A 
HETATM   25  C16 UNL     1      27.274   1.064  53.757  1.00  0.00     0.056 A 
HETATM   26 CL1  UNL     1      29.659   2.130  54.654  1.00  0.00    -0.081 Cl
ENDBRANCH  17  19
ENDBRANCH   1  17
TORSDOF 2
ENDMDL
MODEL 2
REMARK VINA RESULT:      -9.1      1.994      3.245
REMARK  2 active torsions:
REMARK  status: ('A' for Active; 'I' for Inactive)
REMARK    1  A    between atoms: C4_5  and  N1_6 
REMARK    2  A    between atoms: N1_6  and  C5_7 
ROOT
HETATM    1  C5  UNL     1      24.951   1.848  52.360  1.00  0.00     0.160 A 
HETATM    2  N2  UNL     1      25.426   2.713  51.444  1.00  0.00    -0.222 NA
HETATM    3  C6  UNL     1      24.655   3.024  50.370  1.00  0.00     0.238 A 
HETATM    4  N3  UNL     1      23.415   2.483  50.195  1.00  0.00    -0.215 NA
HETATM    5  C7  UNL     1      22.947   1.610  51.129  1.00  0.00     0.202 A 
HETATM    6  C8  UNL     1      23.688   1.261  52.235  1.00  0.00     0.129 A 
HETATM    7  N4  UNL     1      23.389   0.392  53.299  1.00  0.00    -0.379 N 
HETATM    8  C9  UNL     1      22.111   0.010  53.812  1.00  0.00     0.161 C 
HETATM    9  C10 UNL     1      20.993   0.049  52.882  1.00  0.00    -0.007 A 
HETATM   10  C11 UNL     1      19.922  -0.563  53.520  1.00  0.00     0.011 A 
HETATM   11  C12 UNL     1      18.692  -0.694  52.907  1.00  0.00     0.001 A 
HETATM   12  C13 UNL     1      18.458  -0.222  51.623  1.00  0.00     0.003 A 
HETATM   13  C14 UNL     1      19.522   0.398  50.961  1.00  0.00     0.038 A 
HETATM   14  C15 UNL     1      20.737   0.511  51.606  1.00  0.00     0.086 A 
HETATM   15  O1  UNL     1      21.682   1.148  50.814  1.00  0.00    -0.289 OA
HETATM   16  H5  UNL     1      24.231  -0.022  53.765  1.00  0.00     0.160 HD
ENDROOT
BRANCH   1  17
HETATM   17  N1  UNL     1      25.744   1.507  53.496  1.00  0.00    -0.339 N 
HETATM   18  H3  UNL     1      25.256   1.799  54.370  1.00  0.00     0.167 HD
BRANCH  17  19
HETATM   19  C4  UNL     1      27.012   0.870  53.543  1.00  0.00     0.035 A 
HETATM   20  C3  UNL     1      28.130   1.618  53.855  1.00  0.00     0.032 A 
HETATM   21  C2  UNL     1      29.350   0.975  53.894  1.00  0.00     0.046 A 
HETATM   22  C1  UNL     1      29.425  -0.380  53.624  1.00  0.00     0.138 A 
HETATM   23  F1  UNL     1      30.664  -0.943  53.682  1.00  0.00    -0.204 F 
HETATM   24  C17 UNL     1      28.317  -1.150  53.310  1.00  0.00     0.074 A 
HETATM   25  C16 UNL     1      27.115  -0.476  53.280  1.00  0.00     0.056 A 
HETATM   26 CL1  UNL     1      28.477  -2.860  52.978  1.00  0.00    -0.081 Cl
ENDBRANCH  17  19
ENDBRANCH   1  17
TORSDOF 2
ENDMDL
MODEL 3
REMARK VINA RESULT:      -8.8      4.763      5.789
REMARK  2 active torsions:
REMARK  status: ('A' for Active; 'I' for Inactive)
REMARK    1  A    between atoms: C4_5  and  N1_6 
REMARK    2  A    between atoms: N1_6  and  C5_7 
ROOT
HETATM    1  C5  UNL     1      25.896   2.494  51.181  1.00  0.00     0.160 A 
HETATM    2  N2  UNL     1      27.185   2.389  51.558  1.00  0.00    -0.222 NA
HETATM    3  C6  UNL     1      27.494   1.636  52.646  1.00  0.00     0.238 A 
HETATM    4  N3  UNL     1      26.535   0.986  53.365  1.00  0.00    -0.215 NA
HETATM    5  C7  UNL     1      25.236   1.101  52.974  1.00  0.00     0.202 A 
HETATM    6  C8  UNL     1      24.870   1.852  51.880  1.00  0.00     0.129 A 
HETATM    7  N4  UNL     1      23.602   2.093  51.318  1.00  0.00    -0.379 N 
HETATM    8  C9  UNL     1      22.425   1.285  51.384  1.00  0.00     0.161 C 
HETATM    9  C10 UNL     1      22.291   0.415  52.542  1.00  0.00    -0.007 A 
HETATM   10  C11 UNL     1      21.000  -0.094  52.510  1.00  0.00     0.011 A 
HETATM   11  C12 UNL     1      20.540  -0.965  53.478  1.00  0.00     0.001 A 
HETATM   12  C13 UNL     1      21.342  -1.379  54.532  1.00  0.00     0.003 A 
HETATM   13  C14 UNL     1      22.646  -0.880  54.585  1.00  0.00     0.038 A 
HETATM   14  C15 UNL     1      23.070  -0.011  53.600  1.00  0.00     0.086 A 
HETATM   15  O1  UNL     1      24.384   0.390  53.799  1.00  0.00    -0.289 OA
HETATM   16  H5  UNL     1      23.533   2.991  50.785  1.00  0.00     0.160 HD
ENDROOT
BRANCH   1  17
HETATM   17  N1  UNL     1      25.550   3.280  50.043  1.00  0.00    -0.339 N 
HETATM   18  H3  UNL     1      24.814   2.794  49.486  1.00  0.00     0.167 HD
BRANCH  17  19
HETATM   19  C4  UNL     1      26.062   4.540  49.635  1.00  0.00     0.035 A 
HETATM   20  C3  UNL     1      27.196   4.582  48.847  1.00  0.00     0.032 A 
HETATM   21  C2  UNL     1      27.674   5.819  48.465  1.00  0.00     0.046 A 
HETATM   22  C1  UNL     1      27.020   6.967  48.872  1.00  0.00     0.138 A 
HETATM   23  F1  UNL     1      27.552   8.150  48.455  1.00  0.00    -0.204 F 
HETATM   24  C17 UNL     1      25.881   6.949  49.661  1.00  0.00     0.074 A 
HETATM   25  C16 UNL     1      25.431   5.697  50.025  1.00  0.00     0.056 A 
HETATM   26 CL1  UNL     1      25.099   8.437  50.144  1.00  0.00    -0.081 Cl
ENDBRANCH  17  19
ENDBRANCH   1  17
TORSDOF 2
ENDMDL
MODEL 4
REMARK VINA RESULT:      -8.8      5.294      7.501
REMARK  2 active torsions:
REMARK  status: ('A' for Active; 'I' for Inactive)
REMARK    1  A    between atoms: C4_5  and  N1_6 
REMARK    2  A    between atoms: N1_6  and  C5_7 
ROOT
HETATM    1  C5  UNL     1      23.021   2.989  51.216  1.00  0.00     0.160 A 
HETATM    2  N2  UNL     1      21.843   3.519  51.599  1.00  0.00    -0.222 NA
HETATM    3  C6  UNL     1      21.684   4.867  51.563  1.00  0.00     0.238 A 
HETATM    4  N3  UNL     1      22.684   5.696  51.150  1.00  0.00    -0.215 NA
HETATM    5  C7  UNL     1      23.870   5.149  50.766  1.00  0.00     0.202 A 
HETATM    6  C8  UNL     1      24.082   3.789  50.784  1.00  0.00     0.129 A 
HETATM    7  N4  UNL     1      25.216   3.036  50.431  1.00  0.00    -0.379 N 
HETATM    8  C9  UNL     1      26.264   3.368  49.518  1.00  0.00     0.161 C 
HETATM    9  C10 UNL     1      26.534   4.784  49.317  1.00  0.00    -0.007 A 
HETATM   10  C11 UNL     1      27.709   4.865  48.583  1.00  0.00     0.011 A 
HETATM   11  C12 UNL     1      28.253   6.081  48.216  1.00  0.00     0.001 A 
HETATM   12  C13 UNL     1      27.653   7.285  48.560  1.00  0.00     0.003 A 
HETATM   13  C14 UNL     1      26.468   7.228  49.299  1.00  0.00     0.038 A 
HETATM   14  C15 UNL     1      25.956   5.994  49.647  1.00  0.00     0.086 A 
HETATM   15  O1  UNL     1      24.781   6.113  50.377  1.00  0.00    -0.289 OA
HETATM   16  H5  UNL     1      25.284   2.109  50.914  1.00  0.00     0.160 HD
ENDROOT
BRANCH   1  17
HETATM   17  N1  UNL     1      23.209   1.576  51.247  1.00  0.00    -0.339 N 
HETATM   18  H3  UNL     1      23.384   1.219  50.283  1.00  0.00     0.167 HD
BRANCH  17  19
HETATM   19  C4  UNL     1      23.183   0.693  52.360  1.00  0.00     0.035 A 
HETATM   20  C3  UNL     1      24.338   0.497  53.090  1.00  0.00     0.032 A 
HETATM   21  C2  UNL     1      24.287  -0.366  54.165  1.00  0.00     0.046 A 
HETATM   22  C1  UNL     1      23.101  -1.003  54.483  1.00  0.00     0.138 A 
HETATM   23  F1  UNL     1      23.129  -1.839  55.558  1.00  0.00    -0.204 F 
HETATM   24  C17 UNL     1      21.930  -0.820  53.765  1.00  0.00     0.074 A 
HETATM   25  C16 UNL     1      22.017   0.048  52.697  1.00  0.00     0.056 A 
HETATM   26 CL1  UNL     1      20.461  -1.656  54.216  1.00  0.00    -0.081 Cl
ENDBRANCH  17  19
ENDBRANCH   1  17
TORSDOF 2
ENDMDL
MODEL 5
REMARK VINA RESULT:      -8.7      4.360      7.662
REMARK  2 active torsions:
REMARK  status: ('A' for Active; 'I' for Inactive)
REMARK    1  A    between atoms: C4_5  and  N1_6 
REMARK    2  A    between atoms: N1_6  and  C5_7 
ROOT
HETATM    1  C5  UNL     1      23.986   2.260  53.007  1.00  0.00     0.160 A 
HETATM    2  N2  UNL     1      22.786   1.654  53.085  1.00  0.00    -0.222 NA
HETATM    3  C6  UNL     1      22.734   0.297  53.108  1.00  0.00     0.238 A 
HETATM    4  N3  UNL     1      23.863  -0.466  53.055  1.00  0.00    -0.215 NA
HETATM    5  C7  UNL     1      25.070   0.160  52.976  1.00  0.00     0.202 A 
HETATM    6  C8  UNL     1      25.178   1.531  52.949  1.00  0.00     0.129 A 
HETATM    7  N4  UNL     1      26.313   2.358  52.873  1.00  0.00    -0.379 N 
HETATM    8  C9  UNL     1      27.652   2.082  53.287  1.00  0.00     0.161 C 
HETATM    9  C10 UNL     1      28.062   0.686  53.291  1.00  0.00    -0.007 A 
HETATM   10  C11 UNL     1      29.434   0.674  53.505  1.00  0.00     0.011 A 
HETATM   11  C12 UNL     1      30.148  -0.506  53.566  1.00  0.00     0.001 A 
HETATM   12  C13 UNL     1      29.534  -1.743  53.419  1.00  0.00     0.003 A 
HETATM   13  C14 UNL     1      28.153  -1.756  53.203  1.00  0.00     0.038 A 
HETATM   14  C15 UNL     1      27.473  -0.555  53.148  1.00  0.00     0.086 A 
HETATM   15  O1  UNL     1      26.116  -0.743  52.928  1.00  0.00    -0.289 OA
HETATM   16  H5  UNL     1      26.130   3.300  52.452  1.00  0.00     0.160 HD
ENDROOT
BRANCH   1  17
HETATM   17  N1  UNL     1      24.063   3.684  52.981  1.00  0.00    -0.339 N 
HETATM   18  H3  UNL     1      24.563   4.028  53.829  1.00  0.00     0.167 HD
BRANCH  17  19
HETATM   19  C4  UNL     1      23.572   4.589  52.003  1.00  0.00     0.035 A 
HETATM   20  C3  UNL     1      22.303   5.115  52.149  1.00  0.00     0.032 A 
HETATM   21  C2  UNL     1      21.849   5.991  51.185  1.00  0.00     0.046 A 
HETATM   22  C1  UNL     1      22.660   6.318  50.114  1.00  0.00     0.138 A 
HETATM   23  F1  UNL     1      22.141   7.190  49.204  1.00  0.00    -0.204 F 
HETATM   24  C17 UNL     1      23.935   5.805  49.947  1.00  0.00     0.074 A 
HETATM   25  C16 UNL     1      24.357   4.932  50.928  1.00  0.00     0.056 A 
HETATM   26 CL1  UNL     1      24.912   6.257  48.569  1.00  0.00    -0.081 Cl
ENDBRANCH  17  19
ENDBRANCH   1  17
TORSDOF 2
ENDMDL
MODEL 6
REMARK VINA RESULT:      -8.7      4.992      7.287
REMARK  2 active torsions:
REMARK  status: ('A' for Active; 'I' for Inactive)
REMARK    1  A    between atoms: C4_5  and  N1_6 
REMARK    2  A    between atoms: N1_6  and  C5_7 
ROOT
HETATM    1  C5  UNL     1      22.900   3.062  51.223  1.00  0.00     0.160 A 
HETATM    2  N2  UNL     1      21.741   3.625  51.616  1.00  0.00    -0.222 NA
HETATM    3  C6  UNL     1      21.628   4.979  51.600  1.00  0.00     0.238 A 
HETATM    4  N3  UNL     1      22.655   5.780  51.197  1.00  0.00    -0.215 NA
HETATM    5  C7  UNL     1      23.820   5.198  50.802  1.00  0.00     0.202 A 
HETATM    6  C8  UNL     1      23.987   3.832  50.800  1.00  0.00     0.129 A 
HETATM    7  N4  UNL     1      25.094   3.046  50.432  1.00  0.00    -0.379 N 
HETATM    8  C9  UNL     1      26.151   3.356  49.521  1.00  0.00     0.161 C 
HETATM    9  C10 UNL     1      26.467   4.765  49.341  1.00  0.00    -0.007 A 
HETATM   10  C11 UNL     1      27.643   4.817  48.604  1.00  0.00     0.011 A 
HETATM   11  C12 UNL     1      28.227   6.019  48.254  1.00  0.00     0.001 A 
HETATM   12  C13 UNL     1      27.669   7.237  48.617  1.00  0.00     0.003 A 
HETATM   13  C14 UNL     1      26.485   7.209  49.359  1.00  0.00     0.038 A 
HETATM   14  C15 UNL     1      25.932   5.988  49.690  1.00  0.00     0.086 A 
HETATM   15  O1  UNL     1      24.763   6.137  50.424  1.00  0.00    -0.289 OA
HETATM   16  H5  UNL     1      25.131   2.110  50.901  1.00  0.00     0.160 HD
ENDROOT
BRANCH   1  17
HETATM   17  N1  UNL     1      23.040   1.642  51.232  1.00  0.00    -0.339 N 
HETATM   18  H3  UNL     1      23.171   1.292  50.259  1.00  0.00     0.167 HD
BRANCH  17  19
HETATM   19  C4  UNL     1      23.019   0.748  52.335  1.00  0.00     0.035 A 
HETATM   20  C3  UNL     1      21.840   0.107  52.660  1.00  0.00     0.032 A 
HETATM   21  C2  UNL     1      21.846  -0.755  53.737  1.00  0.00     0.046 A 
HETATM   22  C1  UNL     1      23.012  -0.956  54.453  1.00  0.00     0.138 A 
HETATM   23  F1  UNL     1      22.939  -1.822  55.502  1.00  0.00    -0.204 F 
HETATM   24  C17 UNL     1      24.206  -0.325  54.145  1.00  0.00     0.074 A 
HETATM   25  C16 UNL     1      24.164   0.530  53.064  1.00  0.00     0.056 A 
HETATM   26 CL1  UNL     1      25.648  -0.620  55.091  1.00  0.00    -0.081 Cl
ENDBRANCH  17  19
ENDBRANCH   1  17
TORSDOF 2
ENDMDL
MODEL 7
REMARK VINA RESULT:      -8.7      5.142      7.435
REMARK  2 active torsions:
REMARK  status: ('A' for Active; 'I' for Inactive)
REMARK    1  A    between atoms: C4_5  and  N1_6 
REMARK    2  A    between atoms: N1_6  and  C5_7 
ROOT
HETATM    1  C5  UNL     1      24.421   1.215  52.688  1.00  0.00     0.160 A 
HETATM    2  N2  UNL     1      25.161   0.151  53.055  1.00  0.00    -0.222 NA
HETATM    3  C6  UNL     1      26.374  -0.039  52.474  1.00  0.00     0.238 A 
HETATM    4  N3  UNL     1      26.861   0.817  51.532  1.00  0.00    -0.215 NA
HETATM    5  C7  UNL     1      26.104   1.889  51.170  1.00  0.00     0.202 A 
HETATM    6  C8  UNL     1      24.868   2.127  51.727  1.00  0.00     0.129 A 
HETATM    7  N4  UNL     1      23.944   3.162  51.495  1.00  0.00    -0.379 N 
HETATM    8  C9  UNL     1      24.185   4.488  51.019  1.00  0.00     0.161 C 
HETATM    9  C10 UNL     1      25.358   4.681  50.181  1.00  0.00    -0.007 A 
HETATM   10  C11 UNL     1      25.270   5.966  49.662  1.00  0.00     0.011 A 
HETATM   11  C12 UNL     1      26.235   6.474  48.816  1.00  0.00     0.001 A 
HETATM   12  C13 UNL     1      27.345   5.729  48.439  1.00  0.00     0.003 A 
HETATM   13  C14 UNL     1      27.455   4.433  48.949  1.00  0.00     0.038 A 
HETATM   14  C15 UNL     1      26.469   3.960  49.793  1.00  0.00     0.086 A 
HETATM   15  O1  UNL     1      26.729   2.661  50.207  1.00  0.00    -0.289 OA
HETATM   16  H5  UNL     1      22.951   2.905  51.704  1.00  0.00     0.160 HD
ENDROOT
BRANCH   1  17
HETATM   17  N1  UNL     1      23.145   1.434  53.285  1.00  0.00    -0.339 N 
HETATM   18  H3  UNL     1      23.083   2.411  53.644  1.00  0.00     0.167 HD
BRANCH  17  19
HETATM   19  C4  UNL     1      22.055   0.534  53.423  1.00  0.00     0.035 A 
HETATM   20  C3  UNL     1      22.141  -0.491  54.345  1.00  0.00     0.032 A 
HETATM   21  C2  UNL     1      21.069  -1.352  54.458  1.00  0.00     0.046 A 
HETATM   22  C1  UNL     1      19.953  -1.173  53.661  1.00  0.00     0.138 A 
HETATM   23  F1  UNL     1      18.936  -2.064  53.831  1.00  0.00    -0.204 F 
HETATM   24  C17 UNL     1      19.844  -0.152  52.730  1.00  0.00     0.074 A 
HETATM   25  C16 UNL     1      20.933   0.689  52.643  1.00  0.00     0.056 A 
HETATM   26 CL1  UNL     1      18.406   0.021  51.751  1.00  0.00    -0.081 Cl
ENDBRANCH  17  19
ENDBRANCH   1  17
TORSDOF 2
ENDMDL
MODEL 8
REMARK VINA RESULT:      -8.3      6.131      8.233
REMARK  2 active torsions:
REMARK  status: ('A' for Active; 'I' for Inactive)
REMARK    1  A    between atoms: C4_5  and  N1_6 
REMARK    2  A    between atoms: N1_6  and  C5_7 
ROOT
HETATM    1  C5  UNL     1      24.611   4.222  50.571  1.00  0.00     0.160 A 
HETATM    2  N2  UNL     1      23.462   4.656  51.124  1.00  0.00    -0.222 NA
HETATM    3  C6  UNL     1      23.247   5.993  51.233  1.00  0.00     0.238 A 
HETATM    4  N3  UNL     1      24.162   6.905  50.799  1.00  0.00    -0.215 NA
HETATM    5  C7  UNL     1      25.320   6.453  50.242  1.00  0.00     0.202 A 
HETATM    6  C8  UNL     1      25.587   5.110  50.108  1.00  0.00     0.129 A 
HETATM    7  N4  UNL     1      26.704   4.449  49.567  1.00  0.00    -0.379 N 
HETATM    8  C9  UNL     1      27.632   4.914  48.585  1.00  0.00     0.161 C 
HETATM    9  C10 UNL     1      27.822   6.354  48.493  1.00  0.00    -0.007 A 
HETATM   10  C11 UNL     1      28.906   6.560  47.651  1.00  0.00     0.011 A 
HETATM   11  C12 UNL     1      29.358   7.829  47.347  1.00  0.00     0.001 A 
HETATM   12  C13 UNL     1      28.752   8.966  47.864  1.00  0.00     0.003 A 
HETATM   13  C14 UNL     1      27.658   8.783  48.715  1.00  0.00     0.038 A 
HETATM   14  C15 UNL     1      27.236   7.499  48.996  1.00  0.00     0.086 A 
HETATM   15  O1  UNL     1      26.144   7.493  49.853  1.00  0.00    -0.289 OA
HETATM   16  H5  UNL     1      26.860   3.487  49.950  1.00  0.00     0.160 HD
ENDROOT
BRANCH   1  17
HETATM   17  N1  UNL     1      24.857   2.823  50.447  1.00  0.00    -0.339 N 
HETATM   18  H3  UNL     1      24.899   2.558  49.440  1.00  0.00     0.167 HD
BRANCH  17  19
HETATM   19  C4  UNL     1      25.033   1.851  51.468  1.00  0.00     0.035 A 
HETATM   20  C3  UNL     1      23.923   1.340  52.109  1.00  0.00     0.032 A 
HETATM   21  C2  UNL     1      24.121   0.398  53.098  1.00  0.00     0.046 A 
HETATM   22  C1  UNL     1      25.405  -0.006  53.418  1.00  0.00     0.138 A 
HETATM   23  F1  UNL     1      25.519  -0.939  54.404  1.00  0.00    -0.204 F 
HETATM   24  C17 UNL     1      26.533   0.492  52.787  1.00  0.00     0.074 A 
HETATM   25  C16 UNL     1      26.298   1.432  51.805  1.00  0.00     0.056 A 
HETATM   26 CL1  UNL     1      28.131  -0.059  53.238  1.00  0.00    -0.081 Cl
ENDBRANCH  17  19
ENDBRANCH   1  17
TORSDOF 2
ENDMDL
MODEL 9
REMARK VINA RESULT:      -8.1      4.506      6.325
REMARK  2 active torsions:
REMARK  status: ('A' for Active; 'I' for Inactive)
REMARK    1  A    between atoms: C4_5  and  N1_6 
REMARK    2  A    between atoms: N1_6  and  C5_7 
ROOT
HETATM    1  C5  UNL     1      21.227   3.922  50.427  1.00  0.00     0.160 A 
HETATM    2  N2  UNL     1      20.057   4.587  50.481  1.00  0.00    -0.222 NA
HETATM    3  C6  UNL     1      19.093   4.155  51.334  1.00  0.00     0.238 A 
HETATM    4  N3  UNL     1      19.278   3.067  52.135  1.00  0.00    -0.215 NA
HETATM    5  C7  UNL     1      20.465   2.404  52.071  1.00  0.00     0.202 A 
HETATM    6  C8  UNL     1      21.474   2.799  51.224  1.00  0.00     0.129 A 
HETATM    7  N4  UNL     1      22.755   2.259  51.012  1.00  0.00    -0.379 N 
HETATM    8  C9  UNL     1      23.563   1.491  51.906  1.00  0.00     0.161 C 
HETATM    9  C10 UNL     1      22.864   0.714  52.917  1.00  0.00    -0.007 A 
HETATM   10  C11 UNL     1      23.811  -0.108  53.514  1.00  0.00     0.011 A 
HETATM   11  C12 UNL     1      23.476  -0.985  54.526  1.00  0.00     0.001 A 
HETATM   12  C13 UNL     1      22.177  -1.091  55.004  1.00  0.00     0.003 A 
HETATM   13  C14 UNL     1      21.206  -0.274  54.419  1.00  0.00     0.038 A 
HETATM   14  C15 UNL     1      21.579   0.590  53.408  1.00  0.00     0.086 A 
HETATM   15  O1  UNL     1      20.501   1.327  52.938  1.00  0.00    -0.289 OA
HETATM   16  H5  UNL     1      23.153   2.457  50.063  1.00  0.00     0.160 HD
ENDROOT
BRANCH   1  17
HETATM   17  N1  UNL     1      22.254   4.358  49.538  1.00  0.00    -0.339 N 
HETATM   18  H3  UNL     1      22.115   3.930  48.598  1.00  0.00     0.167 HD
BRANCH  17  19
HETATM   19  C4  UNL     1      23.342   5.236  49.789  1.00  0.00     0.035 A 
HETATM   20  C3  UNL     1      23.162   6.303  50.646  1.00  0.00     0.032 A 
HETATM   21  C2  UNL     1      24.234   7.142  50.872  1.00  0.00     0.046 A 
HETATM   22  C1  UNL     1      25.444   6.898  50.247  1.00  0.00     0.138 A 
HETATM   23  F1  UNL     1      26.455   7.769  50.521  1.00  0.00    -0.204 F 
HETATM   24  C17 UNL     1      25.648   5.833  49.385  1.00  0.00     0.074 A 
HETATM   25  C16 UNL     1      24.555   5.016  49.182  1.00  0.00     0.056 A 
HETATM   26 CL1  UNL     1      27.202   5.578  48.625  1.00  0.00    -0.081 Cl
ENDBRANCH  17  19
ENDBRANCH   1  17
TORSDOF 2
ENDMDL
