MODEL 1
REMARK VINA RESULT:      -7.2      0.000      0.000
REMARK  9 active torsions:
REMARK  status: ('A' for Active; 'I' for Inactive)
REMARK    1  A    between atoms: C2_2  and  C3_3 
REMARK    2  A    between atoms: C3_3  and  C4_4 
REMARK    3  A    between atoms: C4_4  and  C5_5 
REMARK    4  A    between atoms: C5_5  and  C6_6 
REMARK    5  A    between atoms: C6_6  and  N1_7 
REMARK    6  A    between atoms: N1_7  and  C7_8 
REMARK    7  A    between atoms: C10_12  and  N3_13 
REMARK    8  A    between atoms: N3_13  and  C11_14 
REMARK    9  A    between atoms: C16_19  and  O1_20 
ROOT
HETATM    1  C7  UNL     1      27.388   1.846  52.797  1.00  0.00     0.147 A 
HETATM    2  C8  UNL     1      28.290   1.270  53.631  1.00  0.00     0.071 A 
HETATM    3  C9  UNL     1      28.043   0.245  54.495  1.00  0.00     0.140 A 
HETATM    4  N2  UNL     1      26.784  -0.301  54.577  1.00  0.00    -0.075 NA
HETATM    5  C10 UNL     1      25.831   0.256  53.740  1.00  0.00     0.728 A 
HETATM    6  N4  UNL     1      26.173   1.297  52.890  1.00  0.00    -0.045 NA
ENDROOT
BRANCH   5   7
HETATM    7  N3  UNL     1      24.492  -0.047  53.730  1.00  0.00    -0.185 N 
HETATM    8  H13 UNL     1      24.782  -1.008  54.117  1.00  0.00     0.184 HD
BRANCH   7   9
HETATM    9  C11 UNL     1      23.138  -0.335  53.720  1.00  0.00     0.082 A 
HETATM   10  C12 UNL     1      22.629  -1.171  54.712  1.00  0.00     0.033 A 
HETATM   11  C13 UNL     1      21.277  -1.390  54.638  1.00  0.00     0.002 A 
HETATM   12  C14 UNL     1      20.526  -0.827  53.656  1.00  0.00     0.003 A 
HETATM   13  C15 UNL     1      20.951  -0.007  52.645  1.00  0.00     0.039 A 
HETATM   14  C16 UNL     1      22.329   0.236  52.708  1.00  0.00     0.095 A 
BRANCH  14  15
HETATM   15  O1  UNL     1      23.025   0.998  51.868  1.00  0.00    -0.354 OA
HETATM   16  C17 UNL     1      22.673   1.518  50.664  1.00  0.00     0.210 C 
ENDBRANCH  14  15
ENDBRANCH   7   9
ENDBRANCH   5   7
BRANCH   1  17
HETATM   17  N1  UNL     1      27.234   2.854  51.807  1.00  0.00    -0.350 N 
HETATM   18  H10 UNL     1      27.847   3.708  51.576  1.00  0.00     0.166 HD
BRANCH  17  19
HETATM   19  C6  UNL     1      26.076   2.856  50.947  1.00  0.00     0.089 C 
BRANCH  19  20
HETATM   20  C5  UNL     1      26.453   3.132  49.729  1.00  0.00     0.017 C 
BRANCH  20  21
HETATM   21  C4  UNL     1      26.825   4.409  49.179  1.00  0.00    -0.003 C 
BRANCH  21  22
HETATM   22  C3  UNL     1      27.831   4.956  48.571  1.00  0.00    -0.027 C 
BRANCH  22  23
HETATM   23  C2  UNL     1      28.847   5.896  48.161  1.00  0.00     0.022 C 
HETATM   24  C1  UNL     1      28.211   7.207  47.645  1.00  0.00     0.009 C 
ENDBRANCH  22  23
ENDBRANCH  21  22
ENDBRANCH  20  21
ENDBRANCH  19  20
ENDBRANCH  17  19
ENDBRANCH   1  17
TORSDOF 9
ENDMDL
MODEL 2
REMARK VINA RESULT:      -6.9      2.067      4.724
REMARK  9 active torsions:
REMARK  status: ('A' for Active; 'I' for Inactive)
REMARK    1  A    between atoms: C2_2  and  C3_3 
REMARK    2  A    between atoms: C3_3  and  C4_4 
REMARK    3  A    between atoms: C4_4  and  C5_5 
REMARK    4  A    between atoms: C5_5  and  C6_6 
REMARK    5  A    between atoms: C6_6  and  N1_7 
REMARK    6  A    between atoms: N1_7  and  C7_8 
REMARK    7  A    between atoms: C10_12  and  N3_13 
REMARK    8  A    between atoms: N3_13  and  C11_14 
REMARK    9  A    between atoms: C16_19  and  O1_20 
ROOT
HETATM    1  C7  UNL     1      23.458   1.906  51.861  1.00  0.00     0.147 A 
HETATM    2  C8  UNL     1      22.362   1.378  52.461  1.00  0.00     0.071 A 
HETATM    3  C9  UNL     1      22.350   0.319  53.320  1.00  0.00     0.140 A 
HETATM    4  N2  UNL     1      23.523  -0.317  53.649  1.00  0.00    -0.075 NA
HETATM    5  C10 UNL     1      24.670   0.191  53.059  1.00  0.00     0.728 A 
HETATM    6  N4  UNL     1      24.587   1.275  52.198  1.00  0.00    -0.045 NA
ENDROOT
BRANCH   5   7
HETATM    7  N3  UNL     1      25.929  -0.348  53.149  1.00  0.00    -0.185 N 
HETATM    8  H13 UNL     1      25.460  -1.170  53.661  1.00  0.00     0.184 HD
BRANCH   7   9
HETATM    9  C11 UNL     1      27.203  -0.882  53.226  1.00  0.00     0.082 A 
HETATM   10  C12 UNL     1      27.394  -2.206  52.837  1.00  0.00     0.033 A 
HETATM   11  C13 UNL     1      28.689  -2.649  52.928  1.00  0.00     0.002 A 
HETATM   12  C14 UNL     1      29.681  -1.835  53.375  1.00  0.00     0.003 A 
HETATM   13  C15 UNL     1      29.573  -0.533  53.783  1.00  0.00     0.039 A 
HETATM   14  C16 UNL     1      28.259  -0.059  53.688  1.00  0.00     0.095 A 
BRANCH  14  15
HETATM   15  O1  UNL     1      27.847   1.167  54.005  1.00  0.00    -0.354 OA
HETATM   16  C17 UNL     1      28.261   2.374  53.542  1.00  0.00     0.210 C 
ENDBRANCH  14  15
ENDBRANCH   7   9
ENDBRANCH   5   7
BRANCH   1  17
HETATM   17  N1  UNL     1      23.888   2.928  50.972  1.00  0.00    -0.350 N 
HETATM   18  H10 UNL     1      23.340   3.730  50.509  1.00  0.00     0.166 HD
BRANCH  17  19
HETATM   19  C6  UNL     1      25.255   2.962  50.512  1.00  0.00     0.089 C 
BRANCH  19  20
HETATM   20  C5  UNL     1      25.331   3.735  49.464  1.00  0.00     0.017 C 
BRANCH  20  21
HETATM   21  C4  UNL     1      26.140   4.911  49.280  1.00  0.00    -0.003 C 
BRANCH  21  22
HETATM   22  C3  UNL     1      27.240   5.259  48.689  1.00  0.00    -0.027 C 
BRANCH  22  23
HETATM   23  C2  UNL     1      28.636   5.404  48.353  1.00  0.00     0.022 C 
HETATM   24  C1  UNL     1      28.888   6.731  47.602  1.00  0.00     0.009 C 
ENDBRANCH  22  23
ENDBRANCH  21  22
ENDBRANCH  20  21
ENDBRANCH  19  20
ENDBRANCH  17  19
ENDBRANCH   1  17
TORSDOF 9
ENDMDL
MODEL 3
REMARK VINA RESULT:      -6.8      2.019      5.240
REMARK  9 active torsions:
REMARK  status: ('A' for Active; 'I' for Inactive)
REMARK    1  A    between atoms: C2_2  and  C3_3 
REMARK    2  A    between atoms: C3_3  and  C4_4 
REMARK    3  A    between atoms: C4_4  and  C5_5 
REMARK    4  A    between atoms: C5_5  and  C6_6 
REMARK    5  A    between atoms: C6_6  and  N1_7 
REMARK    6  A    between atoms: N1_7  and  C7_8 
REMARK    7  A    between atoms: C10_12  and  N3_13 
REMARK    8  A    between atoms: N3_13  and  C11_14 
REMARK    9  A    between atoms: C16_19  and  O1_20 
ROOT
HETATM    1  C7  UNL     1      22.241   0.979  51.803  1.00  0.00     0.147 A 
HETATM    2  C8  UNL     1      21.591  -0.025  52.443  1.00  0.00     0.071 A 
HETATM    3  C9  UNL     1      22.121  -0.848  53.391  1.00  0.00     0.140 A 
HETATM    4  N2  UNL     1      23.432  -0.701  53.779  1.00  0.00    -0.075 NA
HETATM    5  C10 UNL     1      24.135   0.315  53.152  1.00  0.00     0.728 A 
HETATM    6  N4  UNL     1      23.511   1.107  52.198  1.00  0.00    -0.045 NA
ENDROOT
BRANCH   5   7
HETATM    7  N3  UNL     1      25.475   0.574  53.293  1.00  0.00    -0.185 N 
HETATM    8  H13 UNL     1      25.303   1.423  52.655  1.00  0.00     0.184 HD
BRANCH   7   9
HETATM    9  C11 UNL     1      26.827   0.826  53.450  1.00  0.00     0.082 A 
HETATM   10  C12 UNL     1      27.250   2.151  53.540  1.00  0.00     0.033 A 
HETATM   11  C13 UNL     1      28.602   2.309  53.712  1.00  0.00     0.002 A 
HETATM   12  C14 UNL     1      29.433   1.238  53.777  1.00  0.00     0.003 A 
HETATM   13  C15 UNL     1      29.098  -0.087  53.688  1.00  0.00     0.039 A 
HETATM   14  C16 UNL     1      27.719  -0.271  53.521  1.00  0.00     0.095 A 
BRANCH  14  15
HETATM   15  O1  UNL     1      27.097  -1.442  53.412  1.00  0.00    -0.354 OA
HETATM   16  C17 UNL     1      27.349  -2.492  52.590  1.00  0.00     0.210 C 
ENDBRANCH  14  15
ENDBRANCH   7   9
ENDBRANCH   5   7
BRANCH   1  17
HETATM   17  N1  UNL     1      22.079   2.002  50.830  1.00  0.00    -0.350 N 
HETATM   18  H10 UNL     1      21.853   3.048  50.945  1.00  0.00     0.166 HD
BRANCH  17  19
HETATM   19  C6  UNL     1      22.164   1.688  49.425  1.00  0.00     0.089 C 
BRANCH  19  20
HETATM   20  C5  UNL     1      22.913   2.578  48.835  1.00  0.00     0.017 C 
BRANCH  20  21
HETATM   21  C4  UNL     1      23.958   3.384  49.409  1.00  0.00    -0.003 C 
BRANCH  21  22
HETATM   22  C3  UNL     1      25.253   3.396  49.488  1.00  0.00    -0.027 C 
BRANCH  22  23
HETATM   23  C2  UNL     1      26.606   3.732  49.858  1.00  0.00     0.022 C 
HETATM   24  C1  UNL     1      27.241   4.688  48.823  1.00  0.00     0.009 C 
ENDBRANCH  22  23
ENDBRANCH  21  22
ENDBRANCH  20  21
ENDBRANCH  19  20
ENDBRANCH  17  19
ENDBRANCH   1  17
TORSDOF 9
ENDMDL
MODEL 4
REMARK VINA RESULT:      -6.5      1.536      6.527
REMARK  9 active torsions:
REMARK  status: ('A' for Active; 'I' for Inactive)
REMARK    1  A    between atoms: C2_2  and  C3_3 
REMARK    2  A    between atoms: C3_3  and  C4_4 
REMARK    3  A    between atoms: C4_4  and  C5_5 
REMARK    4  A    between atoms: C5_5  and  C6_6 
REMARK    5  A    between atoms: C6_6  and  N1_7 
REMARK    6  A    between atoms: N1_7  and  C7_8 
REMARK    7  A    between atoms: C10_12  and  N3_13 
REMARK    8  A    between atoms: N3_13  and  C11_14 
REMARK    9  A    between atoms: C16_19  and  O1_20 
ROOT
HETATM    1  C7  UNL     1      26.992   0.073  54.382  1.00  0.00     0.147 A 
HETATM    2  C8  UNL     1      28.317   0.188  54.647  1.00  0.00     0.071 A 
HETATM    3  C9  UNL     1      29.175   1.080  54.075  1.00  0.00     0.140 A 
HETATM    4  N2  UNL     1      28.718   1.974  53.136  1.00  0.00    -0.075 NA
HETATM    5  C10 UNL     1      27.367   1.893  52.836  1.00  0.00     0.728 A 
HETATM    6  N4  UNL     1      26.568   0.953  53.470  1.00  0.00    -0.045 NA
ENDROOT
BRANCH   5   7
HETATM    7  N3  UNL     1      26.716   2.600  51.857  1.00  0.00    -0.185 N 
HETATM    8  H13 UNL     1      27.525   3.306  51.931  1.00  0.00     0.184 HD
BRANCH   7   9
HETATM    9  C11 UNL     1      26.051   3.299  50.864  1.00  0.00     0.082 A 
HETATM   10  C12 UNL     1      26.804   4.023  49.942  1.00  0.00     0.033 A 
HETATM   11  C13 UNL     1      26.067   4.670  48.983  1.00  0.00     0.002 A 
HETATM   12  C14 UNL     1      24.711   4.596  48.969  1.00  0.00     0.003 A 
HETATM   13  C15 UNL     1      23.902   3.917  49.840  1.00  0.00     0.039 A 
HETATM   14  C16 UNL     1      24.637   3.241  50.823  1.00  0.00     0.095 A 
BRANCH  14  15
HETATM   15  O1  UNL     1      24.129   2.493  51.799  1.00  0.00    -0.354 OA
HETATM   16  C17 UNL     1      23.109   2.752  52.658  1.00  0.00     0.210 C 
ENDBRANCH  14  15
ENDBRANCH   7   9
ENDBRANCH   5   7
BRANCH   1  17
HETATM   17  N1  UNL     1      25.821  -0.656  54.726  1.00  0.00    -0.350 N 
HETATM   18  H10 UNL     1      25.659  -1.406  55.480  1.00  0.00     0.166 HD
BRANCH  17  19
HETATM   19  C6  UNL     1      24.605  -0.473  53.972  1.00  0.00     0.089 C 
BRANCH  19  20
HETATM   20  C5  UNL     1      23.609  -0.986  54.641  1.00  0.00     0.017 C 
BRANCH  20  21
HETATM   21  C4  UNL     1      22.202  -0.743  54.469  1.00  0.00    -0.003 C 
BRANCH  21  22
HETATM   22  C3  UNL     1      21.389  -0.294  53.562  1.00  0.00    -0.027 C 
BRANCH  22  23
HETATM   23  C2  UNL     1      20.203  -0.039  52.782  1.00  0.00     0.022 C 
HETATM   24  C1  UNL     1      19.010  -0.873  53.301  1.00  0.00     0.009 C 
ENDBRANCH  22  23
ENDBRANCH  21  22
ENDBRANCH  20  21
ENDBRANCH  19  20
ENDBRANCH  17  19
ENDBRANCH   1  17
TORSDOF 9
ENDMDL
MODEL 5
REMARK VINA RESULT:      -6.5      4.422      9.923
REMARK  9 active torsions:
REMARK  status: ('A' for Active; 'I' for Inactive)
REMARK    1  A    between atoms: C2_2  and  C3_3 
REMARK    2  A    between atoms: C3_3  and  C4_4 
REMARK    3  A    between atoms: C4_4  and  C5_5 
REMARK    4  A    between atoms: C5_5  and  C6_6 
REMARK    5  A    between atoms: C6_6  and  N1_7 
REMARK    6  A    between atoms: N1_7  and  C7_8 
REMARK    7  A    between atoms: C10_12  and  N3_13 
REMARK    8  A    between atoms: N3_13  and  C11_14 
REMARK    9  A    between atoms: C16_19  and  O1_20 
ROOT
HETATM    1  C7  UNL     1      27.141   4.849  48.919  1.00  0.00     0.147 A 
HETATM    2  C8  UNL     1      26.766   6.149  48.814  1.00  0.00     0.071 A 
HETATM    3  C9  UNL     1      27.542   7.174  48.361  1.00  0.00     0.140 A 
HETATM    4  N2  UNL     1      28.835   6.935  47.959  1.00  0.00    -0.075 NA
HETATM    5  C10 UNL     1      29.260   5.619  48.048  1.00  0.00     0.728 A 
HETATM    6  N4  UNL     1      28.399   4.640  48.519  1.00  0.00    -0.045 NA
ENDROOT
BRANCH   5   7
HETATM    7  N3  UNL     1      30.534   5.167  47.812  1.00  0.00    -0.185 N 
HETATM    8  H13 UNL     1      30.564   5.889  47.015  1.00  0.00     0.184 HD
BRANCH   7   9
HETATM    9  C11 UNL     1      31.820   4.704  47.591  1.00  0.00     0.082 A 
HETATM   10  C12 UNL     1      31.984   3.474  46.957  1.00  0.00     0.033 A 
HETATM   11  C13 UNL     1      33.289   3.100  46.762  1.00  0.00     0.002 A 
HETATM   12  C14 UNL     1      34.316   3.888  47.175  1.00  0.00     0.003 A 
HETATM   13  C15 UNL     1      34.237   5.098  47.810  1.00  0.00     0.039 A 
HETATM   14  C16 UNL     1      32.911   5.503  48.011  1.00  0.00     0.095 A 
BRANCH  14  15
HETATM   15  O1  UNL     1      32.521   6.634  48.593  1.00  0.00    -0.354 OA
HETATM   16  C17 UNL     1      33.179   7.812  48.742  1.00  0.00     0.210 C 
ENDBRANCH  14  15
ENDBRANCH   7   9
ENDBRANCH   5   7
BRANCH   1  17
HETATM   17  N1  UNL     1      26.684   3.560  49.304  1.00  0.00    -0.350 N 
HETATM   18  H10 UNL     1      26.669   2.631  48.761  1.00  0.00     0.166 HD
BRANCH  17  19
HETATM   19  C6  UNL     1      26.076   3.361  50.597  1.00  0.00     0.089 C 
BRANCH  19  20
HETATM   20  C5  UNL     1      26.719   2.417  51.228  1.00  0.00     0.017 C 
BRANCH  20  21
HETATM   21  C4  UNL     1      26.187   1.213  51.809  1.00  0.00    -0.003 C 
BRANCH  21  22
HETATM   22  C3  UNL     1      26.566  -0.002  52.063  1.00  0.00    -0.027 C 
BRANCH  22  23
HETATM   23  C2  UNL     1      27.106  -1.166  52.724  1.00  0.00     0.022 C 
HETATM   24  C1  UNL     1      28.508  -0.872  53.302  1.00  0.00     0.009 C 
ENDBRANCH  22  23
ENDBRANCH  21  22
ENDBRANCH  20  21
ENDBRANCH  19  20
ENDBRANCH  17  19
ENDBRANCH   1  17
TORSDOF 9
ENDMDL
MODEL 6
REMARK VINA RESULT:      -6.5      1.233      2.160
REMARK  9 active torsions:
REMARK  status: ('A' for Active; 'I' for Inactive)
REMARK    1  A    between atoms: C2_2  and  C3_3 
REMARK    2  A    between atoms: C3_3  and  C4_4 
REMARK    3  A    between atoms: C4_4  and  C5_5 
REMARK    4  A    between atoms: C5_5  and  C6_6 
REMARK    5  A    between atoms: C6_6  and  N1_7 
REMARK    6  A    between atoms: N1_7  and  C7_8 
REMARK    7  A    between atoms: C10_12  and  N3_13 
REMARK    8  A    between atoms: N3_13  and  C11_14 
REMARK    9  A    between atoms: C16_19  and  O1_20 
ROOT
HETATM    1  C7  UNL     1      26.740   2.112  52.112  1.00  0.00     0.147 A 
HETATM    2  C8  UNL     1      27.461   1.368  52.989  1.00  0.00     0.071 A 
HETATM    3  C9  UNL     1      26.993   0.324  53.730  1.00  0.00     0.140 A 
HETATM    4  N2  UNL     1      25.678  -0.062  53.626  1.00  0.00    -0.075 NA
HETATM    5  C10 UNL     1      24.904   0.670  52.739  1.00  0.00     0.728 A 
HETATM    6  N4  UNL     1      25.466   1.717  52.025  1.00  0.00    -0.045 NA
ENDROOT
BRANCH   5   7
HETATM    7  N3  UNL     1      23.549   0.541  52.556  1.00  0.00    -0.185 N 
HETATM    8  H13 UNL     1      23.656   1.293  51.793  1.00  0.00     0.184 HD
BRANCH   7   9
HETATM    9  C11 UNL     1      22.185   0.395  52.378  1.00  0.00     0.082 A 
HETATM   10  C12 UNL     1      21.638   0.716  51.137  1.00  0.00     0.033 A 
HETATM   11  C13 UNL     1      20.283   0.526  51.041  1.00  0.00     0.002 A 
HETATM   12  C14 UNL     1      19.561   0.068  52.097  1.00  0.00     0.003 A 
HETATM   13  C15 UNL     1      20.020  -0.259  53.344  1.00  0.00     0.039 A 
HETATM   14  C16 UNL     1      21.405  -0.080  53.459  1.00  0.00     0.095 A 
BRANCH  14  15
HETATM   15  O1  UNL     1      22.134  -0.321  54.546  1.00  0.00    -0.354 OA
HETATM   16  C17 UNL     1      22.429  -1.497  55.157  1.00  0.00     0.210 C 
ENDBRANCH  14  15
ENDBRANCH   7   9
ENDBRANCH   5   7
BRANCH   1  17
HETATM   17  N1  UNL     1      26.826   3.199  51.201  1.00  0.00    -0.350 N 
HETATM   18  H10 UNL     1      27.093   4.229  51.363  1.00  0.00     0.166 HD
BRANCH  17  19
HETATM   19  C6  UNL     1      26.472   3.015  49.815  1.00  0.00     0.089 C 
BRANCH  19  20
HETATM   20  C5  UNL     1      26.104   4.161  49.315  1.00  0.00     0.017 C 
BRANCH  20  21
HETATM   21  C4  UNL     1      26.934   5.265  48.912  1.00  0.00    -0.003 C 
BRANCH  21  22
HETATM   22  C3  UNL     1      28.111   5.471  48.406  1.00  0.00    -0.027 C 
BRANCH  22  23
HETATM   23  C2  UNL     1      29.390   6.060  48.092  1.00  0.00     0.022 C 
HETATM   24  C1  UNL     1      29.231   7.231  47.097  1.00  0.00     0.009 C 
ENDBRANCH  22  23
ENDBRANCH  21  22
ENDBRANCH  20  21
ENDBRANCH  19  20
ENDBRANCH  17  19
ENDBRANCH   1  17
TORSDOF 9
ENDMDL
MODEL 7
REMARK VINA RESULT:      -6.4      2.511      8.256
REMARK  9 active torsions:
REMARK  status: ('A' for Active; 'I' for Inactive)
REMARK    1  A    between atoms: C2_2  and  C3_3 
REMARK    2  A    between atoms: C3_3  and  C4_4 
REMARK    3  A    between atoms: C4_4  and  C5_5 
REMARK    4  A    between atoms: C5_5  and  C6_6 
REMARK    5  A    between atoms: C6_6  and  N1_7 
REMARK    6  A    between atoms: N1_7  and  C7_8 
REMARK    7  A    between atoms: C10_12  and  N3_13 
REMARK    8  A    between atoms: N3_13  and  C11_14 
REMARK    9  A    between atoms: C16_19  and  O1_20 
ROOT
HETATM    1  C7  UNL     1      21.666  -0.638  54.464  1.00  0.00     0.147 A 
HETATM    2  C8  UNL     1      22.506  -1.381  55.228  1.00  0.00     0.071 A 
HETATM    3  C9  UNL     1      23.868  -1.360  55.174  1.00  0.00     0.140 A 
HETATM    4  N2  UNL     1      24.512  -0.532  54.286  1.00  0.00    -0.075 NA
HETATM    5  C10 UNL     1      23.692   0.248  53.486  1.00  0.00     0.728 A 
HETATM    6  N4  UNL     1      22.313   0.162  53.611  1.00  0.00    -0.045 NA
ENDROOT
BRANCH   5   7
HETATM    7  N3  UNL     1      24.104   1.058  52.458  1.00  0.00    -0.185 N 
HETATM    8  H13 UNL     1      23.633   0.343  51.805  1.00  0.00     0.184 HD
BRANCH   7   9
HETATM    9  C11 UNL     1      24.519   1.888  51.431  1.00  0.00     0.082 A 
HETATM   10  C12 UNL     1      23.558   2.414  50.571  1.00  0.00     0.033 A 
HETATM   11  C13 UNL     1      24.054   3.240  49.594  1.00  0.00     0.002 A 
HETATM   12  C14 UNL     1      25.385   3.496  49.498  1.00  0.00     0.003 A 
HETATM   13  C15 UNL     1      26.388   3.013  50.295  1.00  0.00     0.039 A 
HETATM   14  C16 UNL     1      25.901   2.174  51.305  1.00  0.00     0.095 A 
BRANCH  14  15
HETATM   15  O1  UNL     1      26.634   1.564  52.234  1.00  0.00    -0.354 OA
HETATM   16  C17 UNL     1      27.571   2.069  53.076  1.00  0.00     0.210 C 
ENDBRANCH  14  15
ENDBRANCH   7   9
ENDBRANCH   5   7
BRANCH   1  17
HETATM   17  N1  UNL     1      20.294  -0.366  54.216  1.00  0.00    -0.350 N 
HETATM   18  H10 UNL     1      19.445  -0.387  54.877  1.00  0.00     0.166 HD
BRANCH  17  19
HETATM   19  C6  UNL     1      19.846  -0.044  52.883  1.00  0.00     0.089 C 
BRANCH  19  20
HETATM   20  C5  UNL     1      18.682  -0.595  52.681  1.00  0.00     0.017 C 
BRANCH  20  21
HETATM   21  C4  UNL     1      17.999  -1.560  53.502  1.00  0.00    -0.003 C 
BRANCH  21  22
HETATM   22  C3  UNL     1      17.682  -2.817  53.476  1.00  0.00    -0.027 C 
BRANCH  22  23
HETATM   23  C2  UNL     1      17.096  -4.096  53.797  1.00  0.00     0.022 C 
HETATM   24  C1  UNL     1      15.906  -4.409  52.862  1.00  0.00     0.009 C 
ENDBRANCH  22  23
ENDBRANCH  21  22
ENDBRANCH  20  21
ENDBRANCH  19  20
ENDBRANCH  17  19
ENDBRANCH   1  17
TORSDOF 9
ENDMDL
MODEL 8
REMARK VINA RESULT:      -6.4      3.000      7.050
REMARK  9 active torsions:
REMARK  status: ('A' for Active; 'I' for Inactive)
REMARK    1  A    between atoms: C2_2  and  C3_3 
REMARK    2  A    between atoms: C3_3  and  C4_4 
REMARK    3  A    between atoms: C4_4  and  C5_5 
REMARK    4  A    between atoms: C5_5  and  C6_6 
REMARK    5  A    between atoms: C6_6  and  N1_7 
REMARK    6  A    between atoms: N1_7  and  C7_8 
REMARK    7  A    between atoms: C10_12  and  N3_13 
REMARK    8  A    between atoms: N3_13  and  C11_14 
REMARK    9  A    between atoms: C16_19  and  O1_20 
ROOT
HETATM    1  C7  UNL     1      22.947   1.400  51.727  1.00  0.00     0.147 A 
HETATM    2  C8  UNL     1      23.130   2.719  51.469  1.00  0.00     0.071 A 
HETATM    3  C9  UNL     1      24.327   3.369  51.427  1.00  0.00     0.140 A 
HETATM    4  N2  UNL     1      25.495   2.682  51.658  1.00  0.00    -0.075 NA
HETATM    5  C10 UNL     1      25.355   1.329  51.924  1.00  0.00     0.728 A 
HETATM    6  N4  UNL     1      24.095   0.751  51.945  1.00  0.00    -0.045 NA
ENDROOT
BRANCH   5   7
HETATM    7  N3  UNL     1      26.362   0.472  52.294  1.00  0.00    -0.185 N 
HETATM    8  H13 UNL     1      25.641  -0.315  52.156  1.00  0.00     0.184 HD
BRANCH   7   9
HETATM    9  C11 UNL     1      27.388  -0.380  52.662  1.00  0.00     0.082 A 
HETATM   10  C12 UNL     1      27.142  -1.751  52.673  1.00  0.00     0.033 A 
HETATM   11  C13 UNL     1      28.217  -2.523  53.032  1.00  0.00     0.002 A 
HETATM   12  C14 UNL     1      29.411  -1.961  53.355  1.00  0.00     0.003 A 
HETATM   13  C15 UNL     1      29.728  -0.629  53.377  1.00  0.00     0.039 A 
HETATM   14  C16 UNL     1      28.644   0.176  53.004  1.00  0.00     0.095 A 
BRANCH  14  15
HETATM   15  O1  UNL     1      28.651   1.505  52.925  1.00  0.00    -0.354 OA
HETATM   16  C17 UNL     1      28.686   2.438  53.910  1.00  0.00     0.210 C 
ENDBRANCH  14  15
ENDBRANCH   7   9
ENDBRANCH   5   7
BRANCH   1  17
HETATM   17  N1  UNL     1      21.953   0.392  51.854  1.00  0.00    -0.350 N 
HETATM   18  H10 UNL     1      22.026  -0.679  51.766  1.00  0.00     0.166 HD
BRANCH  17  19
HETATM   19  C6  UNL     1      20.577   0.754  52.092  1.00  0.00     0.089 C 
BRANCH  19  20
HETATM   20  C5  UNL     1      20.417   1.005  53.361  1.00  0.00     0.017 C 
BRANCH  20  21
HETATM   21  C4  UNL     1      20.989   0.310  54.485  1.00  0.00    -0.003 C 
BRANCH  21  22
HETATM   22  C3  UNL     1      21.713  -0.740  54.722  1.00  0.00    -0.027 C 
BRANCH  22  23
HETATM   23  C2  UNL     1      22.706  -1.632  55.269  1.00  0.00     0.022 C 
HETATM   24  C1  UNL     1      24.129  -1.065  55.069  1.00  0.00     0.009 C 
ENDBRANCH  22  23
ENDBRANCH  21  22
ENDBRANCH  20  21
ENDBRANCH  19  20
ENDBRANCH  17  19
ENDBRANCH   1  17
TORSDOF 9
ENDMDL
MODEL 9
REMARK VINA RESULT:      -6.2      2.497      7.106
REMARK  9 active torsions:
REMARK  status: ('A' for Active; 'I' for Inactive)
REMARK    1  A    between atoms: C2_2  and  C3_3 
REMARK    2  A    between atoms: C3_3  and  C4_4 
REMARK    3  A    between atoms: C4_4  and  C5_5 
REMARK    4  A    between atoms: C5_5  and  C6_6 
REMARK    5  A    between atoms: C6_6  and  N1_7 
REMARK    6  A    between atoms: N1_7  and  C7_8 
REMARK    7  A    between atoms: C10_12  and  N3_13 
REMARK    8  A    between atoms: N3_13  and  C11_14 
REMARK    9  A    between atoms: C16_19  and  O1_20 
ROOT
HETATM    1  C7  UNL     1      22.642   0.891  52.039  1.00  0.00     0.147 A 
HETATM    2  C8  UNL     1      21.583   0.543  51.265  1.00  0.00     0.071 A 
HETATM    3  C9  UNL     1      21.350   0.960  49.988  1.00  0.00     0.140 A 
HETATM    4  N2  UNL     1      22.232   1.815  49.370  1.00  0.00    -0.075 NA
HETATM    5  C10 UNL     1      23.330   2.196  50.123  1.00  0.00     0.728 A 
HETATM    6  N4  UNL     1      23.487   1.719  51.416  1.00  0.00    -0.045 NA
ENDROOT
BRANCH   5   7
HETATM    7  N3  UNL     1      24.275   3.123  49.759  1.00  0.00    -0.185 N 
HETATM    8  H13 UNL     1      24.881   2.705  50.545  1.00  0.00     0.184 HD
BRANCH   7   9
HETATM    9  C11 UNL     1      25.220   4.059  49.376  1.00  0.00     0.082 A 
HETATM   10  C12 UNL     1      26.558   3.672  49.332  1.00  0.00     0.033 A 
HETATM   11  C13 UNL     1      27.425   4.655  48.926  1.00  0.00     0.002 A 
HETATM   12  C14 UNL     1      26.980   5.898  48.609  1.00  0.00     0.003 A 
HETATM   13  C15 UNL     1      25.690   6.357  48.636  1.00  0.00     0.039 A 
HETATM   14  C16 UNL     1      24.787   5.364  49.040  1.00  0.00     0.095 A 
BRANCH  14  15
HETATM   15  O1  UNL     1      23.469   5.509  49.155  1.00  0.00    -0.354 OA
HETATM   16  C17 UNL     1      22.749   6.381  49.906  1.00  0.00     0.210 C 
ENDBRANCH  14  15
ENDBRANCH   7   9
ENDBRANCH   5   7
BRANCH   1  17
HETATM   17  N1  UNL     1      23.230   0.699  53.318  1.00  0.00    -0.350 N 
HETATM   18  H10 UNL     1      23.491   1.409  54.083  1.00  0.00     0.166 HD
BRANCH  17  19
HETATM   19  C6  UNL     1      23.626  -0.621  53.743  1.00  0.00     0.089 C 
BRANCH  19  20
HETATM   20  C5  UNL     1      24.886  -0.598  54.081  1.00  0.00     0.017 C 
BRANCH  20  21
HETATM   21  C4  UNL     1      26.039  -0.668  53.224  1.00  0.00    -0.003 C 
BRANCH  21  22
HETATM   22  C3  UNL     1      27.331  -0.591  53.313  1.00  0.00    -0.027 C 
BRANCH  22  23
HETATM   23  C2  UNL     1      28.671  -0.086  53.489  1.00  0.00     0.022 C 
HETATM   24  C1  UNL     1      29.698  -1.240  53.514  1.00  0.00     0.009 C 
ENDBRANCH  22  23
ENDBRANCH  21  22
ENDBRANCH  20  21
ENDBRANCH  19  20
ENDBRANCH  17  19
ENDBRANCH   1  17
TORSDOF 9
ENDMDL
