MODEL 1
REMARK VINA RESULT:     -10.5      0.000      0.000
REMARK  3 active torsions:
REMARK  status: ('A' for Active; 'I' for Inactive)
REMARK    1  A    between atoms: C13_15  and  N2_16 
REMARK    2  A    between atoms: N2_16  and  C14_17 
REMARK    3  A    between atoms: C14_17  and  C15_18 
ROOT
HETATM    1  O1  UNL     1      21.944   0.925  49.886  1.00  0.00    -0.273 OA
HETATM    2  C1  UNL     1      22.879   1.551  50.482  1.00  0.00     0.229 C 
HETATM    3  N1  UNL     1      23.235   2.806  49.990  1.00  0.00    -0.326 N 
HETATM    4  C2  UNL     1      22.378   3.124  48.909  1.00  0.00     0.043 A 
HETATM    5  C3  UNL     1      22.688   2.996  47.608  1.00  0.00     0.030 A 
HETATM    6  C4  UNL     1      21.766   3.358  46.663  1.00  0.00     0.002 A 
HETATM    7  C5  UNL     1      20.554   3.841  47.110  1.00  0.00     0.001 A 
HETATM    8  C6  UNL     1      20.362   3.921  48.476  1.00  0.00     0.011 A 
HETATM    9  C7  UNL     1      21.229   3.582  49.523  1.00  0.00    -0.006 A 
HETATM   10  C8  UNL     1      20.539   3.844  50.821  1.00  0.00     0.146 C 
HETATM   11  C9  UNL     1      21.015   5.197  51.324  1.00  0.00     0.059 C 
HETATM   12  C10 UNL     1      22.273   5.236  52.047  1.00  0.00    -0.028 C 
HETATM   13  C11 UNL     1      23.363   4.618  52.569  1.00  0.00    -0.023 C 
HETATM   14  C12 UNL     1      24.189   3.404  52.838  1.00  0.00     0.107 C 
HETATM   15  C13 UNL     1      24.099   2.069  52.523  1.00  0.00     0.031 C 
HETATM   16  C20 UNL     1      23.565   0.909  51.730  1.00  0.00     0.110 C 
HETATM   17  C21 UNL     1      22.383   0.292  52.415  1.00  0.00     0.036 A 
HETATM   18  C22 UNL     1      22.626  -0.943  53.108  1.00  0.00    -0.020 A 
HETATM   19  C23 UNL     1      22.108  -1.471  54.197  1.00  0.00    -0.004 A 
HETATM   20  C24 UNL     1      21.075  -0.662  54.893  1.00  0.00    -0.004 A 
HETATM   21  C25 UNL     1      20.883   0.510  54.273  1.00  0.00    -0.016 A 
HETATM   22  C26 UNL     1      21.446   1.195  53.096  1.00  0.00     0.057 A 
HETATM   23  C27 UNL     1      20.403   1.865  52.330  1.00  0.00     0.093 C 
HETATM   24  N4  UNL     1      20.789   2.804  51.690  1.00  0.00    -0.295 NA
HETATM   25  H1  UNL     1      23.803   3.675  49.964  1.00  0.00     0.169 HD
ENDROOT
BRANCH  15  26
HETATM   26  N2  UNL     1      25.305   1.606  53.204  1.00  0.00    -0.411 N 
HETATM   27  H12 UNL     1      25.160   1.265  54.184  1.00  0.00     0.153 HD
BRANCH  26  28
HETATM   28  C14 UNL     1      26.695   1.507  52.891  1.00  0.00     0.153 C 
BRANCH  28  29
HETATM   29  C15 UNL     1      27.276   0.144  52.979  1.00  0.00    -0.038 A 
HETATM   30  C16 UNL     1      26.467  -0.915  52.559  1.00  0.00     0.028 A 
HETATM   31  C17 UNL     1      27.113  -2.129  52.675  1.00  0.00     0.116 A 
HETATM   32  N3  UNL     1      28.371  -2.282  53.137  1.00  0.00    -0.273 NA
HETATM   33  C18 UNL     1      29.108  -1.219  53.531  1.00  0.00     0.116 A 
HETATM   34  C19 UNL     1      28.590   0.062  53.471  1.00  0.00     0.028 A 
ENDBRANCH  28  29
ENDBRANCH  26  28
ENDBRANCH  15  26
TORSDOF 3
ENDMDL
MODEL 2
REMARK VINA RESULT:     -10.0      3.202      6.382
REMARK  3 active torsions:
REMARK  status: ('A' for Active; 'I' for Inactive)
REMARK    1  A    between atoms: C13_15  and  N2_16 
REMARK    2  A    between atoms: N2_16  and  C14_17 
REMARK    3  A    between atoms: C14_17  and  C15_18 
ROOT
HETATM    1  O1  UNL     1      23.423   2.968  53.294  1.00  0.00    -0.273 OA
HETATM    2  C1  UNL     1      23.792   2.672  52.111  1.00  0.00     0.229 C 
HETATM    3  N1  UNL     1      23.613   1.357  51.686  1.00  0.00    -0.326 N 
HETATM    4  C2  UNL     1      22.973   0.633  52.721  1.00  0.00     0.043 A 
HETATM    5  C3  UNL     1      23.588  -0.181  53.595  1.00  0.00     0.030 A 
HETATM    6  C4  UNL     1      22.841  -0.833  54.538  1.00  0.00     0.002 A 
HETATM    7  C5  UNL     1      21.480  -0.613  54.536  1.00  0.00     0.001 A 
HETATM    8  C6  UNL     1      20.974   0.250  53.583  1.00  0.00     0.011 A 
HETATM    9  C7  UNL     1      21.640   0.964  52.579  1.00  0.00    -0.006 A 
HETATM   10  C8  UNL     1      20.638   1.769  51.817  1.00  0.00     0.146 C 
HETATM   11  C9  UNL     1      20.294   0.991  50.558  1.00  0.00     0.059 C 
HETATM   12  C10 UNL     1      21.187   1.130  49.422  1.00  0.00    -0.028 C 
HETATM   13  C11 UNL     1      22.292   1.658  48.837  1.00  0.00    -0.023 C 
HETATM   14  C12 UNL     1      23.510   2.523  48.856  1.00  0.00     0.107 C 
HETATM   15  C13 UNL     1      24.133   3.316  49.790  1.00  0.00     0.031 C 
HETATM   16  C20 UNL     1      24.402   3.780  51.193  1.00  0.00     0.110 C 
HETATM   17  C21 UNL     1      23.532   4.949  51.546  1.00  0.00     0.036 A 
HETATM   18  C22 UNL     1      24.168   6.238  51.535  1.00  0.00    -0.020 A 
HETATM   19  C23 UNL     1      23.732   7.444  51.238  1.00  0.00    -0.004 A 
HETATM   20  C24 UNL     1      22.314   7.544  50.809  1.00  0.00    -0.004 A 
HETATM   21  C25 UNL     1      21.735   6.335  50.772  1.00  0.00    -0.016 A 
HETATM   22  C26 UNL     1      22.155   4.948  51.036  1.00  0.00     0.057 A 
HETATM   23  C27 UNL     1      21.120   4.214  51.752  1.00  0.00     0.093 C 
HETATM   24  N4  UNL     1      21.148   3.026  51.578  1.00  0.00    -0.295 NA
HETATM   25  H1  UNL     1      23.694   0.572  51.011  1.00  0.00     0.169 HD
ENDROOT
BRANCH  15  26
HETATM   26  N2  UNL     1      25.229   3.806  48.957  1.00  0.00    -0.411 N 
HETATM   27  H12 UNL     1      24.976   4.004  47.960  1.00  0.00     0.153 HD
BRANCH  26  28
HETATM   28  C14 UNL     1      26.619   4.081  49.137  1.00  0.00     0.153 C 
BRANCH  28  29
HETATM   29  C15 UNL     1      27.084   5.393  48.621  1.00  0.00    -0.038 A 
HETATM   30  C16 UNL     1      26.126   6.405  48.515  1.00  0.00     0.028 A 
HETATM   31  C17 UNL     1      26.673   7.578  48.037  1.00  0.00     0.116 A 
HETATM   32  N3  UNL     1      27.971   7.736  47.710  1.00  0.00    -0.273 NA
HETATM   33  C18 UNL     1      28.855   6.720  47.832  1.00  0.00     0.116 A 
HETATM   34  C19 UNL     1      28.449   5.483  48.299  1.00  0.00     0.028 A 
ENDBRANCH  28  29
ENDBRANCH  26  28
ENDBRANCH  15  26
TORSDOF 3
ENDMDL
MODEL 3
REMARK VINA RESULT:      -9.8      2.871      6.155
REMARK  3 active torsions:
REMARK  status: ('A' for Active; 'I' for Inactive)
REMARK    1  A    between atoms: C13_15  and  N2_16 
REMARK    2  A    between atoms: N2_16  and  C14_17 
REMARK    3  A    between atoms: C14_17  and  C15_18 
ROOT
HETATM    1  O1  UNL     1      21.606   3.964  52.752  1.00  0.00    -0.273 OA
HETATM    2  C1  UNL     1      20.921   3.337  51.880  1.00  0.00     0.229 C 
HETATM    3  N1  UNL     1      20.809   3.905  50.612  1.00  0.00    -0.326 N 
HETATM    4  C2  UNL     1      21.579   5.094  50.582  1.00  0.00     0.043 A 
HETATM    5  C3  UNL     1      21.093   6.338  50.718  1.00  0.00     0.030 A 
HETATM    6  C4  UNL     1      21.953   7.401  50.653  1.00  0.00     0.002 A 
HETATM    7  C5  UNL     1      23.289   7.127  50.448  1.00  0.00     0.001 A 
HETATM    8  C6  UNL     1      23.657   5.801  50.325  1.00  0.00     0.011 A 
HETATM    9  C7  UNL     1      22.869   4.645  50.376  1.00  0.00    -0.006 A 
HETATM   10  C8  UNL     1      23.753   3.453  50.201  1.00  0.00     0.146 C 
HETATM   11  C9  UNL     1      23.668   3.034  48.743  1.00  0.00     0.059 C 
HETATM   12  C10 UNL     1      22.551   2.193  48.354  1.00  0.00    -0.028 C 
HETATM   13  C11 UNL     1      21.418   1.508  48.655  1.00  0.00    -0.023 C 
HETATM   14  C12 UNL     1      20.371   1.043  49.614  1.00  0.00     0.107 C 
HETATM   15  C13 UNL     1      20.111   1.240  50.949  1.00  0.00     0.031 C 
HETATM   16  C20 UNL     1      20.261   1.971  52.253  1.00  0.00     0.110 C 
HETATM   17  C21 UNL     1      21.342   1.355  53.090  1.00  0.00     0.036 A 
HETATM   18  C22 UNL     1      20.905   0.529  54.182  1.00  0.00    -0.020 A 
HETATM   19  C23 UNL     1      21.414  -0.546  54.745  1.00  0.00    -0.004 A 
HETATM   20  C24 UNL     1      22.683  -1.054  54.165  1.00  0.00    -0.004 A 
HETATM   21  C25 UNL     1      23.065  -0.312  53.116  1.00  0.00    -0.016 A 
HETATM   22  C26 UNL     1      22.538   0.861  52.397  1.00  0.00     0.057 A 
HETATM   23  C27 UNL     1      23.607   1.788  52.050  1.00  0.00     0.093 C 
HETATM   24  N4  UNL     1      23.375   2.471  51.090  1.00  0.00    -0.295 NA
HETATM   25  H1  UNL     1      20.459   3.955  49.635  1.00  0.00     0.169 HD
ENDROOT
BRANCH  15  26
HETATM   26  N2  UNL     1      18.922   0.400  51.061  1.00  0.00    -0.411 N 
HETATM   27  H12 UNL     1      18.887  -0.413  50.401  1.00  0.00     0.153 HD
BRANCH  26  28
HETATM   28  C14 UNL     1      17.729   0.397  51.847  1.00  0.00     0.153 C 
BRANCH  28  29
HETATM   29  C15 UNL     1      17.294  -0.931  52.346  1.00  0.00    -0.038 A 
HETATM   30  C16 UNL     1      18.183  -1.614  53.180  1.00  0.00     0.028 A 
HETATM   31  C17 UNL     1      17.669  -2.828  53.591  1.00  0.00     0.116 A 
HETATM   32  N3  UNL     1      16.459  -3.303  53.233  1.00  0.00    -0.273 NA
HETATM   33  C18 UNL     1      15.640  -2.597  52.421  1.00  0.00     0.116 A 
HETATM   34  C19 UNL     1      16.022  -1.362  51.931  1.00  0.00     0.028 A 
ENDBRANCH  28  29
ENDBRANCH  26  28
ENDBRANCH  15  26
TORSDOF 3
ENDMDL
MODEL 4
REMARK VINA RESULT:      -9.2      2.834      6.577
REMARK  3 active torsions:
REMARK  status: ('A' for Active; 'I' for Inactive)
REMARK    1  A    between atoms: C13_15  and  N2_16 
REMARK    2  A    between atoms: N2_16  and  C14_17 
REMARK    3  A    between atoms: C14_17  and  C15_18 
ROOT
HETATM    1  O1  UNL     1      21.565   4.064  52.704  1.00  0.00    -0.273 OA
HETATM    2  C1  UNL     1      20.978   3.453  51.753  1.00  0.00     0.229 C 
HETATM    3  N1  UNL     1      20.992   4.049  50.494  1.00  0.00    -0.326 N 
HETATM    4  C2  UNL     1      21.751   5.243  50.570  1.00  0.00     0.043 A 
HETATM    5  C3  UNL     1      21.243   6.481  50.682  1.00  0.00     0.030 A 
HETATM    6  C4  UNL     1      22.096   7.550  50.730  1.00  0.00     0.002 A 
HETATM    7  C5  UNL     1      23.448   7.289  50.657  1.00  0.00     0.001 A 
HETATM    8  C6  UNL     1      23.839   5.969  50.543  1.00  0.00     0.011 A 
HETATM    9  C7  UNL     1      23.059   4.807  50.486  1.00  0.00    -0.006 A 
HETATM   10  C8  UNL     1      23.966   3.625  50.378  1.00  0.00     0.146 C 
HETATM   11  C9  UNL     1      24.034   3.239  48.910  1.00  0.00     0.059 C 
HETATM   12  C10 UNL     1      22.970   2.400  48.389  1.00  0.00    -0.028 C 
HETATM   13  C11 UNL     1      21.819   1.701  48.556  1.00  0.00    -0.023 C 
HETATM   14  C12 UNL     1      20.683   1.209  49.392  1.00  0.00     0.107 C 
HETATM   15  C13 UNL     1      20.285   1.373  50.697  1.00  0.00     0.031 C 
HETATM   16  C20 UNL     1      20.295   2.075  52.026  1.00  0.00     0.110 C 
HETATM   17  C21 UNL     1      21.289   1.446  52.956  1.00  0.00     0.036 A 
HETATM   18  C22 UNL     1      20.749   0.592  53.978  1.00  0.00    -0.020 A 
HETATM   19  C23 UNL     1      21.207  -0.492  54.566  1.00  0.00    -0.004 A 
HETATM   20  C24 UNL     1      22.533  -0.979  54.108  1.00  0.00    -0.004 A 
HETATM   21  C25 UNL     1      23.014  -0.210  53.122  1.00  0.00    -0.016 A 
HETATM   22  C26 UNL     1      22.554   0.975  52.378  1.00  0.00     0.057 A 
HETATM   23  C27 UNL     1      23.646   1.917  52.164  1.00  0.00     0.093 C 
HETATM   24  N4  UNL     1      23.508   2.620  51.201  1.00  0.00    -0.295 NA
HETATM   25  H1  UNL     1      20.744   4.119  49.487  1.00  0.00     0.169 HD
ENDROOT
BRANCH  15  26
HETATM   26  N2  UNL     1      19.098   0.523  50.668  1.00  0.00    -0.411 N 
HETATM   27  H12 UNL     1      18.639   0.431  49.731  1.00  0.00     0.153 HD
BRANCH  26  28
HETATM   28  C14 UNL     1      18.346  -0.233  51.618  1.00  0.00     0.153 C 
BRANCH  28  29
HETATM   29  C15 UNL     1      17.000   0.303  51.941  1.00  0.00    -0.038 A 
HETATM   30  C16 UNL     1      16.690   1.572  51.445  1.00  0.00     0.028 A 
HETATM   31  C17 UNL     1      15.414   1.961  51.798  1.00  0.00     0.116 A 
HETATM   32  N3  UNL     1      14.565   1.214  52.532  1.00  0.00    -0.273 NA
HETATM   33  C18 UNL     1      14.920  -0.009  52.987  1.00  0.00     0.116 A 
HETATM   34  C19 UNL     1      16.170  -0.530  52.711  1.00  0.00     0.028 A 
ENDBRANCH  28  29
ENDBRANCH  26  28
ENDBRANCH  15  26
TORSDOF 3
ENDMDL
MODEL 5
REMARK VINA RESULT:      -9.1      2.366      5.715
REMARK  3 active torsions:
REMARK  status: ('A' for Active; 'I' for Inactive)
REMARK    1  A    between atoms: C13_15  and  N2_16 
REMARK    2  A    between atoms: N2_16  and  C14_17 
REMARK    3  A    between atoms: C14_17  and  C15_18 
ROOT
HETATM    1  O1  UNL     1      23.710   4.471  52.376  1.00  0.00    -0.273 OA
HETATM    2  C1  UNL     1      22.867   3.563  52.084  1.00  0.00     0.229 C 
HETATM    3  N1  UNL     1      21.865   3.879  51.169  1.00  0.00    -0.326 N 
HETATM    4  C2  UNL     1      22.072   5.205  50.715  1.00  0.00     0.043 A 
HETATM    5  C3  UNL     1      21.419   6.290  51.162  1.00  0.00     0.030 A 
HETATM    6  C4  UNL     1      21.710   7.514  50.621  1.00  0.00     0.002 A 
HETATM    7  C5  UNL     1      22.671   7.560  49.633  1.00  0.00     0.001 A 
HETATM    8  C6  UNL     1      23.268   6.369  49.266  1.00  0.00     0.011 A 
HETATM    9  C7  UNL     1      23.049   5.073  49.749  1.00  0.00    -0.006 A 
HETATM   10  C8  UNL     1      23.962   4.133  49.030  1.00  0.00     0.146 C 
HETATM   11  C9  UNL     1      23.160   3.484  47.915  1.00  0.00     0.059 C 
HETATM   12  C10 UNL     1      22.341   2.336  48.261  1.00  0.00    -0.028 C 
HETATM   13  C11 UNL     1      21.873   1.441  49.168  1.00  0.00    -0.023 C 
HETATM   14  C12 UNL     1      21.793   0.881  50.550  1.00  0.00     0.107 C 
HETATM   15  C13 UNL     1      22.330   1.210  51.772  1.00  0.00     0.031 C 
HETATM   16  C20 UNL     1      22.998   2.149  52.736  1.00  0.00     0.110 C 
HETATM   17  C21 UNL     1      24.485   1.967  52.717  1.00  0.00     0.036 A 
HETATM   18  C22 UNL     1      25.048   1.236  53.820  1.00  0.00    -0.020 A 
HETATM   19  C23 UNL     1      26.082   0.427  53.917  1.00  0.00    -0.004 A 
HETATM   20  C24 UNL     1      26.840   0.175  52.666  1.00  0.00    -0.004 A 
HETATM   21  C25 UNL     1      26.287   0.818  51.629  1.00  0.00    -0.016 A 
HETATM   22  C26 UNL     1      25.118   1.691  51.421  1.00  0.00     0.057 A 
HETATM   23  C27 UNL     1      25.440   2.794  50.525  1.00  0.00     0.093 C 
HETATM   24  N4  UNL     1      24.496   3.237  49.931  1.00  0.00    -0.295 NA
HETATM   25  H1  UNL     1      21.009   3.686  50.612  1.00  0.00     0.169 HD
ENDROOT
BRANCH  15  26
HETATM   26  N2  UNL     1      21.754   0.123  52.559  1.00  0.00    -0.411 N 
HETATM   27  H12 UNL     1      22.079  -0.838  52.296  1.00  0.00     0.153 HD
BRANCH  26  28
HETATM   28  C14 UNL     1      20.808   0.007  53.623  1.00  0.00     0.153 C 
BRANCH  28  29
HETATM   29  C15 UNL     1      19.491  -0.565  53.248  1.00  0.00    -0.038 A 
HETATM   30  C16 UNL     1      19.129  -1.769  53.858  1.00  0.00     0.028 A 
HETATM   31  C17 UNL     1      17.884  -2.198  53.444  1.00  0.00     0.116 A 
HETATM   32  N3  UNL     1      17.107  -1.541  52.559  1.00  0.00    -0.273 NA
HETATM   33  C18 UNL     1      17.510  -0.378  51.999  1.00  0.00     0.116 A 
HETATM   34  C19 UNL     1      18.736   0.174  52.320  1.00  0.00     0.028 A 
ENDBRANCH  28  29
ENDBRANCH  26  28
ENDBRANCH  15  26
TORSDOF 3
ENDMDL
MODEL 6
REMARK VINA RESULT:      -8.9      2.317      3.132
REMARK  3 active torsions:
REMARK  status: ('A' for Active; 'I' for Inactive)
REMARK    1  A    between atoms: C13_15  and  N2_16 
REMARK    2  A    between atoms: N2_16  and  C14_17 
REMARK    3  A    between atoms: C14_17  and  C15_18 
ROOT
HETATM    1  O1  UNL     1      21.412   3.895  48.035  1.00  0.00    -0.273 OA
HETATM    2  C1  UNL     1      22.605   4.071  48.444  1.00  0.00     0.229 C 
HETATM    3  N1  UNL     1      23.233   5.271  48.116  1.00  0.00    -0.326 N 
HETATM    4  C2  UNL     1      22.313   6.080  47.406  1.00  0.00     0.043 A 
HETATM    5  C3  UNL     1      22.275   6.226  46.071  1.00  0.00     0.030 A 
HETATM    6  C4  UNL     1      21.338   7.057  45.518  1.00  0.00     0.002 A 
HETATM    7  C5  UNL     1      20.476   7.705  46.376  1.00  0.00     0.001 A 
HETATM    8  C6  UNL     1      20.622   7.466  47.730  1.00  0.00     0.011 A 
HETATM    9  C7  UNL     1      21.537   6.644  48.399  1.00  0.00    -0.006 A 
HETATM   10  C8  UNL     1      21.268   6.723  49.867  1.00  0.00     0.146 C 
HETATM   11  C9  UNL     1      22.254   7.718  50.456  1.00  0.00     0.059 C 
HETATM   12  C10 UNL     1      23.582   7.229  50.781  1.00  0.00    -0.028 C 
HETATM   13  C11 UNL     1      24.498   6.230  50.841  1.00  0.00    -0.023 C 
HETATM   14  C12 UNL     1      24.924   4.814  50.628  1.00  0.00     0.107 C 
HETATM   15  C13 UNL     1      24.339   3.685  50.107  1.00  0.00     0.031 C 
HETATM   16  C20 UNL     1      23.299   2.962  49.298  1.00  0.00     0.110 C 
HETATM   17  C21 UNL     1      22.159   2.519  50.165  1.00  0.00     0.036 A 
HETATM   18  C22 UNL     1      22.133   1.125  50.514  1.00  0.00    -0.020 A 
HETATM   19  C23 UNL     1      21.721   0.482  51.586  1.00  0.00    -0.004 A 
HETATM   20  C24 UNL     1      21.183   1.319  52.688  1.00  0.00    -0.004 A 
HETATM   21  C25 UNL     1      21.252   2.622  52.382  1.00  0.00    -0.016 A 
HETATM   22  C26 UNL     1      21.737   3.421  51.243  1.00  0.00     0.057 A 
HETATM   23  C27 UNL     1      20.828   4.522  50.950  1.00  0.00     0.093 C 
HETATM   24  N4  UNL     1      21.349   5.462  50.415  1.00  0.00    -0.295 NA
HETATM   25  H1  UNL     1      24.033   5.933  48.091  1.00  0.00     0.169 HD
ENDROOT
BRANCH  15  26
HETATM   26  N2  UNL     1      25.447   2.756  50.313  1.00  0.00    -0.411 N 
HETATM   27  H12 UNL     1      25.655   2.124  49.503  1.00  0.00     0.153 HD
BRANCH  26  28
HETATM   28  C14 UNL     1      26.351   2.445  51.374  1.00  0.00     0.153 C 
BRANCH  28  29
HETATM   29  C15 UNL     1      26.011   1.240  52.172  1.00  0.00    -0.038 A 
HETATM   30  C16 UNL     1      26.793   0.101  51.958  1.00  0.00     0.028 A 
HETATM   31  C17 UNL     1      26.394  -0.950  52.760  1.00  0.00     0.116 A 
HETATM   32  N3  UNL     1      25.376  -0.892  53.642  1.00  0.00    -0.273 NA
HETATM   33  C18 UNL     1      24.652   0.238  53.805  1.00  0.00     0.116 A 
HETATM   34  C19 UNL     1      24.937   1.373  53.069  1.00  0.00     0.028 A 
ENDBRANCH  28  29
ENDBRANCH  26  28
ENDBRANCH  15  26
TORSDOF 3
ENDMDL
MODEL 7
REMARK VINA RESULT:      -8.8      7.138      9.958
REMARK  3 active torsions:
REMARK  status: ('A' for Active; 'I' for Inactive)
REMARK    1  A    between atoms: C13_15  and  N2_16 
REMARK    2  A    between atoms: N2_16  and  C14_17 
REMARK    3  A    between atoms: C14_17  and  C15_18 
ROOT
HETATM    1  O1  UNL     1      27.951   9.239  49.821  1.00  0.00    -0.273 OA
HETATM    2  C1  UNL     1      27.173   9.316  48.816  1.00  0.00     0.229 C 
HETATM    3  N1  UNL     1      27.481  10.251  47.829  1.00  0.00    -0.326 N 
HETATM    4  C2  UNL     1      28.693  10.894  48.180  1.00  0.00     0.043 A 
HETATM    5  C3  UNL     1      28.792  12.102  48.759  1.00  0.00     0.030 A 
HETATM    6  C4  UNL     1      30.034  12.612  49.030  1.00  0.00     0.002 A 
HETATM    7  C5  UNL     1      31.126  11.843  48.687  1.00  0.00     0.001 A 
HETATM    8  C6  UNL     1      30.884  10.616  48.098  1.00  0.00     0.011 A 
HETATM    9  C7  UNL     1      29.667  10.002  47.777  1.00  0.00    -0.006 A 
HETATM   10  C8  UNL     1      29.949   8.669  47.165  1.00  0.00     0.146 C 
HETATM   11  C9  UNL     1      29.868   8.836  45.657  1.00  0.00     0.059 C 
HETATM   12  C10 UNL     1      28.552   8.776  45.047  1.00  0.00    -0.028 C 
HETATM   13  C11 UNL     1      27.206   8.627  45.139  1.00  0.00    -0.023 C 
HETATM   14  C12 UNL     1      25.952   8.407  45.921  1.00  0.00     0.107 C 
HETATM   15  C13 UNL     1      25.643   8.253  47.251  1.00  0.00     0.031 C 
HETATM   16  C20 UNL     1      25.938   8.365  48.720  1.00  0.00     0.110 C 
HETATM   17  C21 UNL     1      26.524   7.089  49.246  1.00  0.00     0.036 A 
HETATM   18  C22 UNL     1      25.636   6.248  50.001  1.00  0.00    -0.020 A 
HETATM   19  C23 UNL     1      25.546   4.942  50.135  1.00  0.00    -0.004 A 
HETATM   20  C24 UNL     1      26.521   4.132  49.363  1.00  0.00    -0.004 A 
HETATM   21  C25 UNL     1      27.317   4.914  48.622  1.00  0.00    -0.016 A 
HETATM   22  C26 UNL     1      27.455   6.360  48.375  1.00  0.00     0.057 A 
HETATM   23  C27 UNL     1      28.857   6.753  48.327  1.00  0.00     0.093 C 
HETATM   24  N4  UNL     1      29.070   7.738  47.673  1.00  0.00    -0.295 NA
HETATM   25  H1  UNL     1      27.312  10.771  46.945  1.00  0.00     0.169 HD
ENDROOT
BRANCH  15  26
HETATM   26  N2  UNL     1      24.201   8.063  47.115  1.00  0.00    -0.411 N 
HETATM   27  H12 UNL     1      23.616   8.893  47.371  1.00  0.00     0.153 HD
BRANCH  26  28
HETATM   28  C14 UNL     1      23.332   6.997  46.731  1.00  0.00     0.153 C 
BRANCH  28  29
HETATM   29  C15 UNL     1      22.735   6.224  47.848  1.00  0.00    -0.038 A 
HETATM   30  C16 UNL     1      22.707   4.834  47.710  1.00  0.00     0.028 A 
HETATM   31  C17 UNL     1      22.142   4.222  48.811  1.00  0.00     0.116 A 
HETATM   32  N3  UNL     1      21.671   4.879  49.890  1.00  0.00    -0.273 NA
HETATM   33  C18 UNL     1      21.723   6.228  49.968  1.00  0.00     0.116 A 
HETATM   34  C19 UNL     1      22.263   6.976  48.938  1.00  0.00     0.028 A 
ENDBRANCH  28  29
ENDBRANCH  26  28
ENDBRANCH  15  26
TORSDOF 3
ENDMDL
MODEL 8
REMARK VINA RESULT:      -8.7      2.659      5.311
REMARK  3 active torsions:
REMARK  status: ('A' for Active; 'I' for Inactive)
REMARK    1  A    between atoms: C13_15  and  N2_16 
REMARK    2  A    between atoms: N2_16  and  C14_17 
REMARK    3  A    between atoms: C14_17  and  C15_18 
ROOT
HETATM    1  O1  UNL     1      22.743   6.530  51.276  1.00  0.00    -0.273 OA
HETATM    2  C1  UNL     1      21.909   5.629  50.937  1.00  0.00     0.229 C 
HETATM    3  N1  UNL     1      20.968   5.952  49.961  1.00  0.00    -0.326 N 
HETATM    4  C2  UNL     1      21.218   7.272  49.514  1.00  0.00     0.043 A 
HETATM    5  C3  UNL     1      20.551   8.367  49.914  1.00  0.00     0.030 A 
HETATM    6  C4  UNL     1      20.888   9.584  49.386  1.00  0.00     0.002 A 
HETATM    7  C5  UNL     1      21.909   9.614  48.459  1.00  0.00     0.001 A 
HETATM    8  C6  UNL     1      22.514   8.414  48.135  1.00  0.00     0.011 A 
HETATM    9  C7  UNL     1      22.251   7.124  48.610  1.00  0.00    -0.006 A 
HETATM   10  C8  UNL     1      23.195   6.170  47.953  1.00  0.00     0.146 C 
HETATM   11  C9  UNL     1      22.455   5.523  46.794  1.00  0.00     0.059 C 
HETATM   12  C10 UNL     1      21.604   4.387  47.095  1.00  0.00    -0.028 C 
HETATM   13  C11 UNL     1      21.071   3.502  47.976  1.00  0.00    -0.023 C 
HETATM   14  C12 UNL     1      20.901   2.951  49.354  1.00  0.00     0.107 C 
HETATM   15  C13 UNL     1      21.365   3.281  50.604  1.00  0.00     0.031 C 
HETATM   16  C20 UNL     1      21.983   4.218  51.603  1.00  0.00     0.110 C 
HETATM   17  C21 UNL     1      23.467   4.019  51.677  1.00  0.00     0.036 A 
HETATM   18  C22 UNL     1      23.953   3.289  52.815  1.00  0.00    -0.020 A 
HETATM   19  C23 UNL     1      24.970   2.470  52.980  1.00  0.00    -0.004 A 
HETATM   20  C24 UNL     1      25.801   2.201  51.779  1.00  0.00    -0.004 A 
HETATM   21  C25 UNL     1      25.319   2.844  50.707  1.00  0.00    -0.016 A 
HETATM   22  C26 UNL     1      24.175   3.729  50.423  1.00  0.00     0.057 A 
HETATM   23  C27 UNL     1      24.564   4.824  49.543  1.00  0.00     0.093 C 
HETATM   24  N4  UNL     1      23.663   5.274  48.890  1.00  0.00    -0.295 NA
HETATM   25  H1  UNL     1      20.146   5.764  49.353  1.00  0.00     0.169 HD
ENDROOT
BRANCH  15  26
HETATM   26  N2  UNL     1      20.730   2.205  51.360  1.00  0.00    -0.411 N 
HETATM   27  H12 UNL     1      20.330   1.429  50.780  1.00  0.00     0.153 HD
BRANCH  26  28
HETATM   28  C14 UNL     1      20.475   1.920  52.736  1.00  0.00     0.153 C 
BRANCH  28  29
HETATM   29  C15 UNL     1      21.208   0.757  53.296  1.00  0.00    -0.038 A 
HETATM   30  C16 UNL     1      20.834   0.330  54.573  1.00  0.00     0.028 A 
HETATM   31  C17 UNL     1      21.573  -0.761  54.983  1.00  0.00     0.116 A 
HETATM   32  N3  UNL     1      22.540  -1.347  54.249  1.00  0.00    -0.273 NA
HETATM   33  C18 UNL     1      22.860  -0.889  53.018  1.00  0.00     0.116 A 
HETATM   34  C19 UNL     1      22.202   0.199  52.474  1.00  0.00     0.028 A 
ENDBRANCH  28  29
ENDBRANCH  26  28
ENDBRANCH  15  26
TORSDOF 3
ENDMDL
MODEL 9
REMARK VINA RESULT:      -8.6      2.458      7.400
REMARK  3 active torsions:
REMARK  status: ('A' for Active; 'I' for Inactive)
REMARK    1  A    between atoms: C13_15  and  N2_16 
REMARK    2  A    between atoms: N2_16  and  C14_17 
REMARK    3  A    between atoms: C14_17  and  C15_18 
ROOT
HETATM    1  O1  UNL     1      20.584   0.773  50.938  1.00  0.00    -0.273 OA
HETATM    2  C1  UNL     1      20.496   1.975  51.348  1.00  0.00     0.229 C 
HETATM    3  N1  UNL     1      20.871   2.240  52.664  1.00  0.00    -0.326 N 
HETATM    4  C2  UNL     1      21.340   1.038  53.249  1.00  0.00     0.043 A 
HETATM    5  C3  UNL     1      20.628   0.239  54.060  1.00  0.00     0.030 A 
HETATM    6  C4  UNL     1      21.215  -0.888  54.569  1.00  0.00     0.002 A 
HETATM    7  C5  UNL     1      22.524  -1.141  54.213  1.00  0.00     0.001 A 
HETATM    8  C6  UNL     1      23.141  -0.237  53.368  1.00  0.00     0.011 A 
HETATM    9  C7  UNL     1      22.640   0.938  52.794  1.00  0.00    -0.006 A 
HETATM   10  C8  UNL     1      23.707   1.549  51.946  1.00  0.00     0.146 C 
HETATM   11  C9  UNL     1      24.371   2.642  52.767  1.00  0.00     0.059 C 
HETATM   12  C10 UNL     1      23.726   3.941  52.796  1.00  0.00    -0.028 C 
HETATM   13  C11 UNL     1      22.726   4.780  52.423  1.00  0.00    -0.023 C 
HETATM   14  C12 UNL     1      21.461   5.082  51.687  1.00  0.00     0.107 C 
HETATM   15  C13 UNL     1      20.592   4.365  50.900  1.00  0.00     0.031 C 
HETATM   16  C20 UNL     1      19.999   3.089  50.373  1.00  0.00     0.110 C 
HETATM   17  C21 UNL     1      20.673   2.671  49.100  1.00  0.00     0.036 A 
HETATM   18  C22 UNL     1      19.946   2.921  47.886  1.00  0.00    -0.020 A 
HETATM   19  C23 UNL     1      20.330   3.228  46.665  1.00  0.00    -0.004 A 
HETATM   20  C24 UNL     1      21.792   3.371  46.451  1.00  0.00    -0.004 A 
HETATM   21  C25 UNL     1      22.466   3.185  47.594  1.00  0.00    -0.016 A 
HETATM   22  C26 UNL     1      22.121   2.892  48.996  1.00  0.00     0.057 A 
HETATM   23  C27 UNL     1      23.043   1.921  49.572  1.00  0.00     0.093 C 
HETATM   24  N4  UNL     1      23.152   1.994  50.765  1.00  0.00    -0.295 NA
HETATM   25  H1  UNL     1      21.000   2.847  53.497  1.00  0.00     0.169 HD
ENDROOT
BRANCH  15  26
HETATM   26  N2  UNL     1      19.656   5.439  50.580  1.00  0.00    -0.411 N 
HETATM   27  H12 UNL     1      18.982   5.685  51.344  1.00  0.00     0.153 HD
BRANCH  26  28
HETATM   28  C14 UNL     1      19.384   6.269  49.450  1.00  0.00     0.153 C 
BRANCH  28  29
HETATM   29  C15 UNL     1      20.523   7.091  48.970  1.00  0.00    -0.038 A 
HETATM   30  C16 UNL     1      21.133   6.688  47.779  1.00  0.00     0.028 A 
HETATM   31  C17 UNL     1      22.168   7.531  47.426  1.00  0.00     0.116 A 
HETATM   32  N3  UNL     1      22.550   8.610  48.138  1.00  0.00    -0.273 NA
HETATM   33  C18 UNL     1      21.922   8.951  49.286  1.00  0.00     0.116 A 
HETATM   34  C19 UNL     1      20.865   8.199  49.764  1.00  0.00     0.028 A 
ENDBRANCH  28  29
ENDBRANCH  26  28
ENDBRANCH  15  26
TORSDOF 3
ENDMDL
