MODEL 1
REMARK VINA RESULT:      -7.8      0.000      0.000
REMARK  3 active torsions:
REMARK  status: ('A' for Active; 'I' for Inactive)
REMARK    1  A    between atoms: N1_7  and  C7_8 
REMARK    2  A    between atoms: C13_15  and  N4_19 
REMARK    3  A    between atoms: C15_18  and  N4_19 
ROOT
HETATM    1  C7  UNL     1      25.163  -0.193  53.702  1.00  0.00     0.724 C 
HETATM    2  N2  UNL     1      25.738   0.787  54.469  1.00  0.00    -0.079 NA
HETATM    3  C8  UNL     1      26.029   2.033  53.972  1.00  0.00     0.116 C 
HETATM    4  C9  UNL     1      27.407   2.323  53.619  1.00  0.00     0.050 A 
HETATM    5  C10 UNL     1      27.364   1.415  52.527  1.00  0.00     0.002 A 
HETATM    6  C11 UNL     1      26.718   1.972  51.403  1.00  0.00    -0.035 A 
HETATM    7  C12 UNL     1      26.757   0.599  51.410  1.00  0.00     0.031 A 
HETATM    8  C13 UNL     1      27.374  -0.020  52.476  1.00  0.00     0.009 A 
HETATM    9  C14 UNL     1      26.893  -1.353  52.479  1.00  0.00     0.143 A 
HETATM   10  N3  UNL     1      25.604  -1.228  52.937  1.00  0.00    -0.099 NA
HETATM   11  C15 UNL     1      28.001  -0.587  53.564  1.00  0.00     0.031 A 
HETATM   12  N4  UNL     1      27.965   0.752  53.566  1.00  0.00     0.000 N 
ENDROOT
BRANCH   1  13
HETATM   13  N1  UNL     1      23.712  -0.147  53.714  1.00  0.00    -0.180 N 
HETATM   14  C5  UNL     1      22.907  -0.771  54.715  1.00  0.00     0.025 A 
HETATM   15  C4  UNL     1      21.599  -0.655  54.778  1.00  0.00     0.025 A 
HETATM   16  C6  UNL     1      23.532  -1.581  55.768  1.00  0.00     0.069 C 
HETATM   17  C3  UNL     1      20.869   0.105  53.809  1.00  0.00     0.006 A 
HETATM   18  C2  UNL     1      21.591   0.669  52.862  1.00  0.00    -0.065 A 
HETATM   19  C1  UNL     1      20.945   1.491  51.792  1.00  0.00     0.045 C 
HETATM   20  C16 UNL     1      23.039   0.610  52.646  1.00  0.00     0.181 A 
ENDBRANCH   1  13
TORSDOF 3
ENDMDL
MODEL 2
REMARK VINA RESULT:      -7.3      2.199      4.297
REMARK  3 active torsions:
REMARK  status: ('A' for Active; 'I' for Inactive)
REMARK    1  A    between atoms: N1_7  and  C7_8 
REMARK    2  A    between atoms: C13_15  and  N4_19 
REMARK    3  A    between atoms: C15_18  and  N4_19 
ROOT
HETATM    1  C7  UNL     1      25.112   1.802  52.810  1.00  0.00     0.724 C 
HETATM    2  N2  UNL     1      25.917   2.103  53.879  1.00  0.00    -0.079 NA
HETATM    3  C8  UNL     1      27.257   1.802  53.897  1.00  0.00     0.116 C 
HETATM    4  C9  UNL     1      27.685   0.641  54.656  1.00  0.00     0.050 A 
HETATM    5  C10 UNL     1      27.049  -0.244  53.743  1.00  0.00     0.002 A 
HETATM    6  C11 UNL     1      27.817  -0.438  52.576  1.00  0.00    -0.035 A 
HETATM    7  C12 UNL     1      26.482  -0.727  52.430  1.00  0.00     0.031 A 
HETATM    8  C13 UNL     1      25.667  -0.564  53.529  1.00  0.00     0.009 A 
HETATM    9  C14 UNL     1      24.346  -0.479  53.019  1.00  0.00     0.143 A 
HETATM   10  N3  UNL     1      24.302   0.771  52.451  1.00  0.00    -0.099 NA
HETATM   11  C15 UNL     1      24.897  -0.383  54.657  1.00  0.00     0.031 A 
HETATM   12  N4  UNL     1      26.197  -0.096  54.807  1.00  0.00     0.000 N 
ENDROOT
BRANCH   1  13
HETATM   13  N1  UNL     1      25.085   2.849  51.806  1.00  0.00    -0.180 N 
HETATM   14  C5  UNL     1      24.068   3.849  51.729  1.00  0.00     0.025 A 
HETATM   15  C4  UNL     1      24.090   4.850  50.877  1.00  0.00     0.025 A 
HETATM   16  C6  UNL     1      22.924   3.812  52.648  1.00  0.00     0.069 C 
HETATM   17  C3  UNL     1      25.149   4.998  49.926  1.00  0.00     0.006 A 
HETATM   18  C2  UNL     1      26.085   4.072  49.963  1.00  0.00    -0.065 A 
HETATM   19  C1  UNL     1      27.246   4.117  49.022  1.00  0.00     0.045 C 
HETATM   20  C16 UNL     1      26.185   2.894  50.829  1.00  0.00     0.181 A 
ENDBRANCH   1  13
TORSDOF 3
ENDMDL
MODEL 3
REMARK VINA RESULT:      -7.3      2.645      5.273
REMARK  3 active torsions:
REMARK  status: ('A' for Active; 'I' for Inactive)
REMARK    1  A    between atoms: N1_7  and  C7_8 
REMARK    2  A    between atoms: C13_15  and  N4_19 
REMARK    3  A    between atoms: C15_18  and  N4_19 
ROOT
HETATM    1  C7  UNL     1      26.324   2.423  51.935  1.00  0.00     0.724 C 
HETATM    2  N2  UNL     1      25.466   2.919  52.883  1.00  0.00    -0.079 NA
HETATM    3  C8  UNL     1      24.176   2.466  53.016  1.00  0.00     0.116 C 
HETATM    4  C9  UNL     1      23.107   3.284  52.472  1.00  0.00     0.050 A 
HETATM    5  C10 UNL     1      23.528   3.025  51.140  1.00  0.00     0.002 A 
HETATM    6  C11 UNL     1      23.100   1.758  50.689  1.00  0.00    -0.035 A 
HETATM    7  C12 UNL     1      24.169   2.273  49.998  1.00  0.00     0.031 A 
HETATM    8  C13 UNL     1      24.644   3.509  50.379  1.00  0.00     0.009 A 
HETATM    9  C14 UNL     1      25.959   3.595  49.855  1.00  0.00     0.143 A 
HETATM   10  N3  UNL     1      26.683   2.755  50.666  1.00  0.00    -0.099 NA
HETATM   11  C15 UNL     1      25.080   4.746  50.801  1.00  0.00     0.031 A 
HETATM   12  N4  UNL     1      24.039   4.250  51.482  1.00  0.00     0.000 N 
ENDROOT
BRANCH   1  13
HETATM   13  N1  UNL     1      27.064   1.261  52.390  1.00  0.00    -0.180 N 
HETATM   14  C5  UNL     1      28.227   1.335  53.217  1.00  0.00     0.025 A 
HETATM   15  C4  UNL     1      28.846   0.282  53.703  1.00  0.00     0.025 A 
HETATM   16  C6  UNL     1      28.787   2.640  53.591  1.00  0.00     0.069 C 
HETATM   17  C3  UNL     1      28.402  -1.047  53.411  1.00  0.00     0.006 A 
HETATM   18  C2  UNL     1      27.345  -1.138  52.630  1.00  0.00    -0.065 A 
HETATM   19  C1  UNL     1      26.782  -2.472  52.253  1.00  0.00     0.045 C 
HETATM   20  C16 UNL     1      26.571  -0.068  51.996  1.00  0.00     0.181 A 
ENDBRANCH   1  13
TORSDOF 3
ENDMDL
MODEL 4
REMARK VINA RESULT:      -7.1      2.226      4.141
REMARK  3 active torsions:
REMARK  status: ('A' for Active; 'I' for Inactive)
REMARK    1  A    between atoms: N1_7  and  C7_8 
REMARK    2  A    between atoms: C13_15  and  N4_19 
REMARK    3  A    between atoms: C15_18  and  N4_19 
ROOT
HETATM    1  C7  UNL     1      26.671   1.675  52.109  1.00  0.00     0.724 C 
HETATM    2  N2  UNL     1      26.793   0.396  51.632  1.00  0.00    -0.079 NA
HETATM    3  C8  UNL     1      26.188  -0.676  52.240  1.00  0.00     0.116 C 
HETATM    4  C9  UNL     1      27.007  -1.539  53.072  1.00  0.00     0.050 A 
HETATM    5  C10 UNL     1      27.171  -0.518  54.046  1.00  0.00     0.002 A 
HETATM    6  C11 UNL     1      26.040  -0.399  54.881  1.00  0.00    -0.035 A 
HETATM    7  C12 UNL     1      26.835   0.720  54.844  1.00  0.00     0.031 A 
HETATM    8  C13 UNL     1      27.961   0.681  54.050  1.00  0.00     0.009 A 
HETATM    9  C14 UNL     1      28.325   2.033  53.832  1.00  0.00     0.143 A 
HETATM   10  N3  UNL     1      27.376   2.483  52.947  1.00  0.00    -0.099 NA
HETATM   11  C15 UNL     1      29.072   0.589  53.241  1.00  0.00     0.031 A 
HETATM   12  N4  UNL     1      28.301  -0.506  53.271  1.00  0.00     0.000 N 
ENDROOT
BRANCH   1  13
HETATM   13  N1  UNL     1      25.513   2.372  51.580  1.00  0.00    -0.180 N 
HETATM   14  C5  UNL     1      25.534   3.149  50.381  1.00  0.00     0.025 A 
HETATM   15  C4  UNL     1      24.467   3.706  49.853  1.00  0.00     0.025 A 
HETATM   16  C6  UNL     1      26.792   3.346  49.650  1.00  0.00     0.069 C 
HETATM   17  C3  UNL     1      23.181   3.591  50.470  1.00  0.00     0.006 A 
HETATM   18  C2  UNL     1      23.144   2.899  51.590  1.00  0.00    -0.065 A 
HETATM   19  C1  UNL     1      21.858   2.704  52.329  1.00  0.00     0.045 C 
HETATM   20  C16 UNL     1      24.241   2.247  52.309  1.00  0.00     0.181 A 
ENDBRANCH   1  13
TORSDOF 3
ENDMDL
MODEL 5
REMARK VINA RESULT:      -7.1      1.386      3.192
REMARK  3 active torsions:
REMARK  status: ('A' for Active; 'I' for Inactive)
REMARK    1  A    between atoms: N1_7  and  C7_8 
REMARK    2  A    between atoms: C13_15  and  N4_19 
REMARK    3  A    between atoms: C15_18  and  N4_19 
ROOT
HETATM    1  C7  UNL     1      24.927   1.054  52.561  1.00  0.00     0.724 C 
HETATM    2  N2  UNL     1      25.739   0.155  51.919  1.00  0.00    -0.079 NA
HETATM    3  C8  UNL     1      26.262  -0.945  52.553  1.00  0.00     0.116 C 
HETATM    4  C9  UNL     1      27.650  -0.893  52.977  1.00  0.00     0.050 A 
HETATM    5  C10 UNL     1      27.356   0.084  53.966  1.00  0.00     0.002 A 
HETATM    6  C11 UNL     1      26.785  -0.490  55.121  1.00  0.00    -0.035 A 
HETATM    7  C12 UNL     1      26.530   0.851  54.972  1.00  0.00     0.031 A 
HETATM    8  C13 UNL     1      27.056   1.484  53.867  1.00  0.00     0.009 A 
HETATM    9  C14 UNL     1      26.302   2.675  53.709  1.00  0.00     0.143 A 
HETATM   10  N3  UNL     1      25.096   2.228  53.227  1.00  0.00    -0.099 NA
HETATM   11  C15 UNL     1      27.605   2.068  52.745  1.00  0.00     0.031 A 
HETATM   12  N4  UNL     1      27.856   0.759  52.883  1.00  0.00     0.000 N 
ENDROOT
BRANCH   1  13
HETATM   13  N1  UNL     1      23.523   0.692  52.509  1.00  0.00    -0.180 N 
HETATM   14  C5  UNL     1      22.631   1.119  51.478  1.00  0.00     0.025 A 
HETATM   15  C4  UNL     1      21.382   0.719  51.380  1.00  0.00     0.025 A 
HETATM   16  C6  UNL     1      23.096   2.039  50.433  1.00  0.00     0.069 C 
HETATM   17  C3  UNL     1      20.807  -0.175  52.337  1.00  0.00     0.006 A 
HETATM   18  C2  UNL     1      21.606  -0.562  53.311  1.00  0.00    -0.065 A 
HETATM   19  C1  UNL     1      21.123  -1.499  54.373  1.00  0.00     0.045 C 
HETATM   20  C16 UNL     1      22.999  -0.187  53.567  1.00  0.00     0.181 A 
ENDBRANCH   1  13
TORSDOF 3
ENDMDL
MODEL 6
REMARK VINA RESULT:      -7.0      1.930      5.179
REMARK  3 active torsions:
REMARK  status: ('A' for Active; 'I' for Inactive)
REMARK    1  A    between atoms: N1_7  and  C7_8 
REMARK    2  A    between atoms: C13_15  and  N4_19 
REMARK    3  A    between atoms: C15_18  and  N4_19 
ROOT
HETATM    1  C7  UNL     1      25.609   0.600  52.386  1.00  0.00     0.724 C 
HETATM    2  N2  UNL     1      25.680   1.160  51.136  1.00  0.00    -0.079 NA
HETATM    3  C8  UNL     1      25.776   2.516  50.943  1.00  0.00     0.116 C 
HETATM    4  C9  UNL     1      24.577   3.236  50.552  1.00  0.00     0.050 A 
HETATM    5  C10 UNL     1      23.978   3.015  51.821  1.00  0.00     0.002 A 
HETATM    6  C11 UNL     1      24.470   3.905  52.799  1.00  0.00    -0.035 A 
HETATM    7  C12 UNL     1      23.906   2.761  53.308  1.00  0.00     0.031 A 
HETATM    8  C13 UNL     1      23.400   1.842  52.414  1.00  0.00     0.009 A 
HETATM    9  C14 UNL     1      23.310   0.620  53.127  1.00  0.00     0.143 A 
HETATM   10  N3  UNL     1      24.618   0.214  53.234  1.00  0.00    -0.099 NA
HETATM   11  C15 UNL     1      22.911   0.957  51.478  1.00  0.00     0.031 A 
HETATM   12  N4  UNL     1      23.462   2.069  50.973  1.00  0.00     0.000 N 
ENDROOT
BRANCH   1  13
HETATM   13  N1  UNL     1      26.912   0.317  52.958  1.00  0.00    -0.180 N 
HETATM   14  C5  UNL     1      27.546  -0.961  52.893  1.00  0.00     0.025 A 
HETATM   15  C4  UNL     1      28.764  -1.196  53.331  1.00  0.00     0.025 A 
HETATM   16  C6  UNL     1      26.848  -2.104  52.292  1.00  0.00     0.069 C 
HETATM   17  C3  UNL     1      29.550  -0.167  53.941  1.00  0.00     0.006 A 
HETATM   18  C2  UNL     1      28.973   1.014  54.033  1.00  0.00    -0.065 A 
HETATM   19  C1  UNL     1      29.692   2.172  54.648  1.00  0.00     0.045 C 
HETATM   20  C16 UNL     1      27.628   1.420  53.618  1.00  0.00     0.181 A 
ENDBRANCH   1  13
TORSDOF 3
ENDMDL
MODEL 7
REMARK VINA RESULT:      -7.0      1.388      2.081
REMARK  3 active torsions:
REMARK  status: ('A' for Active; 'I' for Inactive)
REMARK    1  A    between atoms: N1_7  and  C7_8 
REMARK    2  A    between atoms: C13_15  and  N4_19 
REMARK    3  A    between atoms: C15_18  and  N4_19 
ROOT
HETATM    1  C7  UNL     1      23.696   0.510  53.247  1.00  0.00     0.724 C 
HETATM    2  N2  UNL     1      24.074   1.756  53.677  1.00  0.00    -0.079 NA
HETATM    3  C8  UNL     1      24.833   2.601  52.906  1.00  0.00     0.116 C 
HETATM    4  C9  UNL     1      26.248   2.715  53.209  1.00  0.00     0.050 A 
HETATM    5  C10 UNL     1      26.493   1.385  52.773  1.00  0.00     0.002 A 
HETATM    6  C11 UNL     1      26.566   1.295  51.367  1.00  0.00    -0.035 A 
HETATM    7  C12 UNL     1      26.283   0.107  51.995  1.00  0.00     0.031 A 
HETATM    8  C13 UNL     1      26.196   0.113  53.371  1.00  0.00     0.009 A 
HETATM    9  C14 UNL     1      25.474  -1.057  53.716  1.00  0.00     0.143 A 
HETATM   10  N3  UNL     1      24.183  -0.755  53.354  1.00  0.00    -0.099 NA
HETATM   11  C15 UNL     1      26.120   0.176  54.745  1.00  0.00     0.031 A 
HETATM   12  N4  UNL     1      26.394   1.339  54.140  1.00  0.00     0.000 N 
ENDROOT
BRANCH   1  13
HETATM   13  N1  UNL     1      22.448   0.518  52.506  1.00  0.00    -0.180 N 
HETATM   14  C5  UNL     1      21.163   0.381  53.115  1.00  0.00     0.025 A 
HETATM   15  C4  UNL     1      20.029   0.478  52.457  1.00  0.00     0.025 A 
HETATM   16  C6  UNL     1      21.051   0.140  54.559  1.00  0.00     0.069 C 
HETATM   17  C3  UNL     1      20.002   0.708  51.045  1.00  0.00     0.006 A 
HETATM   18  C2  UNL     1      21.177   0.812  50.460  1.00  0.00    -0.065 A 
HETATM   19  C1  UNL     1      21.283   1.057  48.987  1.00  0.00     0.045 C 
HETATM   20  C16 UNL     1      22.515   0.703  51.048  1.00  0.00     0.181 A 
ENDBRANCH   1  13
TORSDOF 3
ENDMDL
MODEL 8
REMARK VINA RESULT:      -6.9      3.351      5.320
REMARK  3 active torsions:
REMARK  status: ('A' for Active; 'I' for Inactive)
REMARK    1  A    between atoms: N1_7  and  C7_8 
REMARK    2  A    between atoms: C13_15  and  N4_19 
REMARK    3  A    between atoms: C15_18  and  N4_19 
ROOT
HETATM    1  C7  UNL     1      23.230   2.782  51.841  1.00  0.00     0.724 C 
HETATM    2  N2  UNL     1      22.533   2.530  50.688  1.00  0.00    -0.079 NA
HETATM    3  C8  UNL     1      23.130   2.541  49.451  1.00  0.00     0.116 C 
HETATM    4  C9  UNL     1      22.939   3.710  48.611  1.00  0.00     0.050 A 
HETATM    5  C10 UNL     1      23.720   4.516  49.482  1.00  0.00     0.002 A 
HETATM    6  C11 UNL     1      25.103   4.318  49.287  1.00  0.00    -0.035 A 
HETATM    7  C12 UNL     1      24.775   4.847  50.512  1.00  0.00     0.031 A 
HETATM    8  C13 UNL     1      23.442   5.072  50.776  1.00  0.00     0.009 A 
HETATM    9  C14 UNL     1      23.340   5.170  52.187  1.00  0.00     0.143 A 
HETATM   10  N3  UNL     1      23.494   3.872  52.611  1.00  0.00    -0.099 NA
HETATM   11  C15 UNL     1      22.096   5.276  50.990  1.00  0.00     0.031 A 
HETATM   12  N4  UNL     1      22.407   4.757  49.795  1.00  0.00     0.000 N 
ENDROOT
BRANCH   1  13
HETATM   13  N1  UNL     1      23.827   1.591  52.417  1.00  0.00    -0.180 N 
HETATM   14  C5  UNL     1      23.092   0.614  53.156  1.00  0.00     0.025 A 
HETATM   15  C4  UNL     1      23.612  -0.509  53.601  1.00  0.00     0.025 A 
HETATM   16  C6  UNL     1      21.666   0.818  53.439  1.00  0.00     0.069 C 
HETATM   17  C3  UNL     1      24.992  -0.827  53.393  1.00  0.00     0.006 A 
HETATM   18  C2  UNL     1      25.694   0.074  52.736  1.00  0.00    -0.065 A 
HETATM   19  C1  UNL     1      27.147  -0.142  52.453  1.00  0.00     0.045 C 
HETATM   20  C16 UNL     1      25.266   1.371  52.205  1.00  0.00     0.181 A 
ENDBRANCH   1  13
TORSDOF 3
ENDMDL
MODEL 9
REMARK VINA RESULT:      -6.9      1.161      2.410
REMARK  3 active torsions:
REMARK  status: ('A' for Active; 'I' for Inactive)
REMARK    1  A    between atoms: N1_7  and  C7_8 
REMARK    2  A    between atoms: C13_15  and  N4_19 
REMARK    3  A    between atoms: C15_18  and  N4_19 
ROOT
HETATM    1  C7  UNL     1      24.530   0.633  52.893  1.00  0.00     0.724 C 
HETATM    2  N2  UNL     1      25.343  -0.204  52.174  1.00  0.00    -0.079 NA
HETATM    3  C8  UNL     1      26.204  -1.088  52.776  1.00  0.00     0.116 C 
HETATM    4  C9  UNL     1      27.612  -0.737  52.835  1.00  0.00     0.050 A 
HETATM    5  C10 UNL     1      27.354   0.317  53.753  1.00  0.00     0.002 A 
HETATM    6  C11 UNL     1      27.180  -0.161  55.069  1.00  0.00    -0.035 A 
HETATM    7  C12 UNL     1      26.634   1.079  54.841  1.00  0.00     0.031 A 
HETATM    8  C13 UNL     1      26.764   1.614  53.578  1.00  0.00     0.009 A 
HETATM    9  C14 UNL     1      25.770   2.620  53.482  1.00  0.00     0.143 A 
HETATM   10  N3  UNL     1      24.602   1.907  53.364  1.00  0.00    -0.099 NA
HETATM   11  C15 UNL     1      26.921   2.102  52.299  1.00  0.00     0.031 A 
HETATM   12  N4  UNL     1      27.455   0.892  52.513  1.00  0.00     0.000 N 
ENDROOT
BRANCH   1  13
HETATM   13  N1  UNL     1      23.252   0.034  53.229  1.00  0.00    -0.180 N 
HETATM   14  C5  UNL     1      23.034  -0.775  54.387  1.00  0.00     0.025 A 
HETATM   15  C4  UNL     1      21.858  -1.243  54.740  1.00  0.00     0.025 A 
HETATM   16  C6  UNL     1      24.154  -1.110  55.275  1.00  0.00     0.069 C 
HETATM   17  C3  UNL     1      20.687  -0.990  53.957  1.00  0.00     0.006 A 
HETATM   18  C2  UNL     1      20.870  -0.267  52.872  1.00  0.00    -0.065 A 
HETATM   19  C1  UNL     1      19.724   0.069  51.971  1.00  0.00     0.045 C 
HETATM   20  C16 UNL     1      22.111   0.299  52.337  1.00  0.00     0.181 A 
ENDBRANCH   1  13
TORSDOF 3
ENDMDL
