MODEL 1
REMARK VINA RESULT:      -9.3      0.000      0.000
REMARK  8 active torsions:
REMARK  status: ('A' for Active; 'I' for Inactive)
REMARK    1  A    between atoms: O1_2  and  C2_3 
REMARK    2  A    between atoms: C5_6  and  N1_7 
REMARK    3  A    between atoms: C9_11  and  N2_12 
REMARK    4  A    between atoms: C10_13  and  C11_14 
REMARK    5  A    between atoms: C12_15  and  C13_16 
REMARK    6  A    between atoms: C14_17  and  N3_18 
REMARK    7  A    between atoms: N5_21  and  C16_22 
REMARK    8  A    between atoms: C19_25  and  O2_26 
ROOT
HETATM    1  N1  UNL     1      23.305   1.113  52.074  1.00  0.00    -0.295 N 
HETATM    2  C6  UNL     1      23.363   1.871  50.841  1.00  0.00     0.176 A 
HETATM    3  C7  UNL     1      24.720   2.361  50.575  1.00  0.00     0.006 A 
HETATM    4  C8  UNL     1      25.030   3.078  49.515  1.00  0.00     0.035 A 
HETATM    5  C9  UNL     1      26.473   3.404  49.553  1.00  0.00     0.255 A 
HETATM    6  N4  UNL     1      26.924   2.783  50.758  1.00  0.00    -0.240 NA
HETATM    7  C15 UNL     1      25.942   2.193  51.338  1.00  0.00     0.139 A 
HETATM    8  N5  UNL     1      25.773   1.425  52.541  1.00  0.00    -0.278 N 
HETATM    9  C21 UNL     1      24.471   0.935  52.832  1.00  0.00     0.331 A 
HETATM   10  O3  UNL     1      24.457   0.294  53.888  1.00  0.00    -0.246 OA
ENDROOT
BRANCH   5  11
HETATM   11  N2  UNL     1      26.722   4.819  49.506  1.00  0.00    -0.270 NA
HETATM   12  C10 UNL     1      27.294   5.472  48.576  1.00  0.00     0.113 C 
BRANCH  12  13
HETATM   13  C11 UNL     1      27.561   6.899  48.496  1.00  0.00     0.019 C 
HETATM   14  C12 UNL     1      26.993   7.843  49.217  1.00  0.00     0.003 C 
BRANCH  14  15
HETATM   15  C13 UNL     1      25.983   7.820  50.262  1.00  0.00     0.017 C 
HETATM   16  C14 UNL     1      24.651   7.728  50.256  1.00  0.00     0.080 C 
BRANCH  16  17
HETATM   17  N3  UNL     1      23.950   7.735  51.487  1.00  0.00    -0.408 N 
HETATM   18  H15 UNL     1      22.965   8.057  51.495  1.00  0.00     0.155 HD
HETATM   19  H16 UNL     1      23.975   7.538  52.520  1.00  0.00     0.155 HD
ENDBRANCH  16  17
ENDBRANCH  14  15
ENDBRANCH  12  13
ENDBRANCH   5  11
BRANCH   8  20
HETATM   20  C16 UNL     1      26.927   1.202  53.372  1.00  0.00     0.099 C 
HETATM   21  C17 UNL     1      27.855   2.370  53.500  1.00  0.00     0.028 C 
HETATM   22  C18 UNL     1      29.116   1.732  54.082  1.00  0.00     0.034 C 
HETATM   23  C19 UNL     1      28.997   0.245  53.858  1.00  0.00     0.120 C 
HETATM   24  C20 UNL     1      27.824   0.088  52.886  1.00  0.00     0.057 C 
BRANCH  23  25
HETATM   25  O2  UNL     1      28.648  -0.438  55.007  1.00  0.00    -0.396 OA
HETATM   26  H23 UNL     1      28.163   0.114  55.664  1.00  0.00     0.210 HD
ENDBRANCH  23  25
ENDBRANCH   8  20
BRANCH   1  27
HETATM   27  C5  UNL     1      22.026   0.609  52.401  1.00  0.00     0.039 A 
HETATM   28  C4  UNL     1      21.647   0.010  53.556  1.00  0.00     0.032 A 
HETATM   29  C3  UNL     1      20.390  -0.471  53.846  1.00  0.00     0.039 A 
HETATM   30  C2  UNL     1      19.393  -0.353  52.904  1.00  0.00     0.068 A 
HETATM   31  C23 UNL     1      19.699   0.236  51.723  1.00  0.00     0.039 A 
HETATM   32  C22 UNL     1      20.971   0.690  51.507  1.00  0.00     0.032 A 
BRANCH  30  33
HETATM   33  O1  UNL     1      18.123  -0.817  53.146  1.00  0.00    -0.356 OA
HETATM   34  C1  UNL     1      17.831  -2.144  53.538  1.00  0.00     0.210 C 
ENDBRANCH  30  33
ENDBRANCH   1  27
TORSDOF 8
ENDMDL
MODEL 2
REMARK VINA RESULT:      -8.9      1.029      1.887
REMARK  8 active torsions:
REMARK  status: ('A' for Active; 'I' for Inactive)
REMARK    1  A    between atoms: O1_2  and  C2_3 
REMARK    2  A    between atoms: C5_6  and  N1_7 
REMARK    3  A    between atoms: C9_11  and  N2_12 
REMARK    4  A    between atoms: C10_13  and  C11_14 
REMARK    5  A    between atoms: C12_15  and  C13_16 
REMARK    6  A    between atoms: C14_17  and  N3_18 
REMARK    7  A    between atoms: N5_21  and  C16_22 
REMARK    8  A    between atoms: C19_25  and  O2_26 
ROOT
HETATM    1  N1  UNL     1      23.221   1.039  52.142  1.00  0.00    -0.295 N 
HETATM    2  C6  UNL     1      23.242   1.819  50.922  1.00  0.00     0.176 A 
HETATM    3  C7  UNL     1      24.585   2.337  50.638  1.00  0.00     0.006 A 
HETATM    4  C8  UNL     1      24.862   3.077  49.585  1.00  0.00     0.035 A 
HETATM    5  C9  UNL     1      26.299   3.427  49.601  1.00  0.00     0.255 A 
HETATM    6  N4  UNL     1      26.785   2.794  50.786  1.00  0.00    -0.240 NA
HETATM    7  C15 UNL     1      25.824   2.177  51.375  1.00  0.00     0.139 A 
HETATM    8  N5  UNL     1      25.692   1.386  52.567  1.00  0.00    -0.278 N 
HETATM    9  C21 UNL     1      24.404   0.868  52.875  1.00  0.00     0.331 A 
HETATM   10  O3  UNL     1      24.422   0.209  53.918  1.00  0.00    -0.246 OA
ENDROOT
BRANCH   5  11
HETATM   11  N2  UNL     1      26.524   4.848  49.574  1.00  0.00    -0.270 NA
HETATM   12  C10 UNL     1      25.930   5.709  48.851  1.00  0.00     0.113 C 
BRANCH  12  13
HETATM   13  C11 UNL     1      26.131   7.148  48.798  1.00  0.00     0.019 C 
HETATM   14  C12 UNL     1      27.187   7.774  48.325  1.00  0.00     0.003 C 
BRANCH  14  15
HETATM   15  C13 UNL     1      28.432   7.311  47.733  1.00  0.00     0.017 C 
HETATM   16  C14 UNL     1      29.560   6.802  48.237  1.00  0.00     0.080 C 
BRANCH  16  17
HETATM   17  N3  UNL     1      30.611   6.443  47.359  1.00  0.00    -0.408 N 
HETATM   18  H15 UNL     1      30.915   5.452  47.327  1.00  0.00     0.155 HD
HETATM   19  H16 UNL     1      31.308   6.760  46.637  1.00  0.00     0.155 HD
ENDBRANCH  16  17
ENDBRANCH  14  15
ENDBRANCH  12  13
ENDBRANCH   5  11
BRANCH   8  20
HETATM   20  C16 UNL     1      26.866   1.168  53.371  1.00  0.00     0.099 C 
HETATM   21  C17 UNL     1      27.790   2.341  53.480  1.00  0.00     0.028 C 
HETATM   22  C18 UNL     1      29.067   1.710  54.032  1.00  0.00     0.034 C 
HETATM   23  C19 UNL     1      28.951   0.223  53.808  1.00  0.00     0.120 C 
HETATM   24  C20 UNL     1      27.759   0.061  52.863  1.00  0.00     0.057 C 
BRANCH  23  25
HETATM   25  O2  UNL     1      28.633  -0.464  54.964  1.00  0.00    -0.396 OA
HETATM   26  H23 UNL     1      28.146  -1.307  54.803  1.00  0.00     0.210 HD
ENDBRANCH  23  25
ENDBRANCH   8  20
BRANCH   1  27
HETATM   27  C5  UNL     1      21.957   0.508  52.485  1.00  0.00     0.039 A 
HETATM   28  C4  UNL     1      21.637  -0.212  53.588  1.00  0.00     0.032 A 
HETATM   29  C3  UNL     1      20.394  -0.716  53.896  1.00  0.00     0.039 A 
HETATM   30  C2  UNL     1      19.347  -0.493  53.030  1.00  0.00     0.068 A 
HETATM   31  C23 UNL     1      19.592   0.220  51.904  1.00  0.00     0.039 A 
HETATM   32  C22 UNL     1      20.855   0.689  51.667  1.00  0.00     0.032 A 
BRANCH  30  33
HETATM   33  O1  UNL     1      18.088  -0.976  53.292  1.00  0.00    -0.356 OA
HETATM   34  C1  UNL     1      17.808  -2.334  53.568  1.00  0.00     0.210 C 
ENDBRANCH  30  33
ENDBRANCH   1  27
TORSDOF 8
ENDMDL
MODEL 3
REMARK VINA RESULT:      -8.6      3.268      6.073
REMARK  8 active torsions:
REMARK  status: ('A' for Active; 'I' for Inactive)
REMARK    1  A    between atoms: O1_2  and  C2_3 
REMARK    2  A    between atoms: C5_6  and  N1_7 
REMARK    3  A    between atoms: C9_11  and  N2_12 
REMARK    4  A    between atoms: C10_13  and  C11_14 
REMARK    5  A    between atoms: C12_15  and  C13_16 
REMARK    6  A    between atoms: C14_17  and  N3_18 
REMARK    7  A    between atoms: N5_21  and  C16_22 
REMARK    8  A    between atoms: C19_25  and  O2_26 
ROOT
HETATM    1  N1  UNL     1      20.364   0.806  51.741  1.00  0.00    -0.295 N 
HETATM    2  C6  UNL     1      21.197  -0.095  52.511  1.00  0.00     0.176 A 
HETATM    3  C7  UNL     1      22.513   0.491  52.787  1.00  0.00     0.006 A 
HETATM    4  C8  UNL     1      23.450  -0.134  53.469  1.00  0.00     0.035 A 
HETATM    5  C9  UNL     1      24.644   0.734  53.564  1.00  0.00     0.255 A 
HETATM    6  N4  UNL     1      24.258   1.913  52.854  1.00  0.00    -0.240 NA
HETATM    7  C15 UNL     1      23.058   1.783  52.414  1.00  0.00     0.139 A 
HETATM    8  N5  UNL     1      22.150   2.598  51.655  1.00  0.00    -0.278 N 
HETATM    9  C21 UNL     1      20.866   2.062  51.368  1.00  0.00     0.331 A 
HETATM   10  O3  UNL     1      20.183   2.854  50.712  1.00  0.00    -0.246 OA
ENDROOT
BRANCH   5  11
HETATM   11  N2  UNL     1      25.827   0.108  53.038  1.00  0.00    -0.270 NA
HETATM   12  C10 UNL     1      26.446  -0.896  53.515  1.00  0.00     0.113 C 
BRANCH  12  13
HETATM   13  C11 UNL     1      27.640  -1.553  53.011  1.00  0.00     0.019 C 
HETATM   14  C12 UNL     1      28.878  -1.119  53.122  1.00  0.00     0.003 C 
BRANCH  14  15
HETATM   15  C13 UNL     1      29.462   0.065  53.729  1.00  0.00     0.017 C 
HETATM   16  C14 UNL     1      28.967   1.245  54.114  1.00  0.00     0.080 C 
BRANCH  16  17
HETATM   17  N3  UNL     1      29.835   2.207  54.686  1.00  0.00    -0.408 N 
HETATM   18  H15 UNL     1      29.737   2.425  55.695  1.00  0.00     0.155 HD
HETATM   19  H16 UNL     1      30.628   2.882  54.538  1.00  0.00     0.155 HD
ENDBRANCH  16  17
ENDBRANCH  14  15
ENDBRANCH  12  13
ENDBRANCH   5  11
BRANCH   8  20
HETATM   20  C16 UNL     1      22.596   3.901  51.235  1.00  0.00     0.099 C 
HETATM   21  C17 UNL     1      23.675   3.901  50.197  1.00  0.00     0.028 C 
HETATM   22  C18 UNL     1      24.188   5.339  50.248  1.00  0.00     0.034 C 
HETATM   23  C19 UNL     1      23.698   5.932  51.547  1.00  0.00     0.120 C 
HETATM   24  C20 UNL     1      23.178   4.737  52.350  1.00  0.00     0.057 C 
BRANCH  23  25
HETATM   25  O2  UNL     1      22.624   6.783  51.369  1.00  0.00    -0.396 OA
HETATM   26  H23 UNL     1      21.833   6.345  50.975  1.00  0.00     0.210 HD
ENDBRANCH  23  25
ENDBRANCH   8  20
BRANCH   1  27
HETATM   27  C5  UNL     1      19.078   0.309  51.432  1.00  0.00     0.039 A 
HETATM   28  C4  UNL     1      18.406   0.432  50.262  1.00  0.00     0.032 A 
HETATM   29  C3  UNL     1      17.152  -0.066  49.990  1.00  0.00     0.039 A 
HETATM   30  C2  UNL     1      16.480  -0.761  50.969  1.00  0.00     0.068 A 
HETATM   31  C23 UNL     1      17.090  -0.924  52.168  1.00  0.00     0.039 A 
HETATM   32  C22 UNL     1      18.339  -0.401  52.364  1.00  0.00     0.032 A 
BRANCH  30  33
HETATM   33  O1  UNL     1      15.226  -1.277  50.747  1.00  0.00    -0.356 OA
HETATM   34  C1  UNL     1      14.585  -2.190  51.616  1.00  0.00     0.210 C 
ENDBRANCH  30  33
ENDBRANCH   1  27
TORSDOF 8
ENDMDL
MODEL 4
REMARK VINA RESULT:      -8.3      2.883      8.060
REMARK  8 active torsions:
REMARK  status: ('A' for Active; 'I' for Inactive)
REMARK    1  A    between atoms: O1_2  and  C2_3 
REMARK    2  A    between atoms: C5_6  and  N1_7 
REMARK    3  A    between atoms: C9_11  and  N2_12 
REMARK    4  A    between atoms: C10_13  and  C11_14 
REMARK    5  A    between atoms: C12_15  and  C13_16 
REMARK    6  A    between atoms: C14_17  and  N3_18 
REMARK    7  A    between atoms: N5_21  and  C16_22 
REMARK    8  A    between atoms: C19_25  and  O2_26 
ROOT
HETATM    1  N1  UNL     1      25.478   4.134  50.389  1.00  0.00    -0.295 N 
HETATM    2  C6  UNL     1      24.061   4.429  50.328  1.00  0.00     0.176 A 
HETATM    3  C7  UNL     1      23.285   3.515  51.174  1.00  0.00     0.006 A 
HETATM    4  C8  UNL     1      21.975   3.579  51.287  1.00  0.00     0.035 A 
HETATM    5  C9  UNL     1      21.514   2.520  52.212  1.00  0.00     0.255 A 
HETATM    6  N4  UNL     1      22.723   1.864  52.598  1.00  0.00    -0.240 NA
HETATM    7  C15 UNL     1      23.725   2.420  52.017  1.00  0.00     0.139 A 
HETATM    8  N5  UNL     1      25.147   2.216  52.006  1.00  0.00    -0.278 N 
HETATM    9  C21 UNL     1      25.931   3.081  51.196  1.00  0.00     0.331 A 
HETATM   10  O3  UNL     1      27.132   2.803  51.272  1.00  0.00    -0.246 OA
ENDROOT
BRANCH   5  11
HETATM   11  N2  UNL     1      20.549   1.641  51.611  1.00  0.00    -0.270 NA
HETATM   12  C10 UNL     1      19.691   1.930  50.717  1.00  0.00     0.113 C 
BRANCH  12  13
HETATM   13  C11 UNL     1      18.704   1.068  50.089  1.00  0.00     0.019 C 
HETATM   14  C12 UNL     1      18.077   0.056  50.651  1.00  0.00     0.003 C 
BRANCH  14  15
HETATM   15  C13 UNL     1      18.131  -0.527  51.981  1.00  0.00     0.017 C 
HETATM   16  C14 UNL     1      17.298  -1.300  52.685  1.00  0.00     0.080 C 
BRANCH  16  17
HETATM   17  N3  UNL     1      17.665  -1.703  53.992  1.00  0.00    -0.408 N 
HETATM   18  H15 UNL     1      18.438  -2.384  54.102  1.00  0.00     0.155 HD
HETATM   19  H16 UNL     1      17.490  -1.617  55.026  1.00  0.00     0.155 HD
ENDBRANCH  16  17
ENDBRANCH  14  15
ENDBRANCH  12  13
ENDBRANCH   5  11
BRANCH   8  20
HETATM   20  C16 UNL     1      25.686   1.151  52.812  1.00  0.00     0.099 C 
HETATM   21  C17 UNL     1      26.368   1.587  54.071  1.00  0.00     0.028 C 
HETATM   22  C18 UNL     1      27.142   0.336  54.483  1.00  0.00     0.034 C 
HETATM   23  C19 UNL     1      27.204  -0.558  53.269  1.00  0.00     0.120 C 
HETATM   24  C20 UNL     1      26.737   0.324  52.109  1.00  0.00     0.057 C 
BRANCH  23  25
HETATM   25  O2  UNL     1      26.316  -1.614  53.343  1.00  0.00    -0.396 OA
HETATM   26  H23 UNL     1      25.372  -1.346  53.242  1.00  0.00     0.210 HD
ENDBRANCH  23  25
ENDBRANCH   8  20
BRANCH   1  27
HETATM   27  C5  UNL     1      26.293   4.972  49.595  1.00  0.00     0.039 A 
HETATM   28  C4  UNL     1      27.442   4.640  48.958  1.00  0.00     0.032 A 
HETATM   29  C3  UNL     1      28.215   5.480  48.189  1.00  0.00     0.039 A 
HETATM   30  C2  UNL     1      27.823   6.790  48.025  1.00  0.00     0.068 A 
HETATM   31  C23 UNL     1      26.683   7.195  48.635  1.00  0.00     0.039 A 
HETATM   32  C22 UNL     1      25.967   6.301  49.383  1.00  0.00     0.032 A 
BRANCH  30  33
HETATM   33  O1  UNL     1      28.561   7.668  47.268  1.00  0.00    -0.356 OA
HETATM   34  C1  UNL     1      29.885   7.417  46.839  1.00  0.00     0.210 C 
ENDBRANCH  30  33
ENDBRANCH   1  27
TORSDOF 8
ENDMDL
MODEL 5
REMARK VINA RESULT:      -8.2      2.292      6.476
REMARK  8 active torsions:
REMARK  status: ('A' for Active; 'I' for Inactive)
REMARK    1  A    between atoms: O1_2  and  C2_3 
REMARK    2  A    between atoms: C5_6  and  N1_7 
REMARK    3  A    between atoms: C9_11  and  N2_12 
REMARK    4  A    between atoms: C10_13  and  C11_14 
REMARK    5  A    between atoms: C12_15  and  C13_16 
REMARK    6  A    between atoms: C14_17  and  N3_18 
REMARK    7  A    between atoms: N5_21  and  C16_22 
REMARK    8  A    between atoms: C19_25  and  O2_26 
ROOT
HETATM    1  N1  UNL     1      24.330   1.640  52.781  1.00  0.00    -0.295 N 
HETATM    2  C6  UNL     1      24.465   3.081  52.847  1.00  0.00     0.176 A 
HETATM    3  C7  UNL     1      23.237   3.756  52.412  1.00  0.00     0.006 A 
HETATM    4  C8  UNL     1      23.111   5.067  52.380  1.00  0.00     0.035 A 
HETATM    5  C9  UNL     1      21.756   5.413  51.897  1.00  0.00     0.255 A 
HETATM    6  N4  UNL     1      21.148   4.140  51.666  1.00  0.00    -0.240 NA
HETATM    7  C15 UNL     1      21.977   3.203  51.955  1.00  0.00     0.139 A 
HETATM    8  N5  UNL     1      21.950   1.766  51.930  1.00  0.00    -0.278 N 
HETATM    9  C21 UNL     1      23.123   1.078  52.343  1.00  0.00     0.331 A 
HETATM   10  O3  UNL     1      22.974  -0.146  52.276  1.00  0.00    -0.246 OA
ENDROOT
BRANCH   5  11
HETATM   11  N2  UNL     1      21.782   6.258  50.734  1.00  0.00    -0.270 NA
HETATM   12  C10 UNL     1      22.577   7.221  50.497  1.00  0.00     0.113 C 
BRANCH  12  13
HETATM   13  C11 UNL     1      22.632   8.093  49.335  1.00  0.00     0.019 C 
HETATM   14  C12 UNL     1      23.650   8.841  48.965  1.00  0.00     0.003 C 
BRANCH  14  15
HETATM   15  C13 UNL     1      24.975   9.058  49.523  1.00  0.00     0.017 C 
HETATM   16  C14 UNL     1      25.942   8.241  49.950  1.00  0.00     0.080 C 
BRANCH  16  17
HETATM   17  N3  UNL     1      27.146   8.794  50.451  1.00  0.00    -0.408 N 
HETATM   18  H15 UNL     1      27.810   9.225  49.782  1.00  0.00     0.155 HD
HETATM   19  H16 UNL     1      27.746   8.991  51.292  1.00  0.00     0.155 HD
ENDBRANCH  16  17
ENDBRANCH  14  15
ENDBRANCH  12  13
ENDBRANCH   5  11
BRANCH   8  20
HETATM   20  C16 UNL     1      20.742   1.117  51.490  1.00  0.00     0.099 C 
HETATM   21  C17 UNL     1      20.337   1.415  50.080  1.00  0.00     0.028 C 
HETATM   22  C18 UNL     1      18.888   0.931  50.040  1.00  0.00     0.034 C 
HETATM   23  C19 UNL     1      18.434   0.793  51.472  1.00  0.00     0.120 C 
HETATM   24  C20 UNL     1      19.520   1.489  52.296  1.00  0.00     0.057 C 
BRANCH  23  25
HETATM   25  O2  UNL     1      18.404  -0.523  51.894  1.00  0.00    -0.396 OA
HETATM   26  H23 UNL     1      19.249  -1.007  51.742  1.00  0.00     0.210 HD
ENDBRANCH  23  25
ENDBRANCH   8  20
BRANCH   1  27
HETATM   27  C5  UNL     1      25.477   0.918  53.182  1.00  0.00     0.039 A 
HETATM   28  C4  UNL     1      26.037   0.879  54.415  1.00  0.00     0.032 A 
HETATM   29  C3  UNL     1      27.156   0.164  54.777  1.00  0.00     0.039 A 
HETATM   30  C2  UNL     1      27.800  -0.598  53.828  1.00  0.00     0.068 A 
HETATM   31  C23 UNL     1      27.297  -0.607  52.569  1.00  0.00     0.039 A 
HETATM   32  C22 UNL     1      26.179   0.129  52.286  1.00  0.00     0.032 A 
BRANCH  30  33
HETATM   33  O1  UNL     1      28.920  -1.329  54.138  1.00  0.00    -0.356 OA
HETATM   34  C1  UNL     1      30.228  -0.978  53.729  1.00  0.00     0.210 C 
ENDBRANCH  30  33
ENDBRANCH   1  27
TORSDOF 8
ENDMDL
MODEL 6
REMARK VINA RESULT:      -8.0      2.747      6.766
REMARK  8 active torsions:
REMARK  status: ('A' for Active; 'I' for Inactive)
REMARK    1  A    between atoms: O1_2  and  C2_3 
REMARK    2  A    between atoms: C5_6  and  N1_7 
REMARK    3  A    between atoms: C9_11  and  N2_12 
REMARK    4  A    between atoms: C10_13  and  C11_14 
REMARK    5  A    between atoms: C12_15  and  C13_16 
REMARK    6  A    between atoms: C14_17  and  N3_18 
REMARK    7  A    between atoms: N5_21  and  C16_22 
REMARK    8  A    between atoms: C19_25  and  O2_26 
ROOT
HETATM    1  N1  UNL     1      24.195   1.699  52.638  1.00  0.00    -0.295 N 
HETATM    2  C6  UNL     1      24.327   3.141  52.601  1.00  0.00     0.176 A 
HETATM    3  C7  UNL     1      23.087   3.784  52.152  1.00  0.00     0.006 A 
HETATM    4  C8  UNL     1      22.956   5.089  52.033  1.00  0.00     0.035 A 
HETATM    5  C9  UNL     1      21.589   5.400  51.562  1.00  0.00     0.255 A 
HETATM    6  N4  UNL     1      20.978   4.114  51.434  1.00  0.00    -0.240 NA
HETATM    7  C15 UNL     1      21.817   3.199  51.766  1.00  0.00     0.139 A 
HETATM    8  N5  UNL     1      21.794   1.764  51.840  1.00  0.00    -0.278 N 
HETATM    9  C21 UNL     1      22.978   1.107  52.270  1.00  0.00     0.331 A 
HETATM   10  O3  UNL     1      22.830  -0.119  52.291  1.00  0.00    -0.246 OA
ENDROOT
BRANCH   5  11
HETATM   11  N2  UNL     1      21.583   6.163  50.344  1.00  0.00    -0.270 NA
HETATM   12  C10 UNL     1      22.590   6.600  49.701  1.00  0.00     0.113 C 
BRANCH  12  13
HETATM   13  C11 UNL     1      22.621   7.371  48.470  1.00  0.00     0.019 C 
HETATM   14  C12 UNL     1      22.582   6.892  47.245  1.00  0.00     0.003 C 
BRANCH  14  15
HETATM   15  C13 UNL     1      22.504   5.542  46.710  1.00  0.00     0.017 C 
HETATM   16  C14 UNL     1      21.748   4.963  45.774  1.00  0.00     0.080 C 
BRANCH  16  17
HETATM   17  N3  UNL     1      21.931   3.588  45.488  1.00  0.00    -0.408 N 
HETATM   18  H15 UNL     1      21.101   3.017  45.243  1.00  0.00     0.155 HD
HETATM   19  H16 UNL     1      22.605   2.785  45.400  1.00  0.00     0.155 HD
ENDBRANCH  16  17
ENDBRANCH  14  15
ENDBRANCH  12  13
ENDBRANCH   5  11
BRANCH   8  20
HETATM   20  C16 UNL     1      20.577   1.085  51.477  1.00  0.00     0.099 C 
HETATM   21  C17 UNL     1      20.113   1.320  50.072  1.00  0.00     0.028 C 
HETATM   22  C18 UNL     1      18.669   0.820  50.110  1.00  0.00     0.034 C 
HETATM   23  C19 UNL     1      18.274   0.737  51.564  1.00  0.00     0.120 C 
HETATM   24  C20 UNL     1      19.383   1.478  52.314  1.00  0.00     0.057 C 
BRANCH  23  25
HETATM   25  O2  UNL     1      18.275  -0.560  52.041  1.00  0.00    -0.396 OA
HETATM   26  H23 UNL     1      17.546  -1.116  51.678  1.00  0.00     0.210 HD
ENDBRANCH  23  25
ENDBRANCH   8  20
BRANCH   1  27
HETATM   27  C5  UNL     1      25.353   1.007  53.058  1.00  0.00     0.039 A 
HETATM   28  C4  UNL     1      25.896   0.988  54.299  1.00  0.00     0.032 A 
HETATM   29  C3  UNL     1      27.027   0.302  54.680  1.00  0.00     0.039 A 
HETATM   30  C2  UNL     1      27.703  -0.448  53.744  1.00  0.00     0.068 A 
HETATM   31  C23 UNL     1      27.218  -0.476  52.479  1.00  0.00     0.039 A 
HETATM   32  C22 UNL     1      26.087   0.231  52.176  1.00  0.00     0.032 A 
BRANCH  30  33
HETATM   33  O1  UNL     1      28.837  -1.150  54.074  1.00  0.00    -0.356 OA
HETATM   34  C1  UNL     1      30.125  -0.843  53.577  1.00  0.00     0.210 C 
ENDBRANCH  30  33
ENDBRANCH   1  27
TORSDOF 8
ENDMDL
MODEL 7
REMARK VINA RESULT:      -8.0      1.767      2.331
REMARK  8 active torsions:
REMARK  status: ('A' for Active; 'I' for Inactive)
REMARK    1  A    between atoms: O1_2  and  C2_3 
REMARK    2  A    between atoms: C5_6  and  N1_7 
REMARK    3  A    between atoms: C9_11  and  N2_12 
REMARK    4  A    between atoms: C10_13  and  C11_14 
REMARK    5  A    between atoms: C12_15  and  C13_16 
REMARK    6  A    between atoms: C14_17  and  N3_18 
REMARK    7  A    between atoms: N5_21  and  C16_22 
REMARK    8  A    between atoms: C19_25  and  O2_26 
ROOT
HETATM    1  N1  UNL     1      21.470   1.045  51.336  1.00  0.00    -0.295 N 
HETATM    2  C6  UNL     1      21.654   1.923  50.199  1.00  0.00     0.176 A 
HETATM    3  C7  UNL     1      23.036   2.408  50.111  1.00  0.00     0.006 A 
HETATM    4  C8  UNL     1      23.453   3.222  49.164  1.00  0.00     0.035 A 
HETATM    5  C9  UNL     1      24.890   3.511  49.369  1.00  0.00     0.255 A 
HETATM    6  N4  UNL     1      25.218   2.762  50.541  1.00  0.00    -0.240 NA
HETATM    7  C15 UNL     1      24.178   2.138  50.964  1.00  0.00     0.139 A 
HETATM    8  N5  UNL     1      23.886   1.255  52.060  1.00  0.00    -0.278 N 
HETATM    9  C21 UNL     1      22.557   0.766  52.177  1.00  0.00     0.331 A 
HETATM   10  O3  UNL     1      22.436   0.022  53.155  1.00  0.00    -0.246 OA
ENDROOT
BRANCH   5  11
HETATM   11  N2  UNL     1      25.159   4.918  49.491  1.00  0.00    -0.270 NA
HETATM   12  C10 UNL     1      24.810   5.692  50.438  1.00  0.00     0.113 C 
BRANCH  12  13
HETATM   13  C11 UNL     1      25.065   7.114  50.593  1.00  0.00     0.019 C 
HETATM   14  C12 UNL     1      24.184   8.086  50.470  1.00  0.00     0.003 C 
BRANCH  14  15
HETATM   15  C13 UNL     1      22.764   8.102  50.161  1.00  0.00     0.017 C 
HETATM   16  C14 UNL     1      22.016   8.791  49.295  1.00  0.00     0.080 C 
BRANCH  16  17
HETATM   17  N3  UNL     1      20.619   8.559  49.248  1.00  0.00    -0.408 N 
HETATM   18  H15 UNL     1      20.026   8.949  50.003  1.00  0.00     0.155 HD
HETATM   19  H16 UNL     1      19.812   8.121  48.735  1.00  0.00     0.155 HD
ENDBRANCH  16  17
ENDBRANCH  14  15
ENDBRANCH  12  13
ENDBRANCH   5  11
BRANCH   8  20
HETATM   20  C16 UNL     1      24.955   0.924  52.967  1.00  0.00     0.099 C 
HETATM   21  C17 UNL     1      25.696   2.095  53.533  1.00  0.00     0.028 C 
HETATM   22  C18 UNL     1      26.953   1.447  54.110  1.00  0.00     0.034 C 
HETATM   23  C19 UNL     1      27.062   0.076  53.490  1.00  0.00     0.120 C 
HETATM   24  C20 UNL     1      26.044   0.082  52.347  1.00  0.00     0.057 C 
BRANCH  23  25
HETATM   25  O2  UNL     1      26.675  -0.929  54.355  1.00  0.00    -0.396 OA
HETATM   26  H23 UNL     1      26.835  -0.718  55.305  1.00  0.00     0.210 HD
ENDBRANCH  23  25
ENDBRANCH   8  20
BRANCH   1  27
HETATM   27  C5  UNL     1      20.160   0.539  51.490  1.00  0.00     0.039 A 
HETATM   28  C4  UNL     1      19.655  -0.131  52.554  1.00  0.00     0.032 A 
HETATM   29  C3  UNL     1      18.371  -0.612  52.675  1.00  0.00     0.039 A 
HETATM   30  C2  UNL     1      17.482  -0.418  51.642  1.00  0.00     0.068 A 
HETATM   31  C23 UNL     1      17.918   0.244  50.542  1.00  0.00     0.039 A 
HETATM   32  C22 UNL     1      19.208   0.694  50.495  1.00  0.00     0.032 A 
BRANCH  30  33
HETATM   33  O1  UNL     1      16.190  -0.880  51.714  1.00  0.00    -0.356 OA
HETATM   34  C1  UNL     1      15.825  -2.106  52.317  1.00  0.00     0.210 C 
ENDBRANCH  30  33
ENDBRANCH   1  27
TORSDOF 8
ENDMDL
MODEL 8
REMARK VINA RESULT:      -8.0      2.726      6.650
REMARK  8 active torsions:
REMARK  status: ('A' for Active; 'I' for Inactive)
REMARK    1  A    between atoms: O1_2  and  C2_3 
REMARK    2  A    between atoms: C5_6  and  N1_7 
REMARK    3  A    between atoms: C9_11  and  N2_12 
REMARK    4  A    between atoms: C10_13  and  C11_14 
REMARK    5  A    between atoms: C12_15  and  C13_16 
REMARK    6  A    between atoms: C14_17  and  N3_18 
REMARK    7  A    between atoms: N5_21  and  C16_22 
REMARK    8  A    between atoms: C19_25  and  O2_26 
ROOT
HETATM    1  N1  UNL     1      24.347   1.674  52.740  1.00  0.00    -0.295 N 
HETATM    2  C6  UNL     1      24.466   3.118  52.753  1.00  0.00     0.176 A 
HETATM    3  C7  UNL     1      23.221   3.765  52.326  1.00  0.00     0.006 A 
HETATM    4  C8  UNL     1      23.078   5.072  52.252  1.00  0.00     0.035 A 
HETATM    5  C9  UNL     1      21.708   5.387  51.791  1.00  0.00     0.255 A 
HETATM    6  N4  UNL     1      21.110   4.101  51.618  1.00  0.00    -0.240 NA
HETATM    7  C15 UNL     1      21.957   3.182  51.918  1.00  0.00     0.139 A 
HETATM    8  N5  UNL     1      21.946   1.745  51.943  1.00  0.00    -0.278 N 
HETATM    9  C21 UNL     1      23.136   1.084  52.350  1.00  0.00     0.331 A 
HETATM   10  O3  UNL     1      22.999  -0.143  52.328  1.00  0.00    -0.246 OA
ENDROOT
BRANCH   5  11
HETATM   11  N2  UNL     1      21.697   6.192  50.600  1.00  0.00    -0.270 NA
HETATM   12  C10 UNL     1      22.661   6.860  50.110  1.00  0.00     0.113 C 
BRANCH  12  13
HETATM   13  C11 UNL     1      22.685   7.682  48.911  1.00  0.00     0.019 C 
HETATM   14  C12 UNL     1      21.846   8.650  48.610  1.00  0.00     0.003 C 
BRANCH  14  15
HETATM   15  C13 UNL     1      20.691   9.209  49.293  1.00  0.00     0.017 C 
HETATM   16  C14 UNL     1      19.423   8.814  49.437  1.00  0.00     0.080 C 
BRANCH  16  17
HETATM   17  N3  UNL     1      18.528   9.615  50.187  1.00  0.00    -0.408 N 
HETATM   18  H15 UNL     1      17.808  10.161  49.681  1.00  0.00     0.155 HD
HETATM   19  H16 UNL     1      18.223   9.949  51.138  1.00  0.00     0.155 HD
ENDBRANCH  16  17
ENDBRANCH  14  15
ENDBRANCH  12  13
ENDBRANCH   5  11
BRANCH   8  20
HETATM   20  C16 UNL     1      20.735   1.069  51.554  1.00  0.00     0.099 C 
HETATM   21  C17 UNL     1      20.307   1.295  50.137  1.00  0.00     0.028 C 
HETATM   22  C18 UNL     1      18.860   0.801  50.143  1.00  0.00     0.034 C 
HETATM   23  C19 UNL     1      18.429   0.731  51.588  1.00  0.00     0.120 C 
HETATM   24  C20 UNL     1      19.523   1.473  52.359  1.00  0.00     0.057 C 
BRANCH  23  25
HETATM   25  O2  UNL     1      18.413  -0.562  52.074  1.00  0.00    -0.396 OA
HETATM   26  H23 UNL     1      18.545  -0.620  53.050  1.00  0.00     0.210 HD
ENDBRANCH  23  25
ENDBRANCH   8  20
BRANCH   1  27
HETATM   27  C5  UNL     1      25.511   0.978  53.137  1.00  0.00     0.039 A 
HETATM   28  C4  UNL     1      26.072   0.948  54.370  1.00  0.00     0.032 A 
HETATM   29  C3  UNL     1      27.208   0.259  54.727  1.00  0.00     0.039 A 
HETATM   30  C2  UNL     1      27.870  -0.483  53.775  1.00  0.00     0.068 A 
HETATM   31  C23 UNL     1      27.367  -0.499  52.517  1.00  0.00     0.039 A 
HETATM   32  C22 UNL     1      26.232   0.211  52.237  1.00  0.00     0.032 A 
BRANCH  30  33
HETATM   33  O1  UNL     1      29.009  -1.188  54.082  1.00  0.00    -0.356 OA
HETATM   34  C1  UNL     1      29.473  -2.296  53.337  1.00  0.00     0.210 C 
ENDBRANCH  30  33
ENDBRANCH   1  27
TORSDOF 8
ENDMDL
MODEL 9
REMARK VINA RESULT:      -7.9      4.560      7.297
REMARK  8 active torsions:
REMARK  status: ('A' for Active; 'I' for Inactive)
REMARK    1  A    between atoms: O1_2  and  C2_3 
REMARK    2  A    between atoms: C5_6  and  N1_7 
REMARK    3  A    between atoms: C9_11  and  N2_12 
REMARK    4  A    between atoms: C10_13  and  C11_14 
REMARK    5  A    between atoms: C12_15  and  C13_16 
REMARK    6  A    between atoms: C14_17  and  N3_18 
REMARK    7  A    between atoms: N5_21  and  C16_22 
REMARK    8  A    between atoms: C19_25  and  O2_26 
ROOT
HETATM    1  N1  UNL     1      18.056  -0.407  52.150  1.00  0.00    -0.295 N 
HETATM    2  C6  UNL     1      18.929  -0.645  53.281  1.00  0.00     0.176 A 
HETATM    3  C7  UNL     1      20.276  -0.113  53.043  1.00  0.00     0.006 A 
HETATM    4  C8  UNL     1      21.251  -0.206  53.923  1.00  0.00     0.035 A 
HETATM    5  C9  UNL     1      22.467   0.429  53.369  1.00  0.00     0.255 A 
HETATM    6  N4  UNL     1      22.050   0.885  52.081  1.00  0.00    -0.240 NA
HETATM    7  C15 UNL     1      20.816   0.583  51.891  1.00  0.00     0.139 A 
HETATM    8  N5  UNL     1      19.867   0.768  50.828  1.00  0.00    -0.278 N 
HETATM    9  C21 UNL     1      18.552   0.264  51.023  1.00  0.00     0.331 A 
HETATM   10  O3  UNL     1      17.836   0.484  50.042  1.00  0.00    -0.246 OA
ENDROOT
BRANCH   5  11
HETATM   11  N2  UNL     1      23.590  -0.468  53.327  1.00  0.00    -0.270 NA
HETATM   12  C10 UNL     1      24.814  -0.167  53.158  1.00  0.00     0.113 C 
BRANCH  12  13
HETATM   13  C11 UNL     1      25.971  -1.045  53.110  1.00  0.00     0.019 C 
HETATM   14  C12 UNL     1      27.220  -0.708  53.350  1.00  0.00     0.003 C 
BRANCH  14  15
HETATM   15  C13 UNL     1      27.855   0.547  53.718  1.00  0.00     0.017 C 
HETATM   16  C14 UNL     1      29.109   0.894  54.020  1.00  0.00     0.080 C 
BRANCH  16  17
HETATM   17  N3  UNL     1      29.397   2.243  54.342  1.00  0.00    -0.408 N 
HETATM   18  H15 UNL     1      29.115   2.602  55.273  1.00  0.00     0.155 HD
HETATM   19  H16 UNL     1      29.817   3.156  54.031  1.00  0.00     0.155 HD
ENDBRANCH  16  17
ENDBRANCH  14  15
ENDBRANCH  12  13
ENDBRANCH   5  11
BRANCH   8  20
HETATM   20  C16 UNL     1      20.305   1.449  49.637  1.00  0.00     0.099 C 
HETATM   21  C17 UNL     1      21.520   0.868  48.983  1.00  0.00     0.028 C 
HETATM   22  C18 UNL     1      21.950   1.983  48.030  1.00  0.00     0.034 C 
HETATM   23  C19 UNL     1      21.252   3.240  48.485  1.00  0.00     0.120 C 
HETATM   24  C20 UNL     1      20.681   2.894  49.863  1.00  0.00     0.057 C 
BRANCH  23  25
HETATM   25  O2  UNL     1      20.175   3.568  47.684  1.00  0.00    -0.396 OA
HETATM   26  H23 UNL     1      20.248   3.225  46.763  1.00  0.00     0.210 HD
ENDBRANCH  23  25
ENDBRANCH   8  20
BRANCH   1  27
HETATM   27  C5  UNL     1      16.739  -0.895  52.304  1.00  0.00     0.039 A 
HETATM   28  C4  UNL     1      15.610  -0.172  52.496  1.00  0.00     0.032 A 
HETATM   29  C3  UNL     1      14.337  -0.677  52.641  1.00  0.00     0.039 A 
HETATM   30  C2  UNL     1      14.148  -2.040  52.594  1.00  0.00     0.068 A 
HETATM   31  C23 UNL     1      15.234  -2.828  52.406  1.00  0.00     0.039 A 
HETATM   32  C22 UNL     1      16.467  -2.253  52.268  1.00  0.00     0.032 A 
BRANCH  30  33
HETATM   33  O1  UNL     1      12.898  -2.593  52.735  1.00  0.00    -0.356 OA
HETATM   34  C1  UNL     1      12.337  -2.965  53.978  1.00  0.00     0.210 C 
ENDBRANCH  30  33
ENDBRANCH   1  27
TORSDOF 8
ENDMDL
