MODEL 1
REMARK VINA RESULT:      -8.9      0.000      0.000
REMARK  4 active torsions:
REMARK  status: ('A' for Active; 'I' for Inactive)
REMARK    1  A    between atoms: N1_1  and  N2_2 
REMARK    2  A    between atoms: N2_2  and  C1_3 
REMARK    3  A    between atoms: N3_11  and  N4_12 
REMARK    4  A    between atoms: N4_12  and  C9_13 
ROOT
HETATM    1  C1  UNL     1      25.452   7.175  49.804  1.00  0.00     0.312 C 
HETATM    2  C2  UNL     1      24.825   6.225  50.754  1.00  0.00     0.089 C 
HETATM    3  C3  UNL     1      24.258   4.974  50.251  1.00  0.00    -0.052 A 
HETATM    4  C4  UNL     1      23.674   5.154  49.073  1.00  0.00     0.005 A 
HETATM    5  C5  UNL     1      23.015   4.083  48.333  1.00  0.00    -0.004 A 
HETATM    6  C6  UNL     1      23.048   2.918  48.960  1.00  0.00    -0.024 A 
HETATM    7  C7  UNL     1      23.628   2.559  50.250  1.00  0.00     0.058 A 
HETATM    8  C8  UNL     1      24.359   3.648  50.975  1.00  0.00     0.137 A 
HETATM    9  N3  UNL     1      25.796   3.214  50.880  1.00  0.00    -0.289 N 
HETATM   10  C15 UNL     1      26.223   3.259  49.482  1.00  0.00     0.265 C 
HETATM   11  N5  UNL     1      26.413   4.448  49.845  1.00  0.00    -0.269 NA
HETATM   12  C16 UNL     1      26.925   5.432  48.932  1.00  0.00     0.416 C 
HETATM   13  N6  UNL     1      26.789   6.748  49.470  1.00  0.00     0.121 N 
HETATM   14  H21 UNL     1      27.470   6.894  50.225  1.00  0.00     0.320 HD
ENDROOT
BRANCH   9  15
HETATM   15  N4  UNL     1      26.580   2.824  51.965  1.00  0.00    -0.300 N 
HETATM   16  H13 UNL     1      26.453   3.788  52.345  1.00  0.00     0.187 HD
BRANCH  15  17
HETATM   17  C9  UNL     1      27.305   1.781  52.552  1.00  0.00     0.049 A 
HETATM   18  C10 UNL     1      28.395   2.059  53.344  1.00  0.00     0.031 A 
HETATM   19  C11 UNL     1      29.089   1.011  53.907  1.00  0.00     0.004 A 
HETATM   20  C12 UNL     1      28.656  -0.273  53.651  1.00  0.00     0.024 A 
HETATM   21  C13 UNL     1      27.558  -0.512  52.852  1.00  0.00     0.036 A 
HETATM   22 CL1  UNL     1      27.087  -2.173  52.585  1.00  0.00    -0.084 Cl
HETATM   23  C14 UNL     1      26.834   0.518  52.266  1.00  0.00     0.054 A 
ENDBRANCH  15  17
ENDBRANCH   9  15
BRANCH   1  24
HETATM   24  N2  UNL     1      25.752   8.437  50.587  1.00  0.00    -0.231 NA
HETATM   25  H3  UNL     1      25.493   8.215  51.575  1.00  0.00     0.142 HD
BRANCH  24  26
HETATM   26  N1  UNL     1      27.148   8.525  50.553  1.00  0.00    -0.269 NA
HETATM   27  H1  UNL     1      27.622   7.813  51.142  1.00  0.00     0.137 HD
HETATM   28  H2  UNL     1      27.487   9.496  50.666  1.00  0.00     0.137 HD
ENDBRANCH  24  26
ENDBRANCH   1  24
TORSDOF 4
ENDMDL
MODEL 2
REMARK VINA RESULT:      -8.5      2.243      2.968
REMARK  4 active torsions:
REMARK  status: ('A' for Active; 'I' for Inactive)
REMARK    1  A    between atoms: N1_1  and  N2_2 
REMARK    2  A    between atoms: N2_2  and  C1_3 
REMARK    3  A    between atoms: N3_11  and  N4_12 
REMARK    4  A    between atoms: N4_12  and  C9_13 
ROOT
HETATM    1  C1  UNL     1      23.532   5.571  51.593  1.00  0.00     0.312 C 
HETATM    2  C2  UNL     1      23.664   4.520  52.631  1.00  0.00     0.089 C 
HETATM    3  C3  UNL     1      22.735   3.389  52.631  1.00  0.00    -0.052 A 
HETATM    4  C4  UNL     1      21.513   3.775  52.287  1.00  0.00     0.005 A 
HETATM    5  C5  UNL     1      20.377   2.863  52.209  1.00  0.00    -0.004 A 
HETATM    6  C6  UNL     1      20.686   1.616  52.526  1.00  0.00    -0.024 A 
HETATM    7  C7  UNL     1      21.961   1.035  52.936  1.00  0.00     0.058 A 
HETATM    8  C8  UNL     1      23.137   1.965  52.952  1.00  0.00     0.137 A 
HETATM    9  N3  UNL     1      23.968   1.480  51.796  1.00  0.00    -0.289 N 
HETATM   10  C15 UNL     1      23.244   1.717  50.548  1.00  0.00     0.265 C 
HETATM   11  N5  UNL     1      23.808   2.825  50.729  1.00  0.00    -0.269 NA
HETATM   12  C16 UNL     1      23.631   3.911  49.804  1.00  0.00     0.416 C 
HETATM   13  N6  UNL     1      24.123   5.135  50.352  1.00  0.00     0.121 N 
HETATM   14  H21 UNL     1      25.149   5.131  50.363  1.00  0.00     0.320 HD
ENDROOT
BRANCH   9  15
HETATM   15  N4  UNL     1      25.227   0.891  51.916  1.00  0.00    -0.300 N 
HETATM   16  H13 UNL     1      24.889   0.147  51.266  1.00  0.00     0.187 HD
BRANCH  15  17
HETATM   17  C9  UNL     1      26.494   0.981  52.502  1.00  0.00     0.049 A 
HETATM   18  C10 UNL     1      26.993   2.205  52.881  1.00  0.00     0.031 A 
HETATM   19  C11 UNL     1      28.243   2.261  53.456  1.00  0.00     0.004 A 
HETATM   20  C12 UNL     1      28.939   1.082  53.625  1.00  0.00     0.024 A 
HETATM   21  C13 UNL     1      28.405  -0.127  53.233  1.00  0.00     0.036 A 
HETATM   22 CL1  UNL     1      29.362  -1.566  53.489  1.00  0.00    -0.084 Cl
HETATM   23  C14 UNL     1      27.148  -0.223  52.649  1.00  0.00     0.054 A 
ENDBRANCH  15  17
ENDBRANCH   9  15
BRANCH   1  24
HETATM   24  N2  UNL     1      24.486   6.682  51.979  1.00  0.00    -0.231 NA
HETATM   25  H3  UNL     1      25.372   6.475  51.463  1.00  0.00     0.142 HD
BRANCH  24  26
HETATM   26  N1  UNL     1      23.934   7.818  51.379  1.00  0.00    -0.269 NA
HETATM   27  H1  UNL     1      23.479   8.464  52.054  1.00  0.00     0.137 HD
HETATM   28  H2  UNL     1      23.378   7.592  50.536  1.00  0.00     0.137 HD
ENDBRANCH  24  26
ENDBRANCH   1  24
TORSDOF 4
ENDMDL
MODEL 3
REMARK VINA RESULT:      -8.4      3.366      6.983
REMARK  4 active torsions:
REMARK  status: ('A' for Active; 'I' for Inactive)
REMARK    1  A    between atoms: N1_1  and  N2_2 
REMARK    2  A    between atoms: N2_2  and  C1_3 
REMARK    3  A    between atoms: N3_11  and  N4_12 
REMARK    4  A    between atoms: N4_12  and  C9_13 
ROOT
HETATM    1  C1  UNL     1      27.742  -1.256  53.662  1.00  0.00     0.312 C 
HETATM    2  C2  UNL     1      26.900  -0.906  52.493  1.00  0.00     0.089 C 
HETATM    3  C3  UNL     1      25.576  -0.320  52.709  1.00  0.00    -0.052 A 
HETATM    4  C4  UNL     1      24.982  -0.861  53.765  1.00  0.00     0.005 A 
HETATM    5  C5  UNL     1      23.649  -0.479  54.216  1.00  0.00    -0.004 A 
HETATM    6  C6  UNL     1      23.088   0.451  53.461  1.00  0.00    -0.024 A 
HETATM    7  C7  UNL     1      23.593   1.131  52.272  1.00  0.00     0.058 A 
HETATM    8  C8  UNL     1      24.989   0.780  51.851  1.00  0.00     0.137 A 
HETATM    9  N3  UNL     1      25.762   2.031  52.165  1.00  0.00    -0.289 N 
HETATM   10  C15 UNL     1      25.783   2.236  53.612  1.00  0.00     0.265 C 
HETATM   11  N5  UNL     1      26.754   1.454  53.452  1.00  0.00    -0.269 NA
HETATM   12  C16 UNL     1      27.540   1.004  54.567  1.00  0.00     0.416 C 
HETATM   13  N6  UNL     1      28.390  -0.080  54.190  1.00  0.00     0.121 N 
HETATM   14  H21 UNL     1      29.163   0.261  53.607  1.00  0.00     0.320 HD
ENDROOT
BRANCH   9  15
HETATM   15  N4  UNL     1      26.352   2.859  51.210  1.00  0.00    -0.300 N 
HETATM   16  H13 UNL     1      27.227   2.305  51.337  1.00  0.00     0.187 HD
BRANCH  15  17
HETATM   17  C9  UNL     1      26.164   3.943  50.345  1.00  0.00     0.049 A 
HETATM   18  C10 UNL     1      27.144   4.280  49.440  1.00  0.00     0.031 A 
HETATM   19  C11 UNL     1      26.930   5.352  48.602  1.00  0.00     0.004 A 
HETATM   20  C12 UNL     1      25.739   6.039  48.709  1.00  0.00     0.024 A 
HETATM   21  C13 UNL     1      24.780   5.670  49.629  1.00  0.00     0.036 A 
HETATM   22 CL1  UNL     1      23.303   6.601  49.690  1.00  0.00    -0.084 Cl
HETATM   23  C14 UNL     1      24.960   4.596  50.491  1.00  0.00     0.054 A 
ENDBRANCH  15  17
ENDBRANCH   9  15
BRANCH   1  24
HETATM   24  N2  UNL     1      28.938  -2.014  53.124  1.00  0.00    -0.231 NA
HETATM   25  H3  UNL     1      29.666  -1.944  53.871  1.00  0.00     0.142 HD
BRANCH  24  26
HETATM   26  N1  UNL     1      28.509  -3.345  53.109  1.00  0.00    -0.269 NA
HETATM   27  H1  UNL     1      27.666  -3.501  52.522  1.00  0.00     0.137 HD
HETATM   28  H2  UNL     1      28.478  -3.763  54.054  1.00  0.00     0.137 HD
ENDBRANCH  24  26
ENDBRANCH   1  24
TORSDOF 4
ENDMDL
MODEL 4
REMARK VINA RESULT:      -8.2      3.309      6.988
REMARK  4 active torsions:
REMARK  status: ('A' for Active; 'I' for Inactive)
REMARK    1  A    between atoms: N1_1  and  N2_2 
REMARK    2  A    between atoms: N2_2  and  C1_3 
REMARK    3  A    between atoms: N3_11  and  N4_12 
REMARK    4  A    between atoms: N4_12  and  C9_13 
ROOT
HETATM    1  C1  UNL     1      27.767  -1.211  53.657  1.00  0.00     0.312 C 
HETATM    2  C2  UNL     1      26.892  -0.936  52.492  1.00  0.00     0.089 C 
HETATM    3  C3  UNL     1      25.564  -0.361  52.710  1.00  0.00    -0.052 A 
HETATM    4  C4  UNL     1      25.005  -0.854  53.808  1.00  0.00     0.005 A 
HETATM    5  C5  UNL     1      23.676  -0.470  54.272  1.00  0.00    -0.004 A 
HETATM    6  C6  UNL     1      23.082   0.411  53.483  1.00  0.00    -0.024 A 
HETATM    7  C7  UNL     1      23.547   1.034  52.247  1.00  0.00     0.058 A 
HETATM    8  C8  UNL     1      24.937   0.683  51.810  1.00  0.00     0.137 A 
HETATM    9  N3  UNL     1      25.696   1.960  52.038  1.00  0.00    -0.289 N 
HETATM   10  C15 UNL     1      25.749   2.242  53.472  1.00  0.00     0.265 C 
HETATM   11  N5  UNL     1      26.729   1.468  53.329  1.00  0.00    -0.269 NA
HETATM   12  C16 UNL     1      27.550   1.091  54.446  1.00  0.00     0.416 C 
HETATM   13  N6  UNL     1      28.408   0.001  54.106  1.00  0.00     0.121 N 
HETATM   14  H21 UNL     1      29.161   0.324  53.486  1.00  0.00     0.320 HD
ENDROOT
BRANCH   9  15
HETATM   15  N4  UNL     1      26.249   2.746  51.026  1.00  0.00    -0.300 N 
HETATM   16  H13 UNL     1      27.087   2.125  51.066  1.00  0.00     0.187 HD
BRANCH  15  17
HETATM   17  C9  UNL     1      26.059   3.845  50.182  1.00  0.00     0.049 A 
HETATM   18  C10 UNL     1      24.797   4.356  49.989  1.00  0.00     0.031 A 
HETATM   19  C11 UNL     1      24.642   5.439  49.152  1.00  0.00     0.004 A 
HETATM   20  C12 UNL     1      25.764   5.964  48.547  1.00  0.00     0.024 A 
HETATM   21  C13 UNL     1      27.014   5.425  48.767  1.00  0.00     0.036 A 
HETATM   22 CL1  UNL     1      28.376   6.159  47.955  1.00  0.00    -0.084 Cl
HETATM   23  C14 UNL     1      27.209   4.333  49.602  1.00  0.00     0.054 A 
ENDBRANCH  15  17
ENDBRANCH   9  15
BRANCH   1  24
HETATM   24  N2  UNL     1      28.963  -1.977  53.130  1.00  0.00    -0.231 NA
HETATM   25  H3  UNL     1      29.690  -1.899  53.876  1.00  0.00     0.142 HD
BRANCH  24  26
HETATM   26  N1  UNL     1      28.532  -3.308  53.132  1.00  0.00    -0.269 NA
HETATM   27  H1  UNL     1      27.498  -3.408  53.127  1.00  0.00     0.137 HD
HETATM   28  H2  UNL     1      29.033  -3.886  53.828  1.00  0.00     0.137 HD
ENDBRANCH  24  26
ENDBRANCH   1  24
TORSDOF 4
ENDMDL
MODEL 5
REMARK VINA RESULT:      -7.9      2.054      3.005
REMARK  4 active torsions:
REMARK  status: ('A' for Active; 'I' for Inactive)
REMARK    1  A    between atoms: N1_1  and  N2_2 
REMARK    2  A    between atoms: N2_2  and  C1_3 
REMARK    3  A    between atoms: N3_11  and  N4_12 
REMARK    4  A    between atoms: N4_12  and  C9_13 
ROOT
HETATM    1  C1  UNL     1      27.066   8.158  49.439  1.00  0.00     0.312 C 
HETATM    2  C2  UNL     1      25.996   7.910  50.435  1.00  0.00     0.089 C 
HETATM    3  C3  UNL     1      24.671   7.488  49.977  1.00  0.00    -0.052 A 
HETATM    4  C4  UNL     1      24.341   8.099  48.846  1.00  0.00     0.005 A 
HETATM    5  C5  UNL     1      23.072   7.881  48.159  1.00  0.00    -0.004 A 
HETATM    6  C6  UNL     1      22.281   7.023  48.782  1.00  0.00    -0.024 A 
HETATM    7  C7  UNL     1      22.485   6.285  50.025  1.00  0.00     0.058 A 
HETATM    8  C8  UNL     1      23.815   6.465  50.692  1.00  0.00     0.137 A 
HETATM    9  N3  UNL     1      24.478   5.131  50.490  1.00  0.00    -0.289 N 
HETATM   10  C15 UNL     1      24.731   4.928  49.064  1.00  0.00     0.265 C 
HETATM   11  N5  UNL     1      25.744   5.587  49.410  1.00  0.00    -0.269 NA
HETATM   12  C16 UNL     1      26.762   5.941  48.460  1.00  0.00     0.416 C 
HETATM   13  N6  UNL     1      27.654   6.914  49.006  1.00  0.00     0.121 N 
HETATM   14  H21 UNL     1      28.266   6.481  49.707  1.00  0.00     0.320 HD
ENDROOT
BRANCH   9  15
HETATM   15  N4  UNL     1      24.789   4.235  51.514  1.00  0.00    -0.300 N 
HETATM   16  H13 UNL     1      25.328   5.008  51.963  1.00  0.00     0.187 HD
BRANCH  15  17
HETATM   17  C9  UNL     1      24.629   2.932  51.998  1.00  0.00     0.049 A 
HETATM   18  C10 UNL     1      23.461   2.570  52.627  1.00  0.00     0.031 A 
HETATM   19  C11 UNL     1      23.333   1.279  53.092  1.00  0.00     0.004 A 
HETATM   20  C12 UNL     1      24.386   0.409  52.904  1.00  0.00     0.024 A 
HETATM   21  C13 UNL     1      25.541   0.810  52.268  1.00  0.00     0.036 A 
HETATM   22 CL1  UNL     1      26.820  -0.365  52.077  1.00  0.00    -0.084 Cl
HETATM   23  C14 UNL     1      25.707   2.102  51.786  1.00  0.00     0.054 A 
ENDBRANCH  15  17
ENDBRANCH   9  15
BRANCH   1  24
HETATM   24  N2  UNL     1      28.229   8.765  50.196  1.00  0.00    -0.231 NA
HETATM   25  H3  UNL     1      28.710   9.388  49.508  1.00  0.00     0.142 HD
BRANCH  24  26
HETATM   26  N1  UNL     1      27.615   9.605  51.132  1.00  0.00    -0.269 NA
HETATM   27  H1  UNL     1      27.514  10.585  50.804  1.00  0.00     0.137 HD
HETATM   28  H2  UNL     1      28.005   9.491  52.083  1.00  0.00     0.137 HD
ENDBRANCH  24  26
ENDBRANCH   1  24
TORSDOF 4
ENDMDL
MODEL 6
REMARK VINA RESULT:      -7.9      3.515      6.261
REMARK  4 active torsions:
REMARK  status: ('A' for Active; 'I' for Inactive)
REMARK    1  A    between atoms: N1_1  and  N2_2 
REMARK    2  A    between atoms: N2_2  and  C1_3 
REMARK    3  A    between atoms: N3_11  and  N4_12 
REMARK    4  A    between atoms: N4_12  and  C9_13 
ROOT
HETATM    1  C1  UNL     1      26.040   0.918  53.791  1.00  0.00     0.312 C 
HETATM    2  C2  UNL     1      25.403   0.615  52.487  1.00  0.00     0.089 C 
HETATM    3  C3  UNL     1      23.955   0.766  52.342  1.00  0.00    -0.052 A 
HETATM    4  C4  UNL     1      23.323   0.390  53.447  1.00  0.00     0.005 A 
HETATM    5  C5  UNL     1      21.871   0.422  53.590  1.00  0.00    -0.004 A 
HETATM    6  C6  UNL     1      21.249   0.854  52.505  1.00  0.00    -0.024 A 
HETATM    7  C7  UNL     1      21.787   1.286  51.219  1.00  0.00     0.058 A 
HETATM    8  C8  UNL     1      23.281   1.311  51.100  1.00  0.00     0.137 A 
HETATM    9  N3  UNL     1      23.593   2.781  51.051  1.00  0.00    -0.289 N 
HETATM   10  C15 UNL     1      23.249   3.392  52.334  1.00  0.00     0.265 C 
HETATM   11  N5  UNL     1      24.410   2.964  52.559  1.00  0.00    -0.269 NA
HETATM   12  C16 UNL     1      25.034   3.144  53.841  1.00  0.00     0.416 C 
HETATM   13  N6  UNL     1      26.210   2.342  53.954  1.00  0.00     0.121 N 
HETATM   14  H21 UNL     1      26.964   2.735  53.378  1.00  0.00     0.320 HD
ENDROOT
BRANCH   9  15
HETATM   15  N4  UNL     1      24.120   3.443  49.942  1.00  0.00    -0.300 N 
HETATM   16  H13 UNL     1      23.308   3.080  49.397  1.00  0.00     0.187 HD
BRANCH  15  17
HETATM   17  C9  UNL     1      25.157   4.251  49.463  1.00  0.00     0.049 A 
HETATM   18  C10 UNL     1      26.436   3.752  49.376  1.00  0.00     0.031 A 
HETATM   19  C11 UNL     1      27.435   4.572  48.900  1.00  0.00     0.004 A 
HETATM   20  C12 UNL     1      27.106   5.859  48.531  1.00  0.00     0.024 A 
HETATM   21  C13 UNL     1      25.812   6.323  48.632  1.00  0.00     0.036 A 
HETATM   22 CL1  UNL     1      25.492   7.969  48.140  1.00  0.00    -0.084 Cl
HETATM   23  C14 UNL     1      24.778   5.527  49.108  1.00  0.00     0.054 A 
ENDBRANCH  15  17
ENDBRANCH   9  15
BRANCH   1  24
HETATM   24  N2  UNL     1      27.485   0.478  53.680  1.00  0.00    -0.231 NA
HETATM   25  H3  UNL     1      28.047   1.354  53.776  1.00  0.00     0.142 HD
BRANCH  24  26
HETATM   26  N1  UNL     1      27.698  -0.261  54.849  1.00  0.00    -0.269 NA
HETATM   27  H1  UNL     1      26.850  -0.349  55.442  1.00  0.00     0.137 HD
HETATM   28  H2  UNL     1      28.562   0.019  55.344  1.00  0.00     0.137 HD
ENDBRANCH  24  26
ENDBRANCH   1  24
TORSDOF 4
ENDMDL
MODEL 7
REMARK VINA RESULT:      -7.8      5.324      6.878
REMARK  4 active torsions:
REMARK  status: ('A' for Active; 'I' for Inactive)
REMARK    1  A    between atoms: N1_1  and  N2_2 
REMARK    2  A    between atoms: N2_2  and  C1_3 
REMARK    3  A    between atoms: N3_11  and  N4_12 
REMARK    4  A    between atoms: N4_12  and  C9_13 
ROOT
HETATM    1  C1  UNL     1      25.750   7.306  49.882  1.00  0.00     0.312 C 
HETATM    2  C2  UNL     1      26.668   6.634  48.930  1.00  0.00     0.089 C 
HETATM    3  C3  UNL     1      27.148   7.366  47.757  1.00  0.00    -0.052 A 
HETATM    4  C4  UNL     1      26.198   8.147  47.260  1.00  0.00     0.005 A 
HETATM    5  C5  UNL     1      26.387   8.988  46.083  1.00  0.00    -0.004 A 
HETATM    6  C6  UNL     1      27.596   8.886  45.556  1.00  0.00    -0.024 A 
HETATM    7  C7  UNL     1      28.737   8.072  45.967  1.00  0.00     0.058 A 
HETATM    8  C8  UNL     1      28.557   7.259  47.213  1.00  0.00     0.137 A 
HETATM    9  N3  UNL     1      29.455   7.950  48.201  1.00  0.00    -0.289 N 
HETATM   10  C15 UNL     1      28.932   9.288  48.476  1.00  0.00     0.265 C 
HETATM   11  N5  UNL     1      28.273   8.586  49.284  1.00  0.00    -0.269 NA
HETATM   12  C16 UNL     1      27.297   9.176  50.158  1.00  0.00     0.416 C 
HETATM   13  N6  UNL     1      26.485   8.172  50.770  1.00  0.00     0.121 N 
HETATM   14  H21 UNL     1      27.023   7.669  51.485  1.00  0.00     0.320 HD
ENDROOT
BRANCH   9  15
HETATM   15  N4  UNL     1      30.608   7.390  48.752  1.00  0.00    -0.300 N 
HETATM   16  H13 UNL     1      30.381   7.904  49.632  1.00  0.00     0.187 HD
BRANCH  15  17
HETATM   17  C9  UNL     1      31.705   6.551  48.531  1.00  0.00     0.049 A 
HETATM   18  C10 UNL     1      31.507   5.238  48.172  1.00  0.00     0.031 A 
HETATM   19  C11 UNL     1      32.607   4.437  47.960  1.00  0.00     0.004 A 
HETATM   20  C12 UNL     1      33.860   4.991  48.118  1.00  0.00     0.024 A 
HETATM   21  C13 UNL     1      34.018   6.312  48.478  1.00  0.00     0.036 A 
HETATM   22 CL1  UNL     1      35.646   6.923  48.653  1.00  0.00    -0.084 Cl
HETATM   23  C14 UNL     1      32.934   7.150  48.701  1.00  0.00     0.054 A 
ENDBRANCH  15  17
ENDBRANCH   9  15
BRANCH   1  24
HETATM   24  N2  UNL     1      25.283   6.243  50.855  1.00  0.00    -0.231 NA
HETATM   25  H3  UNL     1      26.141   5.950  51.374  1.00  0.00     0.142 HD
BRANCH  24  26
HETATM   26  N1  UNL     1      24.491   6.951  51.765  1.00  0.00    -0.269 NA
HETATM   27  H1  UNL     1      23.620   7.333  51.347  1.00  0.00     0.137 HD
HETATM   28  H2  UNL     1      25.040   7.617  52.336  1.00  0.00     0.137 HD
ENDBRANCH  24  26
ENDBRANCH   1  24
TORSDOF 4
ENDMDL
MODEL 8
REMARK VINA RESULT:      -7.7      3.692      5.858
REMARK  4 active torsions:
REMARK  status: ('A' for Active; 'I' for Inactive)
REMARK    1  A    between atoms: N1_1  and  N2_2 
REMARK    2  A    between atoms: N2_2  and  C1_3 
REMARK    3  A    between atoms: N3_11  and  N4_12 
REMARK    4  A    between atoms: N4_12  and  C9_13 
ROOT
HETATM    1  C1  UNL     1      24.802   2.663  53.265  1.00  0.00     0.312 C 
HETATM    2  C2  UNL     1      25.118   2.477  51.828  1.00  0.00     0.089 C 
HETATM    3  C3  UNL     1      24.026   2.333  50.864  1.00  0.00    -0.052 A 
HETATM    4  C4  UNL     1      23.026   1.629  51.378  1.00  0.00     0.005 A 
HETATM    5  C5  UNL     1      21.805   1.318  50.643  1.00  0.00    -0.004 A 
HETATM    6  C6  UNL     1      21.800   1.799  49.411  1.00  0.00    -0.024 A 
HETATM    7  C7  UNL     1      22.812   2.570  48.696  1.00  0.00     0.058 A 
HETATM    8  C8  UNL     1      24.037   2.941  49.477  1.00  0.00     0.137 A 
HETATM    9  N3  UNL     1      23.888   4.426  49.656  1.00  0.00    -0.289 N 
HETATM   10  C15 UNL     1      22.730   4.697  50.508  1.00  0.00     0.265 C 
HETATM   11  N5  UNL     1      23.632   4.498  51.360  1.00  0.00    -0.269 NA
HETATM   12  C16 UNL     1      23.354   4.567  52.769  1.00  0.00     0.416 C 
HETATM   13  N6  UNL     1      24.438   4.033  53.531  1.00  0.00     0.121 N 
HETATM   14  H21 UNL     1      25.234   4.682  53.516  1.00  0.00     0.320 HD
ENDROOT
BRANCH   9  15
HETATM   15  N4  UNL     1      24.727   5.383  49.084  1.00  0.00    -0.300 N 
HETATM   16  H13 UNL     1      23.881   5.981  48.955  1.00  0.00     0.187 HD
BRANCH  15  17
HETATM   17  C9  UNL     1      26.041   5.700  48.723  1.00  0.00     0.049 A 
HETATM   18  C10 UNL     1      27.040   4.766  48.869  1.00  0.00     0.031 A 
HETATM   19  C11 UNL     1      28.324   5.107  48.504  1.00  0.00     0.004 A 
HETATM   20  C12 UNL     1      28.547   6.374  48.007  1.00  0.00     0.024 A 
HETATM   21  C13 UNL     1      27.519   7.283  47.874  1.00  0.00     0.036 A 
HETATM   22 CL1  UNL     1      27.901   8.863  47.234  1.00  0.00    -0.084 Cl
HETATM   23  C14 UNL     1      26.213   6.975  48.232  1.00  0.00     0.054 A 
ENDBRANCH  15  17
ENDBRANCH   9  15
BRANCH   1  24
HETATM   24  N2  UNL     1      26.117   2.576  54.012  1.00  0.00    -0.231 NA
HETATM   25  H3  UNL     1      25.856   2.389  55.006  1.00  0.00     0.142 HD
BRANCH  24  26
HETATM   26  N1  UNL     1      26.699   1.400  53.526  1.00  0.00    -0.269 NA
HETATM   27  H1  UNL     1      26.765   0.647  54.238  1.00  0.00     0.137 HD
HETATM   28  H2  UNL     1      27.561   1.578  52.983  1.00  0.00     0.137 HD
ENDBRANCH  24  26
ENDBRANCH   1  24
TORSDOF 4
ENDMDL
MODEL 9
REMARK VINA RESULT:      -7.6      2.818      4.457
REMARK  4 active torsions:
REMARK  status: ('A' for Active; 'I' for Inactive)
REMARK    1  A    between atoms: N1_1  and  N2_2 
REMARK    2  A    between atoms: N2_2  and  C1_3 
REMARK    3  A    between atoms: N3_11  and  N4_12 
REMARK    4  A    between atoms: N4_12  and  C9_13 
ROOT
HETATM    1  C1  UNL     1      21.274   3.017  48.914  1.00  0.00     0.312 C 
HETATM    2  C2  UNL     1      22.738   2.817  48.794  1.00  0.00     0.089 C 
HETATM    3  C3  UNL     1      23.627   3.980  48.807  1.00  0.00    -0.052 A 
HETATM    4  C4  UNL     1      23.082   5.004  48.162  1.00  0.00     0.005 A 
HETATM    5  C5  UNL     1      23.743   6.295  48.005  1.00  0.00    -0.004 A 
HETATM    6  C6  UNL     1      24.942   6.339  48.562  1.00  0.00    -0.024 A 
HETATM    7  C7  UNL     1      25.683   5.311  49.287  1.00  0.00     0.058 A 
HETATM    8  C8  UNL     1      24.973   4.007  49.499  1.00  0.00     0.137 A 
HETATM    9  N3  UNL     1      24.698   4.008  50.977  1.00  0.00    -0.289 N 
HETATM   10  C15 UNL     1      23.751   5.076  51.293  1.00  0.00     0.265 C 
HETATM   11  N5  UNL     1      22.979   4.140  50.962  1.00  0.00    -0.269 NA
HETATM   12  C16 UNL     1      21.553   4.315  50.964  1.00  0.00     0.416 C 
HETATM   13  N6  UNL     1      20.904   3.236  50.291  1.00  0.00     0.121 N 
HETATM   14  H21 UNL     1      20.939   2.387  50.867  1.00  0.00     0.320 HD
ENDROOT
BRANCH   9  15
HETATM   15  N4  UNL     1      25.275   3.126  51.892  1.00  0.00    -0.300 N 
HETATM   16  H13 UNL     1      25.662   3.961  52.384  1.00  0.00     0.187 HD
BRANCH  15  17
HETATM   17  C9  UNL     1      25.444   1.785  52.255  1.00  0.00     0.049 A 
HETATM   18  C10 UNL     1      26.557   1.093  51.838  1.00  0.00     0.031 A 
HETATM   19  C11 UNL     1      26.695  -0.225  52.212  1.00  0.00     0.004 A 
HETATM   20  C12 UNL     1      25.708  -0.791  52.991  1.00  0.00     0.024 A 
HETATM   21  C13 UNL     1      24.607  -0.065  53.390  1.00  0.00     0.036 A 
HETATM   22 CL1  UNL     1      23.409  -0.869  54.376  1.00  0.00    -0.084 Cl
HETATM   23  C14 UNL     1      24.432   1.266  53.032  1.00  0.00     0.054 A 
ENDBRANCH  15  17
ENDBRANCH   9  15
BRANCH   1  24
HETATM   24  N2  UNL     1      20.631   1.668  48.666  1.00  0.00    -0.231 NA
HETATM   25  H3  UNL     1      20.730   1.147  49.566  1.00  0.00     0.142 HD
BRANCH  24  26
HETATM   26  N1  UNL     1      19.272   1.968  48.528  1.00  0.00    -0.269 NA
HETATM   27  H1  UNL     1      19.043   2.958  48.744  1.00  0.00     0.137 HD
HETATM   28  H2  UNL     1      18.662   1.262  48.973  1.00  0.00     0.137 HD
ENDBRANCH  24  26
ENDBRANCH   1  24
TORSDOF 4
ENDMDL
