MODEL 1
REMARK VINA RESULT:      -8.7      0.000      0.000
REMARK  3 active torsions:
REMARK  status: ('A' for Active; 'I' for Inactive)
REMARK    1  A    between atoms: O1_2  and  C2_3 
REMARK    2  A    between atoms: C7_10  and  N3_11 
REMARK    3  A    between atoms: N3_11  and  C8_12 
ROOT
HETATM    1  C2  UNL     1      19.927   0.305  51.335  1.00  0.00     0.203 C 
HETATM    2  C3  UNL     1      19.333  -0.265  52.565  1.00  0.00     0.014 C 
HETATM    3  C4  UNL     1      19.842  -0.675  53.741  1.00  0.00     0.031 C 
HETATM    4  C5  UNL     1      21.289  -0.609  54.029  1.00  0.00     0.074 A 
HETATM    5  N1  UNL     1      21.668  -1.490  54.934  1.00  0.00    -0.241 NA
HETATM    6  C6  UNL     1      22.945  -1.589  55.318  1.00  0.00     0.236 A 
HETATM    7  N2  UNL     1      23.899  -0.774  54.779  1.00  0.00    -0.223 NA
HETATM    8  C7  UNL     1      23.541   0.133  53.852  1.00  0.00     0.144 A 
HETATM    9  C15 UNL     1      22.226   0.217  53.475  1.00  0.00     0.075 A 
HETATM   10  C16 UNL     1      22.038   1.264  52.503  1.00  0.00     0.117 C 
HETATM   11  C17 UNL     1      21.036   1.263  51.599  1.00  0.00     0.113 C 
HETATM   12  O2  UNL     1      21.050   2.387  50.749  1.00  0.00    -0.347 OA
HETATM   13  C18 UNL     1      21.556   3.588  51.300  1.00  0.00     0.202 C 
HETATM   14  C19 UNL     1      22.985   3.318  51.709  1.00  0.00     0.202 C 
HETATM   15  O3  UNL     1      23.010   2.242  52.631  1.00  0.00    -0.345 OA
ENDROOT
BRANCH   8  16
HETATM   16  N3  UNL     1      24.575   0.938  53.307  1.00  0.00    -0.340 N 
HETATM   17  H8  UNL     1      24.996   1.768  52.873  1.00  0.00     0.167 HD
BRANCH  16  18
HETATM   18  C8  UNL     1      25.865   0.276  53.306  1.00  0.00     0.033 A 
HETATM   19  C9  UNL     1      26.333  -0.816  52.615  1.00  0.00     0.030 A 
HETATM   20  C10 UNL     1      27.626  -1.288  52.754  1.00  0.00     0.009 A 
HETATM   21  C11 UNL     1      28.510  -0.674  53.602  1.00  0.00    -0.062 A 
HETATM   22  C12 UNL     1      29.875  -1.247  53.691  1.00  0.00     0.048 C 
HETATM   23  C13 UNL     1      28.109   0.417  54.316  1.00  0.00     0.009 A 
HETATM   24  C14 UNL     1      26.808   0.874  54.163  1.00  0.00     0.030 A 
ENDBRANCH  16  18
ENDBRANCH   8  16
BRANCH   1  25
HETATM   25  O1  UNL     1      18.894   0.975  50.674  1.00  0.00    -0.380 OA
HETATM   26  C1  UNL     1      17.766   0.157  50.579  1.00  0.00     0.202 C 
ENDBRANCH   1  25
TORSDOF 3
ENDMDL
MODEL 2
REMARK VINA RESULT:      -8.5      1.722      3.238
REMARK  3 active torsions:
REMARK  status: ('A' for Active; 'I' for Inactive)
REMARK    1  A    between atoms: O1_2  and  C2_3 
REMARK    2  A    between atoms: C7_10  and  N3_11 
REMARK    3  A    between atoms: N3_11  and  C8_12 
ROOT
HETATM    1  C2  UNL     1      19.678   0.612  52.332  1.00  0.00     0.203 C 
HETATM    2  C3  UNL     1      19.910   0.709  50.873  1.00  0.00     0.014 C 
HETATM    3  C4  UNL     1      20.981   1.020  50.120  1.00  0.00     0.031 C 
HETATM    4  C5  UNL     1      22.284   1.367  50.723  1.00  0.00     0.074 A 
HETATM    5  N1  UNL     1      23.022   2.126  49.938  1.00  0.00    -0.241 NA
HETATM    6  C6  UNL     1      24.232   2.551  50.316  1.00  0.00     0.236 A 
HETATM    7  N2  UNL     1      24.739   2.208  51.536  1.00  0.00    -0.223 NA
HETATM    8  C7  UNL     1      24.007   1.435  52.358  1.00  0.00     0.144 A 
HETATM    9  C15 UNL     1      22.770   1.010  51.949  1.00  0.00     0.075 A 
HETATM   10  C16 UNL     1      22.160   0.171  52.949  1.00  0.00     0.117 C 
HETATM   11  C17 UNL     1      20.825   0.028  53.080  1.00  0.00     0.113 C 
HETATM   12  O2  UNL     1      20.457  -0.842  54.125  1.00  0.00    -0.347 OA
HETATM   13  C18 UNL     1      21.352  -1.901  54.409  1.00  0.00     0.202 C 
HETATM   14  C19 UNL     1      22.670  -1.273  54.792  1.00  0.00     0.202 C 
HETATM   15  O3  UNL     1      23.120  -0.449  53.730  1.00  0.00    -0.345 OA
ENDROOT
BRANCH   8  16
HETATM   16  N3  UNL     1      24.573   1.128  53.624  1.00  0.00    -0.340 N 
HETATM   17  H8  UNL     1      24.626   1.087  54.649  1.00  0.00     0.167 HD
BRANCH  16  18
HETATM   18  C8  UNL     1      25.869   0.487  53.524  1.00  0.00     0.033 A 
HETATM   19  C9  UNL     1      26.335  -0.513  52.704  1.00  0.00     0.030 A 
HETATM   20  C10 UNL     1      27.635  -0.982  52.764  1.00  0.00     0.009 A 
HETATM   21  C11 UNL     1      28.528  -0.459  53.662  1.00  0.00    -0.062 A 
HETATM   22  C12 UNL     1      29.900  -1.022  53.661  1.00  0.00     0.048 C 
HETATM   23  C13 UNL     1      28.129   0.537  54.505  1.00  0.00     0.009 A 
HETATM   24  C14 UNL     1      26.822   0.993  54.428  1.00  0.00     0.030 A 
ENDBRANCH  16  18
ENDBRANCH   8  16
BRANCH   1  25
HETATM   25  O1  UNL     1      18.560  -0.209  52.497  1.00  0.00    -0.380 OA
HETATM   26  C1  UNL     1      17.736  -0.144  51.372  1.00  0.00     0.202 C 
ENDBRANCH   1  25
TORSDOF 3
ENDMDL
MODEL 3
REMARK VINA RESULT:      -8.4      1.718      2.147
REMARK  3 active torsions:
REMARK  status: ('A' for Active; 'I' for Inactive)
REMARK    1  A    between atoms: O1_2  and  C2_3 
REMARK    2  A    between atoms: C7_10  and  N3_11 
REMARK    3  A    between atoms: N3_11  and  C8_12 
ROOT
HETATM    1  C2  UNL     1      21.746   1.371  48.994  1.00  0.00     0.203 C 
HETATM    2  C3  UNL     1      20.642   0.851  49.832  1.00  0.00     0.014 C 
HETATM    3  C4  UNL     1      20.566   0.405  51.100  1.00  0.00     0.031 C 
HETATM    4  C5  UNL     1      21.751   0.357  51.980  1.00  0.00     0.074 A 
HETATM    5  N1  UNL     1      21.641  -0.548  52.932  1.00  0.00    -0.241 NA
HETATM    6  C6  UNL     1      22.619  -0.746  53.823  1.00  0.00     0.236 A 
HETATM    7  N2  UNL     1      23.768  -0.010  53.769  1.00  0.00    -0.223 NA
HETATM    8  C7  UNL     1      23.907   0.920  52.808  1.00  0.00     0.144 A 
HETATM    9  C15 UNL     1      22.891   1.107  51.907  1.00  0.00     0.075 A 
HETATM   10  C16 UNL     1      23.214   2.163  50.982  1.00  0.00     0.117 C 
HETATM   11  C17 UNL     1      22.699   2.239  49.737  1.00  0.00     0.113 C 
HETATM   12  O2  UNL     1      23.157   3.357  49.011  1.00  0.00    -0.347 OA
HETATM   13  C18 UNL     1      23.463   4.516  49.764  1.00  0.00     0.202 C 
HETATM   14  C19 UNL     1      24.554   4.135  50.735  1.00  0.00     0.202 C 
HETATM   15  O3  UNL     1      24.104   3.062  51.545  1.00  0.00    -0.345 OA
ENDROOT
BRANCH   8  16
HETATM   16  N3  UNL     1      25.130   1.641  52.784  1.00  0.00    -0.340 N 
HETATM   17  H8  UNL     1      25.740   2.464  52.707  1.00  0.00     0.167 HD
BRANCH  16  18
HETATM   18  C8  UNL     1      26.292   0.790  52.953  1.00  0.00     0.033 A 
HETATM   19  C9  UNL     1      26.599  -0.450  52.445  1.00  0.00     0.030 A 
HETATM   20  C10 UNL     1      27.790  -1.097  52.727  1.00  0.00     0.009 A 
HETATM   21  C11 UNL     1      28.727  -0.517  53.541  1.00  0.00    -0.062 A 
HETATM   22  C12 UNL     1      29.973  -1.281  53.792  1.00  0.00     0.048 C 
HETATM   23  C13 UNL     1      28.483   0.714  54.077  1.00  0.00     0.009 A 
HETATM   24  C14 UNL     1      27.285   1.345  53.781  1.00  0.00     0.030 A 
ENDBRANCH  16  18
ENDBRANCH   8  16
BRANCH   1  25
HETATM   25  O1  UNL     1      21.147   2.118  47.976  1.00  0.00    -0.380 OA
HETATM   26  C1  UNL     1      19.883   2.559  48.375  1.00  0.00     0.202 C 
ENDBRANCH   1  25
TORSDOF 3
ENDMDL
MODEL 4
REMARK VINA RESULT:      -8.3      3.568      5.798
REMARK  3 active torsions:
REMARK  status: ('A' for Active; 'I' for Inactive)
REMARK    1  A    between atoms: O1_2  and  C2_3 
REMARK    2  A    between atoms: C7_10  and  N3_11 
REMARK    3  A    between atoms: N3_11  and  C8_12 
ROOT
HETATM    1  C2  UNL     1      22.437   0.089  53.535  1.00  0.00     0.203 C 
HETATM    2  C3  UNL     1      21.497  -0.192  52.426  1.00  0.00     0.014 C 
HETATM    3  C4  UNL     1      21.338   0.314  51.190  1.00  0.00     0.031 C 
HETATM    4  C5  UNL     1      22.206   1.391  50.671  1.00  0.00     0.074 A 
HETATM    5  N1  UNL     1      21.622   2.106  49.730  1.00  0.00    -0.241 NA
HETATM    6  C6  UNL     1      22.248   3.133  49.146  1.00  0.00     0.236 A 
HETATM    7  N2  UNL     1      23.519   3.471  49.511  1.00  0.00    -0.223 NA
HETATM    8  C7  UNL     1      24.139   2.759  50.469  1.00  0.00     0.144 A 
HETATM    9  C15 UNL     1      23.479   1.709  51.053  1.00  0.00     0.075 A 
HETATM   10  C16 UNL     1      24.316   1.055  52.025  1.00  0.00     0.117 C 
HETATM   11  C17 UNL     1      23.827   0.368  53.080  1.00  0.00     0.113 C 
HETATM   12  O2  UNL     1      24.831  -0.187  53.897  1.00  0.00    -0.347 OA
HETATM   13  C18 UNL     1      26.032  -0.566  53.253  1.00  0.00     0.202 C 
HETATM   14  C19 UNL     1      26.607   0.680  52.622  1.00  0.00     0.202 C 
HETATM   15  O3  UNL     1      25.656   1.229  51.726  1.00  0.00    -0.345 OA
ENDROOT
BRANCH   8  16
HETATM   16  N3  UNL     1      25.451   3.167  50.826  1.00  0.00    -0.340 N 
HETATM   17  H8  UNL     1      26.341   3.142  51.338  1.00  0.00     0.167 HD
BRANCH  16  18
HETATM   18  C8  UNL     1      25.907   4.323  50.079  1.00  0.00     0.033 A 
HETATM   19  C9  UNL     1      25.436   5.613  50.010  1.00  0.00     0.030 A 
HETATM   20  C10 UNL     1      26.035   6.584  49.228  1.00  0.00     0.009 A 
HETATM   21  C11 UNL     1      27.142   6.295  48.475  1.00  0.00    -0.062 A 
HETATM   22  C12 UNL     1      27.719   7.395  47.664  1.00  0.00     0.048 C 
HETATM   23  C13 UNL     1      27.660   5.032  48.499  1.00  0.00     0.009 A 
HETATM   24  C14 UNL     1      27.046   4.073  49.290  1.00  0.00     0.030 A 
ENDBRANCH  16  18
ENDBRANCH   8  16
BRANCH   1  25
HETATM   25  O1  UNL     1      22.443  -1.051  54.343  1.00  0.00    -0.380 OA
HETATM   26  C1  UNL     1      21.170  -1.623  54.387  1.00  0.00     0.202 C 
ENDBRANCH   1  25
TORSDOF 3
ENDMDL
MODEL 5
REMARK VINA RESULT:      -8.2      3.287      5.140
REMARK  3 active torsions:
REMARK  status: ('A' for Active; 'I' for Inactive)
REMARK    1  A    between atoms: O1_2  and  C2_3 
REMARK    2  A    between atoms: C7_10  and  N3_11 
REMARK    3  A    between atoms: N3_11  and  C8_12 
ROOT
HETATM    1  C2  UNL     1      22.306  -0.428  52.777  1.00  0.00     0.203 C 
HETATM    2  C3  UNL     1      23.330  -0.690  53.814  1.00  0.00     0.014 C 
HETATM    3  C4  UNL     1      24.561  -0.203  54.051  1.00  0.00     0.031 C 
HETATM    4  C5  UNL     1      25.174   0.821  53.181  1.00  0.00     0.074 A 
HETATM    5  N1  UNL     1      26.492   0.795  53.215  1.00  0.00    -0.241 NA
HETATM    6  C6  UNL     1      27.225   1.642  52.485  1.00  0.00     0.236 A 
HETATM    7  N2  UNL     1      26.624   2.563  51.676  1.00  0.00    -0.223 NA
HETATM    8  C7  UNL     1      25.281   2.612  51.621  1.00  0.00     0.144 A 
HETATM    9  C15 UNL     1      24.550   1.735  52.380  1.00  0.00     0.075 A 
HETATM   10  C16 UNL     1      23.138   1.965  52.210  1.00  0.00     0.117 C 
HETATM   11  C17 UNL     1      22.205   1.006  52.390  1.00  0.00     0.113 C 
HETATM   12  O2  UNL     1      20.889   1.459  52.169  1.00  0.00    -0.347 OA
HETATM   13  C18 UNL     1      20.630   2.817  52.471  1.00  0.00     0.202 C 
HETATM   14  C19 UNL     1      21.542   3.644  51.596  1.00  0.00     0.202 C 
HETATM   15  O3  UNL     1      22.887   3.277  51.847  1.00  0.00    -0.345 OA
ENDROOT
BRANCH   8  16
HETATM   16  N3  UNL     1      24.708   3.573  50.748  1.00  0.00    -0.340 N 
HETATM   17  H8  UNL     1      23.957   4.104  50.290  1.00  0.00     0.167 HD
BRANCH  16  18
HETATM   18  C8  UNL     1      25.698   4.298  49.977  1.00  0.00     0.033 A 
HETATM   19  C9  UNL     1      26.825   3.880  49.310  1.00  0.00     0.030 A 
HETATM   20  C10 UNL     1      27.645   4.749  48.613  1.00  0.00     0.009 A 
HETATM   21  C11 UNL     1      27.362   6.089  48.558  1.00  0.00    -0.062 A 
HETATM   22  C12 UNL     1      28.295   6.949  47.791  1.00  0.00     0.048 C 
HETATM   23  C13 UNL     1      26.257   6.569  49.199  1.00  0.00     0.009 A 
HETATM   24  C14 UNL     1      25.448   5.681  49.892  1.00  0.00     0.030 A 
ENDBRANCH  16  18
ENDBRANCH   8  16
BRANCH   1  25
HETATM   25  O1  UNL     1      21.086  -0.842  53.317  1.00  0.00    -0.380 OA
HETATM   26  C1  UNL     1      21.290  -1.522  54.519  1.00  0.00     0.202 C 
ENDBRANCH   1  25
TORSDOF 3
ENDMDL
MODEL 6
REMARK VINA RESULT:      -7.9      2.436      7.450
REMARK  3 active torsions:
REMARK  status: ('A' for Active; 'I' for Inactive)
REMARK    1  A    between atoms: O1_2  and  C2_3 
REMARK    2  A    between atoms: C7_10  and  N3_11 
REMARK    3  A    between atoms: N3_11  and  C8_12 
ROOT
HETATM    1  C2  UNL     1      27.269  -0.338  53.171  1.00  0.00     0.203 C 
HETATM    2  C3  UNL     1      27.727   1.047  52.918  1.00  0.00     0.014 C 
HETATM    3  C4  UNL     1      27.155   2.130  52.362  1.00  0.00     0.031 C 
HETATM    4  C5  UNL     1      25.774   2.098  51.837  1.00  0.00     0.074 A 
HETATM    5  N1  UNL     1      25.567   3.000  50.899  1.00  0.00    -0.241 NA
HETATM    6  C6  UNL     1      24.379   3.118  50.296  1.00  0.00     0.236 A 
HETATM    7  N2  UNL     1      23.341   2.299  50.639  1.00  0.00    -0.223 NA
HETATM    8  C7  UNL     1      23.525   1.370  51.593  1.00  0.00     0.144 A 
HETATM    9  C15 UNL     1      24.751   1.269  52.198  1.00  0.00     0.075 A 
HETATM   10  C16 UNL     1      24.740   0.242  53.209  1.00  0.00     0.117 C 
HETATM   11  C17 UNL     1      25.846  -0.425  53.598  1.00  0.00     0.113 C 
HETATM   12  O2  UNL     1      25.596  -1.384  54.601  1.00  0.00    -0.347 OA
HETATM   13  C18 UNL     1      24.544  -1.094  55.502  1.00  0.00     0.202 C 
HETATM   14  C19 UNL     1      23.283  -0.965  54.681  1.00  0.00     0.202 C 
HETATM   15  O3  UNL     1      23.463   0.050  53.709  1.00  0.00    -0.345 OA
ENDROOT
BRANCH   8  16
HETATM   16  N3  UNL     1      22.421   0.530  51.894  1.00  0.00    -0.340 N 
HETATM   17  H8  UNL     1      21.940  -0.328  52.190  1.00  0.00     0.167 HD
BRANCH  16  18
HETATM   18  C8  UNL     1      21.142   1.179  51.680  1.00  0.00     0.033 A 
HETATM   19  C9  UNL     1      20.549   2.257  52.293  1.00  0.00     0.030 A 
HETATM   20  C10 UNL     1      19.303   2.732  51.924  1.00  0.00     0.009 A 
HETATM   21  C11 UNL     1      18.596   2.136  50.913  1.00  0.00    -0.062 A 
HETATM   22  C12 UNL     1      17.268   2.708  50.584  1.00  0.00     0.048 C 
HETATM   23  C13 UNL     1      19.129   1.060  50.263  1.00  0.00     0.009 A 
HETATM   24  C14 UNL     1      20.379   0.600  50.648  1.00  0.00     0.030 A 
ENDBRANCH  16  18
ENDBRANCH   8  16
BRANCH   1  25
HETATM   25  O1  UNL     1      28.083  -0.841  54.189  1.00  0.00    -0.380 OA
HETATM   26  C1  UNL     1      28.646   0.204  54.924  1.00  0.00     0.202 C 
ENDBRANCH   1  25
TORSDOF 3
ENDMDL
MODEL 7
REMARK VINA RESULT:      -7.8      2.284      6.826
REMARK  3 active torsions:
REMARK  status: ('A' for Active; 'I' for Inactive)
REMARK    1  A    between atoms: O1_2  and  C2_3 
REMARK    2  A    between atoms: C7_10  and  N3_11 
REMARK    3  A    between atoms: N3_11  and  C8_12 
ROOT
HETATM    1  C2  UNL     1      27.358   1.443  53.445  1.00  0.00     0.203 C 
HETATM    2  C3  UNL     1      27.140   0.017  53.775  1.00  0.00     0.014 C 
HETATM    3  C4  UNL     1      26.044  -0.755  53.895  1.00  0.00     0.031 C 
HETATM    4  C5  UNL     1      24.685  -0.215  53.685  1.00  0.00     0.074 A 
HETATM    5  N1  UNL     1      23.761  -0.900  54.329  1.00  0.00    -0.241 NA
HETATM    6  C6  UNL     1      22.470  -0.556  54.269  1.00  0.00     0.236 A 
HETATM    7  N2  UNL     1      22.071   0.523  53.534  1.00  0.00    -0.223 NA
HETATM    8  C7  UNL     1      22.993   1.240  52.867  1.00  0.00     0.144 A 
HETATM    9  C15 UNL     1      24.310   0.868  52.942  1.00  0.00     0.075 A 
HETATM   10  C16 UNL     1      25.134   1.735  52.138  1.00  0.00     0.117 C 
HETATM   11  C17 UNL     1      26.441   1.956  52.389  1.00  0.00     0.113 C 
HETATM   12  O2  UNL     1      27.044   2.839  51.472  1.00  0.00    -0.347 OA
HETATM   13  C18 UNL     1      26.530   2.829  50.154  1.00  0.00     0.202 C 
HETATM   14  C19 UNL     1      25.071   3.207  50.247  1.00  0.00     0.202 C 
HETATM   15  O3  UNL     1      24.406   2.291  51.100  1.00  0.00    -0.345 OA
ENDROOT
BRANCH   8  16
HETATM   16  N3  UNL     1      22.527   2.365  52.136  1.00  0.00    -0.340 N 
HETATM   17  H8  UNL     1      22.568   3.303  51.720  1.00  0.00     0.167 HD
BRANCH  16  18
HETATM   18  C8  UNL     1      21.178   2.194  51.635  1.00  0.00     0.033 A 
HETATM   19  C9  UNL     1      19.966   2.649  52.096  1.00  0.00     0.030 A 
HETATM   20  C10 UNL     1      18.772   2.377  51.451  1.00  0.00     0.009 A 
HETATM   21  C11 UNL     1      18.750   1.627  50.304  1.00  0.00    -0.062 A 
HETATM   22  C12 UNL     1      17.428   1.382  49.679  1.00  0.00     0.048 C 
HETATM   23  C13 UNL     1      19.920   1.145  49.793  1.00  0.00     0.009 A 
HETATM   24  C14 UNL     1      21.105   1.430  50.455  1.00  0.00     0.030 A 
ENDBRANCH  16  18
ENDBRANCH   8  16
BRANCH   1  25
HETATM   25  O1  UNL     1      28.676   1.545  52.992  1.00  0.00    -0.380 OA
HETATM   26  C1  UNL     1      29.494   0.638  53.669  1.00  0.00     0.202 C 
ENDBRANCH   1  25
TORSDOF 3
ENDMDL
MODEL 8
REMARK VINA RESULT:      -7.1      2.169      6.570
REMARK  3 active torsions:
REMARK  status: ('A' for Active; 'I' for Inactive)
REMARK    1  A    between atoms: O1_2  and  C2_3 
REMARK    2  A    between atoms: C7_10  and  N3_11 
REMARK    3  A    between atoms: N3_11  and  C8_12 
ROOT
HETATM    1  C2  UNL     1      24.384   2.222  51.478  1.00  0.00     0.203 C 
HETATM    2  C3  UNL     1      25.184   1.129  52.075  1.00  0.00     0.014 C 
HETATM    3  C4  UNL     1      24.889   0.090  52.878  1.00  0.00     0.031 C 
HETATM    4  C5  UNL     1      23.514  -0.155  53.360  1.00  0.00     0.074 A 
HETATM    5  N1  UNL     1      23.486  -0.830  54.492  1.00  0.00    -0.241 NA
HETATM    6  C6  UNL     1      22.330  -1.140  55.090  1.00  0.00     0.236 A 
HETATM    7  N2  UNL     1      21.139  -0.761  54.540  1.00  0.00    -0.223 NA
HETATM    8  C7  UNL     1      21.139  -0.070  53.386  1.00  0.00     0.144 A 
HETATM    9  C15 UNL     1      22.335   0.234  52.790  1.00  0.00     0.075 A 
HETATM   10  C16 UNL     1      22.126   0.944  51.554  1.00  0.00     0.117 C 
HETATM   11  C17 UNL     1      23.033   1.791  51.024  1.00  0.00     0.113 C 
HETATM   12  O2  UNL     1      22.613   2.371  49.811  1.00  0.00    -0.347 OA
HETATM   13  C18 UNL     1      21.762   1.586  48.998  1.00  0.00     0.202 C 
HETATM   14  C19 UNL     1      20.521   1.296  49.809  1.00  0.00     0.202 C 
HETATM   15  O3  UNL     1      20.892   0.636  51.007  1.00  0.00    -0.345 OA
ENDROOT
BRANCH   8  16
HETATM   16  N3  UNL     1      19.875   0.318  52.870  1.00  0.00    -0.340 N 
HETATM   17  H8  UNL     1      19.181   0.945  52.444  1.00  0.00     0.167 HD
BRANCH  16  18
HETATM   18  C8  UNL     1      18.880  -0.733  52.959  1.00  0.00     0.033 A 
HETATM   19  C9  UNL     1      18.864  -1.922  53.648  1.00  0.00     0.030 A 
HETATM   20  C10 UNL     1      17.791  -2.795  53.604  1.00  0.00     0.009 A 
HETATM   21  C11 UNL     1      16.680  -2.503  52.858  1.00  0.00    -0.062 A 
HETATM   22  C12 UNL     1      15.577  -3.495  52.866  1.00  0.00     0.048 C 
HETATM   23  C13 UNL     1      16.632  -1.337  52.151  1.00  0.00     0.009 A 
HETATM   24  C14 UNL     1      17.717  -0.476  52.208  1.00  0.00     0.030 A 
ENDBRANCH  16  18
ENDBRANCH   8  16
BRANCH   1  25
HETATM   25  O1  UNL     1      25.109   2.683  50.376  1.00  0.00    -0.380 OA
HETATM   26  C1  UNL     1      25.339   4.056  50.484  1.00  0.00     0.202 C 
ENDBRANCH   1  25
TORSDOF 3
ENDMDL
MODEL 9
REMARK VINA RESULT:      -6.9      4.069      5.577
REMARK  3 active torsions:
REMARK  status: ('A' for Active; 'I' for Inactive)
REMARK    1  A    between atoms: O1_2  and  C2_3 
REMARK    2  A    between atoms: C7_10  and  N3_11 
REMARK    3  A    between atoms: N3_11  and  C8_12 
ROOT
HETATM    1  C2  UNL     1      21.451   1.500  50.747  1.00  0.00     0.203 C 
HETATM    2  C3  UNL     1      22.174   0.818  51.843  1.00  0.00     0.014 C 
HETATM    3  C4  UNL     1      23.432   0.890  52.315  1.00  0.00     0.031 C 
HETATM    4  C5  UNL     1      24.436   1.797  51.720  1.00  0.00     0.074 A 
HETATM    5  N1  UNL     1      25.673   1.384  51.916  1.00  0.00    -0.241 NA
HETATM    6  C6  UNL     1      26.719   2.069  51.442  1.00  0.00     0.236 A 
HETATM    7  N2  UNL     1      26.533   3.224  50.738  1.00  0.00    -0.223 NA
HETATM    8  C7  UNL     1      25.282   3.668  50.523  1.00  0.00     0.144 A 
HETATM    9  C15 UNL     1      24.225   2.950  51.019  1.00  0.00     0.075 A 
HETATM   10  C16 UNL     1      22.976   3.601  50.715  1.00  0.00     0.117 C 
HETATM   11  C17 UNL     1      21.804   2.940  50.606  1.00  0.00     0.113 C 
HETATM   12  O2  UNL     1      20.715   3.781  50.304  1.00  0.00    -0.347 OA
HETATM   13  C18 UNL     1      20.782   5.103  50.802  1.00  0.00     0.202 C 
HETATM   14  C19 UNL     1      22.016   5.737  50.207  1.00  0.00     0.202 C 
HETATM   15  O3  UNL     1      23.152   4.965  50.558  1.00  0.00    -0.345 OA
ENDROOT
BRANCH   8  16
HETATM   16  N3  UNL     1      25.144   4.860  49.765  1.00  0.00    -0.340 N 
HETATM   17  H8  UNL     1      24.656   5.660  49.344  1.00  0.00     0.167 HD
BRANCH  16  18
HETATM   18  C8  UNL     1      26.392   5.303  49.175  1.00  0.00     0.033 A 
HETATM   19  C9  UNL     1      27.508   4.611  48.770  1.00  0.00     0.030 A 
HETATM   20  C10 UNL     1      28.610   5.234  48.210  1.00  0.00     0.009 A 
HETATM   21  C11 UNL     1      28.633   6.593  48.034  1.00  0.00    -0.062 A 
HETATM   22  C12 UNL     1      29.853   7.179  47.430  1.00  0.00     0.048 C 
HETATM   23  C13 UNL     1      27.555   7.338  48.415  1.00  0.00     0.009 A 
HETATM   24  C14 UNL     1      26.461   6.694  48.974  1.00  0.00     0.030 A 
ENDBRANCH  16  18
ENDBRANCH   8  16
BRANCH   1  25
HETATM   25  O1  UNL     1      20.090   1.393  51.048  1.00  0.00    -0.380 OA
HETATM   26  C1  UNL     1      19.831   0.189  51.707  1.00  0.00     0.202 C 
ENDBRANCH   1  25
TORSDOF 3
ENDMDL
