MODEL 1
REMARK VINA RESULT:      -7.9      0.000      0.000
REMARK  7 active torsions:
REMARK  status: ('A' for Active; 'I' for Inactive)
REMARK    1  A    between atoms: N2_5  and  C4_6 
REMARK    2  A    between atoms: C4_6  and  C5_7 
REMARK    3  A    between atoms: C5_7  and  C6_8 
REMARK    4  A    between atoms: C7_9  and  C8_10 
REMARK    5  A    between atoms: C11_14  and  C12_15 
REMARK    6  A    between atoms: C12_15  and  N3_16 
REMARK    7  A    between atoms: N3_16  and  C14_18 
ROOT
HETATM    1  C1  UNL     1      23.586   3.223  49.037  1.00  0.00     0.027 C 
HETATM    2  C2  UNL     1      23.243   2.428  50.033  1.00  0.00     0.003 A 
HETATM    3  C3  UNL     1      22.145   1.595  50.026  1.00  0.00     0.151 A 
HETATM    4  N1  UNL     1      22.189   0.988  51.221  1.00  0.00    -0.184 NA
HETATM    5  N2  UNL     1      23.195   1.363  51.952  1.00  0.00    -0.268 N 
HETATM    6  C11 UNL     1      23.879   2.266  51.240  1.00  0.00     0.079 A 
ENDROOT
BRANCH   6   7
HETATM    7  C12 UNL     1      24.966   2.852  51.687  1.00  0.00     0.124 C 
BRANCH   7   8
HETATM    8  N3  UNL     1      26.327   2.630  51.475  1.00  0.00    -0.342 N 
HETATM    9  C13 UNL     1      26.844   3.147  50.201  1.00  0.00     0.157 C 
BRANCH   8  10
HETATM   10  C14 UNL     1      27.259   1.979  52.327  1.00  0.00     0.159 A 
HETATM   11  N4  UNL     1      28.157   2.652  53.026  1.00  0.00    -0.220 NA
HETATM   12  C15 UNL     1      29.032   2.031  53.833  1.00  0.00     0.258 A 
HETATM   13  N5  UNL     1      29.049   0.705  53.976  1.00  0.00    -0.161 NA
HETATM   14  N6  UNL     1      28.168  -0.023  53.296  1.00  0.00    -0.240 N 
HETATM   15  C16 UNL     1      27.993  -1.351  53.274  1.00  0.00     0.119 A 
HETATM   16  C19 UNL     1      27.290   0.599  52.487  1.00  0.00     0.104 A 
HETATM   17  C17 UNL     1      26.960  -1.643  52.420  1.00  0.00     0.022 A 
HETATM   18  C18 UNL     1      26.543  -0.411  51.947  1.00  0.00     0.037 A 
ENDBRANCH   8  10
ENDBRANCH   7   8
ENDBRANCH   6   7
BRANCH   5  19
HETATM   19  C4  UNL     1      23.514   0.893  53.286  1.00  0.00     0.155 C 
BRANCH  19  20
HETATM   20  C5  UNL     1      23.338  -0.631  53.324  1.00  0.00     0.049 C 
BRANCH  20  21
HETATM   21  C6  UNL     1      22.793  -1.079  54.622  1.00  0.00    -0.025 C 
HETATM   22  C7  UNL     1      21.555  -1.454  54.885  1.00  0.00    -0.001 C 
BRANCH  22  23
HETATM   23  C8  UNL     1      20.520  -1.472  53.868  1.00  0.00     0.037 C 
HETATM   24  C9  UNL     1      19.919  -0.333  53.513  1.00  0.00     0.090 C 
HETATM   25  C10 UNL     1      18.852  -0.274  52.478  1.00  0.00     0.082 C 
HETATM   26  F1  UNL     1      20.255   0.850  54.084  1.00  0.00    -0.211 F 
ENDBRANCH  22  23
ENDBRANCH  20  21
ENDBRANCH  19  20
ENDBRANCH   5  19
TORSDOF 7
ENDMDL
MODEL 2
REMARK VINA RESULT:      -7.8      2.445      6.103
REMARK  7 active torsions:
REMARK  status: ('A' for Active; 'I' for Inactive)
REMARK    1  A    between atoms: N2_5  and  C4_6 
REMARK    2  A    between atoms: C4_6  and  C5_7 
REMARK    3  A    between atoms: C5_7  and  C6_8 
REMARK    4  A    between atoms: C7_9  and  C8_10 
REMARK    5  A    between atoms: C11_14  and  C12_15 
REMARK    6  A    between atoms: C12_15  and  N3_16 
REMARK    7  A    between atoms: N3_16  and  C14_18 
ROOT
HETATM    1  C1  UNL     1      23.856   4.452  48.969  1.00  0.00     0.027 C 
HETATM    2  C2  UNL     1      24.913   3.906  49.542  1.00  0.00     0.003 A 
HETATM    3  C3  UNL     1      26.212   4.324  49.344  1.00  0.00     0.151 A 
HETATM    4  N1  UNL     1      26.940   3.500  50.111  1.00  0.00    -0.184 NA
HETATM    5  N2  UNL     1      26.223   2.627  50.753  1.00  0.00    -0.268 N 
HETATM    6  C11 UNL     1      24.946   2.851  50.421  1.00  0.00     0.079 A 
ENDROOT
BRANCH   6   7
HETATM    7  C12 UNL     1      23.950   2.142  50.898  1.00  0.00     0.124 C 
BRANCH   7   8
HETATM    8  N3  UNL     1      23.028   2.357  51.924  1.00  0.00    -0.342 N 
HETATM    9  C13 UNL     1      23.326   3.508  52.787  1.00  0.00     0.157 C 
BRANCH   8  10
HETATM   10  C14 UNL     1      21.857   1.614  52.229  1.00  0.00     0.159 A 
HETATM   11  N4  UNL     1      20.674   1.938  51.734  1.00  0.00    -0.220 NA
HETATM   12  C15 UNL     1      19.572   1.229  52.023  1.00  0.00     0.258 A 
HETATM   13  N5  UNL     1      19.601   0.162  52.824  1.00  0.00    -0.161 NA
HETATM   14  N6  UNL     1      20.766  -0.209  53.350  1.00  0.00    -0.240 N 
HETATM   15  C16 UNL     1      21.044  -1.230  54.172  1.00  0.00     0.119 A 
HETATM   16  C19 UNL     1      21.872   0.501  53.061  1.00  0.00     0.104 A 
HETATM   17  C17 UNL     1      22.386  -1.214  54.451  1.00  0.00     0.022 A 
HETATM   18  C18 UNL     1      22.874  -0.128  53.746  1.00  0.00     0.037 A 
ENDBRANCH   8  10
ENDBRANCH   7   8
ENDBRANCH   6   7
BRANCH   5  19
HETATM   19  C4  UNL     1      26.714   1.605  51.656  1.00  0.00     0.155 C 
BRANCH  19  20
HETATM   20  C5  UNL     1      26.839   2.209  53.060  1.00  0.00     0.049 C 
BRANCH  20  21
HETATM   21  C6  UNL     1      26.202   1.348  54.078  1.00  0.00    -0.025 C 
HETATM   22  C7  UNL     1      26.784   0.432  54.830  1.00  0.00    -0.001 C 
BRANCH  22  23
HETATM   23  C8  UNL     1      28.203   0.145  54.740  1.00  0.00     0.037 C 
HETATM   24  C9  UNL     1      28.648  -0.728  53.833  1.00  0.00     0.090 C 
HETATM   25  C10 UNL     1      30.088  -1.071  53.682  1.00  0.00     0.082 C 
HETATM   26  F1  UNL     1      27.798  -1.359  52.984  1.00  0.00    -0.211 F 
ENDBRANCH  22  23
ENDBRANCH  20  21
ENDBRANCH  19  20
ENDBRANCH   5  19
TORSDOF 7
ENDMDL
MODEL 3
REMARK VINA RESULT:      -7.7      1.543      4.841
REMARK  7 active torsions:
REMARK  status: ('A' for Active; 'I' for Inactive)
REMARK    1  A    between atoms: N2_5  and  C4_6 
REMARK    2  A    between atoms: C4_6  and  C5_7 
REMARK    3  A    between atoms: C5_7  and  C6_8 
REMARK    4  A    between atoms: C7_9  and  C8_10 
REMARK    5  A    between atoms: C11_14  and  C12_15 
REMARK    6  A    between atoms: C12_15  and  N3_16 
REMARK    7  A    between atoms: N3_16  and  C14_18 
ROOT
HETATM    1  C1  UNL     1      28.764   2.488  53.644  1.00  0.00     0.027 C 
HETATM    2  C2  UNL     1      28.060   1.385  53.821  1.00  0.00     0.003 A 
HETATM    3  C3  UNL     1      28.336   0.427  54.773  1.00  0.00     0.151 A 
HETATM    4  N1  UNL     1      27.379  -0.495  54.593  1.00  0.00    -0.184 NA
HETATM    5  N2  UNL     1      26.553  -0.200  53.634  1.00  0.00    -0.268 N 
HETATM    6  C11 UNL     1      26.948   0.974  53.127  1.00  0.00     0.079 A 
ENDROOT
BRANCH   6   7
HETATM    7  C12 UNL     1      26.327   1.568  52.135  1.00  0.00     0.124 C 
BRANCH   7   8
HETATM    8  N3  UNL     1      25.262   2.468  52.077  1.00  0.00    -0.342 N 
HETATM    9  C13 UNL     1      24.863   3.033  53.372  1.00  0.00     0.157 C 
BRANCH   8  10
HETATM   10  C14 UNL     1      24.530   2.898  50.938  1.00  0.00     0.159 A 
HETATM   11  N4  UNL     1      24.924   3.922  50.199  1.00  0.00    -0.220 NA
HETATM   12  C15 UNL     1      24.230   4.320  49.121  1.00  0.00     0.258 A 
HETATM   13  N5  UNL     1      23.108   3.713  48.733  1.00  0.00    -0.161 NA
HETATM   14  N6  UNL     1      22.665   2.677  49.440  1.00  0.00    -0.240 N 
HETATM   15  C16 UNL     1      21.577   1.917  49.251  1.00  0.00     0.119 A 
HETATM   16  C19 UNL     1      23.360   2.276  50.521  1.00  0.00     0.104 A 
HETATM   17  C17 UNL     1      21.531   0.966  50.238  1.00  0.00     0.022 A 
HETATM   18  C18 UNL     1      22.652   1.214  51.012  1.00  0.00     0.037 A 
ENDBRANCH   8  10
ENDBRANCH   7   8
ENDBRANCH   6   7
BRANCH   5  19
HETATM   19  C4  UNL     1      25.420  -0.991  53.198  1.00  0.00     0.155 C 
BRANCH  19  20
HETATM   20  C5  UNL     1      24.139  -0.373  53.774  1.00  0.00     0.049 C 
BRANCH  20  21
HETATM   21  C6  UNL     1      23.685  -1.098  54.980  1.00  0.00    -0.025 C 
HETATM   22  C7  UNL     1      22.500  -1.643  55.188  1.00  0.00    -0.001 C 
BRANCH  22  23
HETATM   23  C8  UNL     1      21.441  -1.591  54.199  1.00  0.00     0.037 C 
HETATM   24  C9  UNL     1      20.623  -0.536  54.155  1.00  0.00     0.090 C 
HETATM   25  C10 UNL     1      19.516  -0.412  53.169  1.00  0.00     0.082 C 
HETATM   26  F1  UNL     1      20.761   0.500  55.021  1.00  0.00    -0.211 F 
ENDBRANCH  22  23
ENDBRANCH  20  21
ENDBRANCH  19  20
ENDBRANCH   5  19
TORSDOF 7
ENDMDL
MODEL 4
REMARK VINA RESULT:      -7.6      1.443      2.313
REMARK  7 active torsions:
REMARK  status: ('A' for Active; 'I' for Inactive)
REMARK    1  A    between atoms: N2_5  and  C4_6 
REMARK    2  A    between atoms: C4_6  and  C5_7 
REMARK    3  A    between atoms: C5_7  and  C6_8 
REMARK    4  A    between atoms: C7_9  and  C8_10 
REMARK    5  A    between atoms: C11_14  and  C12_15 
REMARK    6  A    between atoms: C12_15  and  N3_16 
REMARK    7  A    between atoms: N3_16  and  C14_18 
ROOT
HETATM    1  C1  UNL     1      25.688   4.743  49.862  1.00  0.00     0.027 C 
HETATM    2  C2  UNL     1      24.570   4.056  50.010  1.00  0.00     0.003 A 
HETATM    3  C3  UNL     1      23.347   4.436  49.500  1.00  0.00     0.151 A 
HETATM    4  N1  UNL     1      22.515   3.458  49.887  1.00  0.00    -0.184 NA
HETATM    5  N2  UNL     1      23.102   2.526  50.577  1.00  0.00    -0.268 N 
HETATM    6  C11 UNL     1      24.392   2.867  50.674  1.00  0.00     0.079 A 
ENDROOT
BRANCH   6   7
HETATM    7  C12 UNL     1      25.277   2.137  51.312  1.00  0.00     0.124 C 
BRANCH   7   8
HETATM    8  N3  UNL     1      25.795   2.179  52.607  1.00  0.00    -0.342 N 
HETATM    9  C13 UNL     1      24.947   2.870  53.587  1.00  0.00     0.157 C 
BRANCH   8  10
HETATM   10  C14 UNL     1      27.020   1.642  53.086  1.00  0.00     0.159 A 
HETATM   11  N4  UNL     1      27.946   2.403  53.647  1.00  0.00    -0.220 NA
HETATM   12  C15 UNL     1      29.099   1.890  54.101  1.00  0.00     0.258 A 
HETATM   13  N5  UNL     1      29.383   0.589  54.013  1.00  0.00    -0.161 NA
HETATM   14  N6  UNL     1      28.488  -0.223  53.456  1.00  0.00    -0.240 N 
HETATM   15  C16 UNL     1      28.545  -1.547  53.256  1.00  0.00     0.119 A 
HETATM   16  C19 UNL     1      27.330   0.290  53.001  1.00  0.00     0.104 A 
HETATM   17  C17 UNL     1      27.385  -1.947  52.644  1.00  0.00     0.022 A 
HETATM   18  C18 UNL     1      26.650  -0.784  52.499  1.00  0.00     0.037 A 
ENDBRANCH   8  10
ENDBRANCH   7   8
ENDBRANCH   6   7
BRANCH   5  19
HETATM   19  C4  UNL     1      22.477   1.343  51.134  1.00  0.00     0.155 C 
BRANCH  19  20
HETATM   20  C5  UNL     1      21.669   1.752  52.374  1.00  0.00     0.049 C 
BRANCH  20  21
HETATM   21  C6  UNL     1      20.474   0.900  52.545  1.00  0.00    -0.025 C 
HETATM   22  C7  UNL     1      20.242   0.032  53.512  1.00  0.00    -0.001 C 
BRANCH  22  23
HETATM   23  C8  UNL     1      21.190  -0.202  54.585  1.00  0.00     0.037 C 
HETATM   24  C9  UNL     1      22.179  -1.083  54.417  1.00  0.00     0.090 C 
HETATM   25  C10 UNL     1      23.188  -1.374  55.471  1.00  0.00     0.082 C 
HETATM   26  F1  UNL     1      22.323  -1.771  53.256  1.00  0.00    -0.211 F 
ENDBRANCH  22  23
ENDBRANCH  20  21
ENDBRANCH  19  20
ENDBRANCH   5  19
TORSDOF 7
ENDMDL
MODEL 5
REMARK VINA RESULT:      -7.5      2.896      6.322
REMARK  7 active torsions:
REMARK  status: ('A' for Active; 'I' for Inactive)
REMARK    1  A    between atoms: N2_5  and  C4_6 
REMARK    2  A    between atoms: C4_6  and  C5_7 
REMARK    3  A    between atoms: C5_7  and  C6_8 
REMARK    4  A    between atoms: C7_9  and  C8_10 
REMARK    5  A    between atoms: C11_14  and  C12_15 
REMARK    6  A    between atoms: C12_15  and  N3_16 
REMARK    7  A    between atoms: N3_16  and  C14_18 
ROOT
HETATM    1  C1  UNL     1      25.193   6.517  48.781  1.00  0.00     0.027 C 
HETATM    2  C2  UNL     1      25.869   5.433  49.113  1.00  0.00     0.003 A 
HETATM    3  C3  UNL     1      27.154   5.156  48.699  1.00  0.00     0.151 A 
HETATM    4  N1  UNL     1      27.432   3.973  49.268  1.00  0.00    -0.184 NA
HETATM    5  N2  UNL     1      26.452   3.503  49.982  1.00  0.00    -0.268 N 
HETATM    6  C11 UNL     1      25.455   4.392  49.908  1.00  0.00     0.079 A 
ENDROOT
BRANCH   6   7
HETATM    7  C12 UNL     1      24.306   4.226  50.521  1.00  0.00     0.124 C 
BRANCH   7   8
HETATM    8  N3  UNL     1      23.138   3.536  50.192  1.00  0.00    -0.342 N 
HETATM    9  C13 UNL     1      23.071   3.069  48.801  1.00  0.00     0.157 C 
BRANCH   8  10
HETATM   10  C14 UNL     1      22.027   3.233  51.023  1.00  0.00     0.159 A 
HETATM   11  N4  UNL     1      20.929   3.971  51.020  1.00  0.00    -0.220 NA
HETATM   12  C15 UNL     1      19.881   3.677  51.805  1.00  0.00     0.258 A 
HETATM   13  N5  UNL     1      19.883   2.631  52.633  1.00  0.00    -0.161 NA
HETATM   14  N6  UNL     1      20.963   1.854  52.678  1.00  0.00    -0.240 N 
HETATM   15  C16 UNL     1      21.199   0.763  53.419  1.00  0.00     0.119 A 
HETATM   16  C19 UNL     1      22.014   2.147  51.890  1.00  0.00     0.104 A 
HETATM   17  C17 UNL     1      22.455   0.298  53.125  1.00  0.00     0.022 A 
HETATM   18  C18 UNL     1      22.937   1.178  52.172  1.00  0.00     0.037 A 
ENDBRANCH   8  10
ENDBRANCH   7   8
ENDBRANCH   6   7
BRANCH   5  19
HETATM   19  C4  UNL     1      26.444   2.254  50.716  1.00  0.00     0.155 C 
BRANCH  19  20
HETATM   20  C5  UNL     1      27.148   2.471  52.062  1.00  0.00     0.049 C 
BRANCH  20  21
HETATM   21  C6  UNL     1      26.363   1.906  53.179  1.00  0.00    -0.025 C 
HETATM   22  C7  UNL     1      26.522   0.728  53.755  1.00  0.00    -0.001 C 
BRANCH  22  23
HETATM   23  C8  UNL     1      27.547  -0.207  53.331  1.00  0.00     0.037 C 
HETATM   24  C9  UNL     1      28.678  -0.315  54.033  1.00  0.00     0.090 C 
HETATM   25  C10 UNL     1      29.772  -1.252  53.661  1.00  0.00     0.082 C 
HETATM   26  F1  UNL     1      28.894   0.434  55.143  1.00  0.00    -0.211 F 
ENDBRANCH  22  23
ENDBRANCH  20  21
ENDBRANCH  19  20
ENDBRANCH   5  19
TORSDOF 7
ENDMDL
MODEL 6
REMARK VINA RESULT:      -7.5      2.506      5.107
REMARK  7 active torsions:
REMARK  status: ('A' for Active; 'I' for Inactive)
REMARK    1  A    between atoms: N2_5  and  C4_6 
REMARK    2  A    between atoms: C4_6  and  C5_7 
REMARK    3  A    between atoms: C5_7  and  C6_8 
REMARK    4  A    between atoms: C7_9  and  C8_10 
REMARK    5  A    between atoms: C11_14  and  C12_15 
REMARK    6  A    between atoms: C12_15  and  N3_16 
REMARK    7  A    between atoms: N3_16  and  C14_18 
ROOT
HETATM    1  C1  UNL     1      23.608  -0.432  53.527  1.00  0.00     0.027 C 
HETATM    2  C2  UNL     1      23.041   0.655  53.037  1.00  0.00     0.003 A 
HETATM    3  C3  UNL     1      21.746   0.717  52.570  1.00  0.00     0.151 A 
HETATM    4  N1  UNL     1      21.602   1.991  52.177  1.00  0.00    -0.184 NA
HETATM    5  N2  UNL     1      22.672   2.708  52.354  1.00  0.00    -0.268 N 
HETATM    6  C11 UNL     1      23.595   1.903  52.893  1.00  0.00     0.079 A 
ENDROOT
BRANCH   6   7
HETATM    7  C12 UNL     1      24.804   2.312  53.203  1.00  0.00     0.124 C 
BRANCH   7   8
HETATM    8  N3  UNL     1      26.049   2.164  52.591  1.00  0.00    -0.342 N 
HETATM    9  C13 UNL     1      26.111   2.636  51.201  1.00  0.00     0.157 C 
BRANCH   8  10
HETATM   10  C14 UNL     1      27.244   1.625  53.138  1.00  0.00     0.159 A 
HETATM   11  N4  UNL     1      28.127   2.380  53.771  1.00  0.00    -0.220 NA
HETATM   12  C15 UNL     1      29.251   1.863  54.290  1.00  0.00     0.258 A 
HETATM   13  N5  UNL     1      29.547   0.565  54.197  1.00  0.00    -0.161 NA
HETATM   14  N6  UNL     1      28.694  -0.241  53.569  1.00  0.00    -0.240 N 
HETATM   15  C16 UNL     1      28.772  -1.561  53.349  1.00  0.00     0.119 A 
HETATM   16  C19 UNL     1      27.566   0.276  53.049  1.00  0.00     0.104 A 
HETATM   17  C17 UNL     1      27.656  -1.955  52.656  1.00  0.00     0.022 A 
HETATM   18  C18 UNL     1      26.925  -0.792  52.485  1.00  0.00     0.037 A 
ENDBRANCH   8  10
ENDBRANCH   7   8
ENDBRANCH   6   7
BRANCH   5  19
HETATM   19  C4  UNL     1      22.832   4.111  52.030  1.00  0.00     0.155 C 
BRANCH  19  20
HETATM   20  C5  UNL     1      22.755   4.276  50.507  1.00  0.00     0.049 C 
BRANCH  20  21
HETATM   21  C6  UNL     1      22.950   5.684  50.105  1.00  0.00    -0.025 C 
HETATM   22  C7  UNL     1      23.952   6.187  49.407  1.00  0.00    -0.001 C 
BRANCH  22  23
HETATM   23  C8  UNL     1      25.045   5.365  48.922  1.00  0.00     0.037 C 
HETATM   24  C9  UNL     1      26.307   5.763  49.107  1.00  0.00     0.090 C 
HETATM   25  C10 UNL     1      27.478   4.974  48.639  1.00  0.00     0.082 C 
HETATM   26  F1  UNL     1      26.595   6.926  49.742  1.00  0.00    -0.211 F 
ENDBRANCH  22  23
ENDBRANCH  20  21
ENDBRANCH  19  20
ENDBRANCH   5  19
TORSDOF 7
ENDMDL
MODEL 7
REMARK VINA RESULT:      -7.5      2.375      3.800
REMARK  7 active torsions:
REMARK  status: ('A' for Active; 'I' for Inactive)
REMARK    1  A    between atoms: N2_5  and  C4_6 
REMARK    2  A    between atoms: C4_6  and  C5_7 
REMARK    3  A    between atoms: C5_7  and  C6_8 
REMARK    4  A    between atoms: C7_9  and  C8_10 
REMARK    5  A    between atoms: C11_14  and  C12_15 
REMARK    6  A    between atoms: C12_15  and  N3_16 
REMARK    7  A    between atoms: N3_16  and  C14_18 
ROOT
HETATM    1  C1  UNL     1      26.288   3.089  50.310  1.00  0.00     0.027 C 
HETATM    2  C2  UNL     1      25.043   3.117  50.749  1.00  0.00     0.003 A 
HETATM    3  C3  UNL     1      24.163   4.156  50.536  1.00  0.00     0.151 A 
HETATM    4  N1  UNL     1      23.037   3.759  51.147  1.00  0.00    -0.184 NA
HETATM    5  N2  UNL     1      23.141   2.592  51.709  1.00  0.00    -0.268 N 
HETATM    6  C11 UNL     1      24.385   2.158  51.479  1.00  0.00     0.079 A 
ENDROOT
BRANCH   6   7
HETATM    7  C12 UNL     1      24.827   0.999  51.911  1.00  0.00     0.124 C 
BRANCH   7   8
HETATM    8  N3  UNL     1      25.553   0.614  53.039  1.00  0.00    -0.342 N 
HETATM    9  C13 UNL     1      24.801  -0.192  54.009  1.00  0.00     0.157 C 
BRANCH   8  10
HETATM   10  C14 UNL     1      26.907   0.901  53.358  1.00  0.00     0.159 A 
HETATM   11  N4  UNL     1      27.307   2.120  53.683  1.00  0.00    -0.220 NA
HETATM   12  C15 UNL     1      28.587   2.383  53.987  1.00  0.00     0.258 A 
HETATM   13  N5  UNL     1      29.530   1.438  53.979  1.00  0.00    -0.161 NA
HETATM   14  N6  UNL     1      29.184   0.194  53.660  1.00  0.00    -0.240 N 
HETATM   15  C16 UNL     1      29.941  -0.909  53.582  1.00  0.00     0.119 A 
HETATM   16  C19 UNL     1      27.900  -0.072  53.355  1.00  0.00     0.104 A 
HETATM   17  C17 UNL     1      29.143  -1.962  53.212  1.00  0.00     0.022 A 
HETATM   18  C18 UNL     1      27.881  -1.411  53.078  1.00  0.00     0.037 A 
ENDBRANCH   8  10
ENDBRANCH   7   8
ENDBRANCH   6   7
BRANCH   5  19
HETATM   19  C4  UNL     1      22.104   1.894  52.444  1.00  0.00     0.155 C 
BRANCH  19  20
HETATM   20  C5  UNL     1      20.905   1.674  51.512  1.00  0.00     0.049 C 
BRANCH  20  21
HETATM   21  C6  UNL     1      21.197   0.646  50.491  1.00  0.00    -0.025 C 
HETATM   22  C7  UNL     1      21.318   0.823  49.188  1.00  0.00    -0.001 C 
BRANCH  22  23
HETATM   23  C8  UNL     1      21.169   2.127  48.568  1.00  0.00     0.037 C 
HETATM   24  C9  UNL     1      22.052   2.531  47.651  1.00  0.00     0.090 C 
HETATM   25  C10 UNL     1      21.963   3.852  46.973  1.00  0.00     0.082 C 
HETATM   26  F1  UNL     1      23.094   1.745  47.280  1.00  0.00    -0.211 F 
ENDBRANCH  22  23
ENDBRANCH  20  21
ENDBRANCH  19  20
ENDBRANCH   5  19
TORSDOF 7
ENDMDL
MODEL 8
REMARK VINA RESULT:      -7.4      1.778      2.837
REMARK  7 active torsions:
REMARK  status: ('A' for Active; 'I' for Inactive)
REMARK    1  A    between atoms: N2_5  and  C4_6 
REMARK    2  A    between atoms: C4_6  and  C5_7 
REMARK    3  A    between atoms: C5_7  and  C6_8 
REMARK    4  A    between atoms: C7_9  and  C8_10 
REMARK    5  A    between atoms: C11_14  and  C12_15 
REMARK    6  A    between atoms: C12_15  and  N3_16 
REMARK    7  A    between atoms: N3_16  and  C14_18 
ROOT
HETATM    1  C1  UNL     1      24.165   5.868  50.762  1.00  0.00     0.027 C 
HETATM    2  C2  UNL     1      23.313   4.862  50.848  1.00  0.00     0.003 A 
HETATM    3  C3  UNL     1      22.055   4.854  50.287  1.00  0.00     0.151 A 
HETATM    4  N1  UNL     1      21.557   3.654  50.621  1.00  0.00    -0.184 NA
HETATM    5  N2  UNL     1      22.378   2.935  51.326  1.00  0.00    -0.268 N 
HETATM    6  C11 UNL     1      23.491   3.659  51.488  1.00  0.00     0.079 A 
ENDROOT
BRANCH   6   7
HETATM    7  C12 UNL     1      24.534   3.225  52.157  1.00  0.00     0.124 C 
BRANCH   7   8
HETATM    8  N3  UNL     1      25.620   2.419  51.814  1.00  0.00    -0.342 N 
HETATM    9  C13 UNL     1      26.329   2.827  50.595  1.00  0.00     0.157 C 
BRANCH   8  10
HETATM   10  C14 UNL     1      26.117   1.273  52.490  1.00  0.00     0.159 A 
HETATM   11  N4  UNL     1      25.492   0.107  52.444  1.00  0.00    -0.220 NA
HETATM   12  C15 UNL     1      25.969  -0.973  53.081  1.00  0.00     0.258 A 
HETATM   13  N5  UNL     1      27.094  -0.938  53.798  1.00  0.00    -0.161 NA
HETATM   14  N6  UNL     1      27.763   0.209  53.880  1.00  0.00    -0.240 N 
HETATM   15  C16 UNL     1      28.900   0.489  54.531  1.00  0.00     0.119 A 
HETATM   16  C19 UNL     1      27.286   1.293  53.240  1.00  0.00     0.104 A 
HETATM   17  C17 UNL     1      29.207   1.809  54.328  1.00  0.00     0.022 A 
HETATM   18  C18 UNL     1      28.187   2.283  53.522  1.00  0.00     0.037 A 
ENDBRANCH   8  10
ENDBRANCH   7   8
ENDBRANCH   6   7
BRANCH   5  19
HETATM   19  C4  UNL     1      22.134   1.601  51.837  1.00  0.00     0.155 C 
BRANCH  19  20
HETATM   20  C5  UNL     1      20.966   1.663  52.831  1.00  0.00     0.049 C 
BRANCH  20  21
HETATM   21  C6  UNL     1      20.107   0.464  52.730  1.00  0.00    -0.025 C 
HETATM   22  C7  UNL     1      20.123  -0.601  53.511  1.00  0.00    -0.001 C 
BRANCH  22  23
HETATM   23  C8  UNL     1      21.041  -0.727  54.627  1.00  0.00     0.037 C 
HETATM   24  C9  UNL     1      22.264  -1.225  54.428  1.00  0.00     0.090 C 
HETATM   25  C10 UNL     1      23.258  -1.384  55.523  1.00  0.00     0.082 C 
HETATM   26  F1  UNL     1      22.674  -1.619  53.196  1.00  0.00    -0.211 F 
ENDBRANCH  22  23
ENDBRANCH  20  21
ENDBRANCH  19  20
ENDBRANCH   5  19
TORSDOF 7
ENDMDL
MODEL 9
REMARK VINA RESULT:      -7.4      1.882      4.618
REMARK  7 active torsions:
REMARK  status: ('A' for Active; 'I' for Inactive)
REMARK    1  A    between atoms: N2_5  and  C4_6 
REMARK    2  A    between atoms: C4_6  and  C5_7 
REMARK    3  A    between atoms: C5_7  and  C6_8 
REMARK    4  A    between atoms: C7_9  and  C8_10 
REMARK    5  A    between atoms: C11_14  and  C12_15 
REMARK    6  A    between atoms: C12_15  and  N3_16 
REMARK    7  A    between atoms: N3_16  and  C14_18 
ROOT
HETATM    1  C1  UNL     1      23.352  -1.227  55.330  1.00  0.00     0.027 C 
HETATM    2  C2  UNL     1      22.465  -0.818  54.441  1.00  0.00     0.003 A 
HETATM    3  C3  UNL     1      21.228  -1.394  54.252  1.00  0.00     0.151 A 
HETATM    4  N1  UNL     1      20.678  -0.666  53.268  1.00  0.00    -0.184 NA
HETATM    5  N2  UNL     1      21.450   0.288  52.840  1.00  0.00    -0.268 N 
HETATM    6  C11 UNL     1      22.580   0.223  53.553  1.00  0.00     0.079 A 
ENDROOT
BRANCH   6   7
HETATM    7  C12 UNL     1      23.583   1.052  53.377  1.00  0.00     0.124 C 
BRANCH   7   8
HETATM    8  N3  UNL     1      24.749   0.991  52.611  1.00  0.00    -0.342 N 
HETATM    9  C13 UNL     1      24.745   1.845  51.417  1.00  0.00     0.157 C 
BRANCH   8  10
HETATM   10  C14 UNL     1      25.918   0.220  52.844  1.00  0.00     0.159 A 
HETATM   11  N4  UNL     1      25.931  -1.095  52.693  1.00  0.00    -0.220 NA
HETATM   12  C15 UNL     1      27.040  -1.817  52.910  1.00  0.00     0.258 A 
HETATM   13  N5  UNL     1      28.191  -1.259  53.291  1.00  0.00    -0.161 NA
HETATM   14  N6  UNL     1      28.235   0.060  53.458  1.00  0.00    -0.240 N 
HETATM   15  C16 UNL     1      29.260   0.839  53.832  1.00  0.00     0.119 A 
HETATM   16  C19 UNL     1      27.123   0.787  53.240  1.00  0.00     0.104 A 
HETATM   17  C17 UNL     1      28.829   2.140  53.869  1.00  0.00     0.022 A 
HETATM   18  C18 UNL     1      27.498   2.076  53.496  1.00  0.00     0.037 A 
ENDBRANCH   8  10
ENDBRANCH   7   8
ENDBRANCH   6   7
BRANCH   5  19
HETATM   19  C4  UNL     1      21.144   1.239  51.790  1.00  0.00     0.155 C 
BRANCH  19  20
HETATM   20  C5  UNL     1      21.517   0.616  50.439  1.00  0.00     0.049 C 
BRANCH  20  21
HETATM   21  C6  UNL     1      20.658   1.129  49.352  1.00  0.00    -0.025 C 
HETATM   22  C7  UNL     1      20.988   1.997  48.412  1.00  0.00    -0.001 C 
BRANCH  22  23
HETATM   23  C8  UNL     1      22.312   2.583  48.332  1.00  0.00     0.037 C 
HETATM   24  C9  UNL     1      22.550   3.768  48.900  1.00  0.00     0.090 C 
HETATM   25  C10 UNL     1      23.881   4.430  48.859  1.00  0.00     0.082 C 
HETATM   26  F1  UNL     1      21.574   4.443  49.557  1.00  0.00    -0.211 F 
ENDBRANCH  22  23
ENDBRANCH  20  21
ENDBRANCH  19  20
ENDBRANCH   5  19
TORSDOF 7
ENDMDL
