MODEL 1
REMARK VINA RESULT:      -7.9      0.000      0.000
REMARK  5 active torsions:
REMARK  status: ('A' for Active; 'I' for Inactive)
REMARK    1  A    between atoms: C4_5  and  C5_6 
REMARK    2  A    between atoms: C5_6  and  C6_7 
REMARK    3  A    between atoms: C5_6  and  N1_12 
REMARK    4  A    between atoms: C6_7  and  C7_8 
REMARK    5  A    between atoms: C7_8  and  C8_9 
ROOT
HETATM    1  C5  UNL     1      25.590   0.326  52.870  1.00  0.00     0.140 C 
ENDROOT
BRANCH   1   2
HETATM    2  C4  UNL     1      24.143   0.335  52.705  1.00  0.00    -0.034 A 
HETATM    3  C3  UNL     1      23.543   1.246  51.856  1.00  0.00     0.011 A 
HETATM    4  C2  UNL     1      22.169   1.170  51.750  1.00  0.00     0.019 A 
HETATM    5  C1  UNL     1      21.349   0.278  52.407  1.00  0.00     0.011 A 
HETATM    6 BR1  UNL     1      19.464   0.256  52.192  1.00  0.00    -0.051 Br
HETATM    7  C15 UNL     1      22.013  -0.601  53.238  1.00  0.00     0.019 A 
HETATM    8  C14 UNL     1      23.403  -0.599  53.407  1.00  0.00     0.011 A 
ENDBRANCH   1   2
BRANCH   1   9
HETATM    9  C6  UNL     1      26.186   0.949  51.565  1.00  0.00     0.036 C 
BRANCH   9  10
HETATM   10  C7  UNL     1      26.640   2.349  51.779  1.00  0.00     0.036 C 
BRANCH  10  11
HETATM   11  C8  UNL     1      26.392   3.097  50.494  1.00  0.00    -0.080 A 
HETATM   12  C9  UNL     1      26.769   3.806  49.390  1.00  0.00    -0.019 A 
HETATM   13  C10 UNL     1      25.319   3.534  49.565  1.00  0.00     0.061 A 
ENDBRANCH  10  11
ENDBRANCH   9  10
ENDBRANCH   1   9
BRANCH   1  14
HETATM   14  N1  UNL     1      26.359  -0.810  53.128  1.00  0.00    -0.252 N 
HETATM   15  N2  UNL     1      26.821  -2.157  53.262  1.00  0.00    -0.106 NA
HETATM   16  O1  UNL     1      28.140  -2.365  52.956  1.00  0.00    -0.236 OA
HETATM   17  H11 UNL     1      26.626  -2.464  54.264  1.00  0.00     0.180 HD
HETATM   18  C11 UNL     1      29.220  -1.621  53.399  1.00  0.00     0.377 A 
HETATM   19  C12 UNL     1      30.359  -0.733  53.900  1.00  0.00     0.375 A 
HETATM   20  N3  UNL     1      28.938  -0.324  53.766  1.00  0.00     0.099 N 
HETATM   21  S1  UNL     1      29.122   0.808  54.165  1.00  0.00     0.106 SA
HETATM   22  C13 UNL     1      27.612  -0.139  53.578  1.00  0.00     0.297 A 
ENDBRANCH   1  14
TORSDOF 5
ENDMDL
MODEL 2
REMARK VINA RESULT:      -7.8      2.377      4.030
REMARK  5 active torsions:
REMARK  status: ('A' for Active; 'I' for Inactive)
REMARK    1  A    between atoms: C4_5  and  C5_6 
REMARK    2  A    between atoms: C5_6  and  C6_7 
REMARK    3  A    between atoms: C5_6  and  N1_12 
REMARK    4  A    between atoms: C6_7  and  C7_8 
REMARK    5  A    between atoms: C7_8  and  C8_9 
ROOT
HETATM    1  C5  UNL     1      25.384   1.451  52.430  1.00  0.00     0.140 C 
ENDROOT
BRANCH   1   2
HETATM    2  C4  UNL     1      24.280   2.290  51.984  1.00  0.00    -0.034 A 
HETATM    3  C3  UNL     1      23.606   1.993  50.815  1.00  0.00     0.011 A 
HETATM    4  C2  UNL     1      22.562   2.832  50.480  1.00  0.00     0.019 A 
HETATM    5  C1  UNL     1      22.137   3.929  51.197  1.00  0.00     0.011 A 
HETATM    6 BR1  UNL     1      20.687   5.023  50.648  1.00  0.00    -0.051 Br
HETATM    7  C15 UNL     1      22.853   4.168  52.352  1.00  0.00     0.019 A 
HETATM    8  C14 UNL     1      23.925   3.370  52.772  1.00  0.00     0.011 A 
ENDBRANCH   1   2
BRANCH   1   9
HETATM    9  C6  UNL     1      24.871   0.680  53.690  1.00  0.00     0.036 C 
BRANCH   9  10
HETATM   10  C7  UNL     1      24.077  -0.521  53.319  1.00  0.00     0.036 C 
BRANCH  10  11
HETATM   11  C8  UNL     1      22.690  -0.327  53.876  1.00  0.00    -0.080 A 
HETATM   12  C9  UNL     1      21.658  -0.592  54.729  1.00  0.00    -0.019 A 
HETATM   13  C10 UNL     1      21.448   0.470  53.710  1.00  0.00     0.061 A 
ENDBRANCH  10  11
ENDBRANCH   9  10
ENDBRANCH   1   9
BRANCH   1  14
HETATM   14  N1  UNL     1      26.656   1.915  52.766  1.00  0.00    -0.252 N 
HETATM   15  N2  UNL     1      27.779   2.742  53.084  1.00  0.00    -0.106 NA
HETATM   16  O1  UNL     1      28.627   2.248  54.040  1.00  0.00    -0.236 OA
HETATM   17  H11 UNL     1      28.313   2.919  52.179  1.00  0.00     0.180 HD
HETATM   18  C11 UNL     1      29.157   0.970  54.096  1.00  0.00     0.377 A 
HETATM   19  C12 UNL     1      29.675  -0.469  54.111  1.00  0.00     0.375 A 
HETATM   20  N3  UNL     1      28.430  -0.005  53.449  1.00  0.00     0.099 N 
HETATM   21  S1  UNL     1      28.122  -1.103  53.035  1.00  0.00     0.106 SA
HETATM   22  C13 UNL     1      27.346   0.602  52.914  1.00  0.00     0.297 A 
ENDBRANCH   1  14
TORSDOF 5
ENDMDL
MODEL 3
REMARK VINA RESULT:      -7.6      3.021      5.065
REMARK  5 active torsions:
REMARK  status: ('A' for Active; 'I' for Inactive)
REMARK    1  A    between atoms: C4_5  and  C5_6 
REMARK    2  A    between atoms: C5_6  and  C6_7 
REMARK    3  A    between atoms: C5_6  and  N1_12 
REMARK    4  A    between atoms: C6_7  and  C7_8 
REMARK    5  A    between atoms: C7_8  and  C8_9 
ROOT
HETATM    1  C5  UNL     1      25.879   0.335  53.541  1.00  0.00     0.140 C 
ENDROOT
BRANCH   1   2
HETATM    2  C4  UNL     1      25.278   1.496  52.899  1.00  0.00    -0.034 A 
HETATM    3  C3  UNL     1      25.196   1.567  51.521  1.00  0.00     0.011 A 
HETATM    4  C2  UNL     1      24.595   2.695  51.001  1.00  0.00     0.019 A 
HETATM    5  C1  UNL     1      24.076   3.748  51.723  1.00  0.00     0.011 A 
HETATM    6 BR1  UNL     1      23.268   5.260  50.910  1.00  0.00    -0.051 Br
HETATM    7  C15 UNL     1      24.192   3.612  53.092  1.00  0.00     0.019 A 
HETATM    8  C14 UNL     1      24.784   2.503  53.708  1.00  0.00     0.011 A 
ENDBRANCH   1   2
BRANCH   1   9
HETATM    9  C6  UNL     1      26.428  -0.570  52.391  1.00  0.00     0.036 C 
BRANCH   9  10
HETATM   10  C7  UNL     1      27.387  -1.588  52.897  1.00  0.00     0.036 C 
BRANCH  10  11
HETATM   11  C8  UNL     1      28.638  -0.854  53.306  1.00  0.00    -0.080 A 
HETATM   12  C9  UNL     1      29.379   0.260  53.575  1.00  0.00    -0.019 A 
HETATM   13  C10 UNL     1      30.047  -1.059  53.728  1.00  0.00     0.061 A 
ENDBRANCH  10  11
ENDBRANCH   9  10
ENDBRANCH   1   9
BRANCH   1  14
HETATM   14  N1  UNL     1      25.217  -0.529  54.415  1.00  0.00    -0.252 N 
HETATM   15  N2  UNL     1      24.882  -1.392  55.505  1.00  0.00    -0.106 NA
HETATM   16  O1  UNL     1      23.594  -1.298  55.962  1.00  0.00    -0.236 OA
HETATM   17  H11 UNL     1      25.089  -2.391  55.197  1.00  0.00     0.180 HD
HETATM   18  C11 UNL     1      22.441  -1.305  55.196  1.00  0.00     0.377 A 
HETATM   19  C12 UNL     1      21.215  -1.285  54.283  1.00  0.00     0.375 A 
HETATM   20  N3  UNL     1      22.593  -0.896  53.890  1.00  0.00     0.099 N 
HETATM   21  S1  UNL     1      22.296  -0.621  52.745  1.00  0.00     0.106 SA
HETATM   22  C13 UNL     1      23.899  -0.588  53.721  1.00  0.00     0.297 A 
ENDBRANCH   1  14
TORSDOF 5
ENDMDL
MODEL 4
REMARK VINA RESULT:      -7.5      4.275      6.476
REMARK  5 active torsions:
REMARK  status: ('A' for Active; 'I' for Inactive)
REMARK    1  A    between atoms: C4_5  and  C5_6 
REMARK    2  A    between atoms: C5_6  and  C6_7 
REMARK    3  A    between atoms: C5_6  and  N1_12 
REMARK    4  A    between atoms: C6_7  and  C7_8 
REMARK    5  A    between atoms: C7_8  and  C8_9 
ROOT
HETATM    1  C5  UNL     1      23.777   2.065  52.813  1.00  0.00     0.140 C 
ENDROOT
BRANCH   1   2
HETATM    2  C4  UNL     1      25.124   1.544  53.000  1.00  0.00    -0.034 A 
HETATM    3  C3  UNL     1      26.012   2.192  53.838  1.00  0.00     0.011 A 
HETATM    4  C2  UNL     1      27.260   1.617  53.968  1.00  0.00     0.019 A 
HETATM    5  C1  UNL     1      27.697   0.468  53.344  1.00  0.00     0.011 A 
HETATM    6 BR1  UNL     1      29.439  -0.242  53.591  1.00  0.00    -0.051 Br
HETATM    7  C15 UNL     1      26.760  -0.126  52.524  1.00  0.00     0.019 A 
HETATM    8  C14 UNL     1      25.470   0.384  52.332  1.00  0.00     0.011 A 
ENDBRANCH   1   2
BRANCH   1   9
HETATM    9  C6  UNL     1      23.108   1.176  51.714  1.00  0.00     0.036 C 
BRANCH   9  10
HETATM   10  C7  UNL     1      21.736   0.755  52.103  1.00  0.00     0.036 C 
BRANCH  10  11
HETATM   11  C8  UNL     1      21.866  -0.094  53.342  1.00  0.00    -0.080 A 
HETATM   12  C9  UNL     1      22.363  -1.130  54.077  1.00  0.00    -0.019 A 
HETATM   13  C10 UNL     1      21.375  -0.237  54.736  1.00  0.00     0.061 A 
ENDBRANCH  10  11
ENDBRANCH   9  10
ENDBRANCH   1   9
BRANCH   1  14
HETATM   14  N1  UNL     1      23.469   3.382  52.469  1.00  0.00    -0.252 N 
HETATM   15  N2  UNL     1      22.947   4.714  52.454  1.00  0.00    -0.106 NA
HETATM   16  O1  UNL     1      23.797   5.678  51.980  1.00  0.00    -0.236 OA
HETATM   17  H11 UNL     1      22.052   4.700  51.876  1.00  0.00     0.180 HD
HETATM   18  C11 UNL     1      24.544   5.624  50.815  1.00  0.00     0.377 A 
HETATM   19  C12 UNL     1      25.365   5.478  49.534  1.00  0.00     0.375 A 
HETATM   20  N3  UNL     1      24.834   4.360  50.353  1.00  0.00     0.099 N 
HETATM   21  S1  UNL     1      25.289   3.489  49.640  1.00  0.00     0.106 SA
HETATM   22  C13 UNL     1      24.273   3.485  51.218  1.00  0.00     0.297 A 
ENDBRANCH   1  14
TORSDOF 5
ENDMDL
MODEL 5
REMARK VINA RESULT:      -7.2      4.393      6.959
REMARK  5 active torsions:
REMARK  status: ('A' for Active; 'I' for Inactive)
REMARK    1  A    between atoms: C4_5  and  C5_6 
REMARK    2  A    between atoms: C5_6  and  C6_7 
REMARK    3  A    between atoms: C5_6  and  N1_12 
REMARK    4  A    between atoms: C6_7  and  C7_8 
REMARK    5  A    between atoms: C7_8  and  C8_9 
ROOT
HETATM    1  C5  UNL     1      24.316   1.763  52.128  1.00  0.00     0.140 C 
ENDROOT
BRANCH   1   2
HETATM    2  C4  UNL     1      25.573   1.130  52.502  1.00  0.00    -0.034 A 
HETATM    3  C3  UNL     1      25.649  -0.243  52.639  1.00  0.00     0.011 A 
HETATM    4  C2  UNL     1      26.884  -0.757  52.978  1.00  0.00     0.019 A 
HETATM    5  C1  UNL     1      28.037  -0.032  53.191  1.00  0.00     0.011 A 
HETATM    6 BR1  UNL     1      29.691  -0.837  53.656  1.00  0.00    -0.051 Br
HETATM    7  C15 UNL     1      27.890   1.331  53.038  1.00  0.00     0.019 A 
HETATM    8  C14 UNL     1      26.677   1.941  52.694  1.00  0.00     0.011 A 
ENDBRANCH   1   2
BRANCH   1   9
HETATM    9  C6  UNL     1      23.226   0.643  52.176  1.00  0.00     0.036 C 
BRANCH   9  10
HETATM   10  C7  UNL     1      22.231   0.884  53.255  1.00  0.00     0.036 C 
BRANCH  10  11
HETATM   11  C8  UNL     1      22.193  -0.358  54.108  1.00  0.00    -0.080 A 
HETATM   12  C9  UNL     1      22.694  -1.240  55.021  1.00  0.00    -0.019 A 
HETATM   13  C10 UNL     1      21.353  -1.533  54.453  1.00  0.00     0.061 A 
ENDBRANCH  10  11
ENDBRANCH   9  10
ENDBRANCH   1   9
BRANCH   1  14
HETATM   14  N1  UNL     1      24.091   2.455  50.937  1.00  0.00    -0.252 N 
HETATM   15  N2  UNL     1      24.074   2.865  49.567  1.00  0.00    -0.106 NA
HETATM   16  O1  UNL     1      22.903   3.426  49.130  1.00  0.00    -0.236 OA
HETATM   17  H11 UNL     1      24.880   3.548  49.427  1.00  0.00     0.180 HD
HETATM   18  C11 UNL     1      22.176   4.421  49.761  1.00  0.00     0.377 A 
HETATM   19  C12 UNL     1      21.408   5.495  50.532  1.00  0.00     0.375 A 
HETATM   20  N3  UNL     1      22.359   4.519  51.122  1.00  0.00     0.099 N 
HETATM   21  S1  UNL     1      22.229   4.928  52.258  1.00  0.00     0.106 SA
HETATM   22  C13 UNL     1      23.247   3.561  51.472  1.00  0.00     0.297 A 
ENDBRANCH   1  14
TORSDOF 5
ENDMDL
MODEL 6
REMARK VINA RESULT:      -7.2      4.168      5.745
REMARK  5 active torsions:
REMARK  status: ('A' for Active; 'I' for Inactive)
REMARK    1  A    between atoms: C4_5  and  C5_6 
REMARK    2  A    between atoms: C5_6  and  C6_7 
REMARK    3  A    between atoms: C5_6  and  N1_12 
REMARK    4  A    between atoms: C6_7  and  C7_8 
REMARK    5  A    between atoms: C7_8  and  C8_9 
ROOT
HETATM    1  C5  UNL     1      23.452   1.972  51.642  1.00  0.00     0.140 C 
ENDROOT
BRANCH   1   2
HETATM    2  C4  UNL     1      24.742   1.728  52.274  1.00  0.00    -0.034 A 
HETATM    3  C3  UNL     1      25.135   2.474  53.368  1.00  0.00     0.011 A 
HETATM    4  C2  UNL     1      26.364   2.161  53.912  1.00  0.00     0.019 A 
HETATM    5  C1  UNL     1      27.227   1.183  53.467  1.00  0.00     0.011 A 
HETATM    6 BR1  UNL     1      28.901   0.831  54.287  1.00  0.00    -0.051 Br
HETATM    7  C15 UNL     1      26.772   0.477  52.372  1.00  0.00     0.019 A 
HETATM    8  C14 UNL     1      25.539   0.724  51.756  1.00  0.00     0.011 A 
ENDBRANCH   1   2
BRANCH   1   9
HETATM    9  C6  UNL     1      23.534   3.400  51.010  1.00  0.00     0.036 C 
BRANCH   9  10
HETATM   10  C7  UNL     1      23.935   3.349  49.579  1.00  0.00     0.036 C 
BRANCH  10  11
HETATM   11  C8  UNL     1      25.372   3.798  49.504  1.00  0.00    -0.080 A 
HETATM   12  C9  UNL     1      26.719   3.644  49.661  1.00  0.00    -0.019 A 
HETATM   13  C10 UNL     1      26.238   4.940  49.115  1.00  0.00     0.061 A 
ENDBRANCH  10  11
ENDBRANCH   9  10
ENDBRANCH   1   9
BRANCH   1  14
HETATM   14  N1  UNL     1      22.219   1.921  52.294  1.00  0.00    -0.252 N 
HETATM   15  N2  UNL     1      20.904   2.214  52.775  1.00  0.00    -0.106 NA
HETATM   16  O1  UNL     1      20.067   1.137  52.904  1.00  0.00    -0.236 OA
HETATM   17  H11 UNL     1      21.008   2.710  53.712  1.00  0.00     0.180 HD
HETATM   18  C11 UNL     1      20.359  -0.070  53.515  1.00  0.00     0.377 A 
HETATM   19  C12 UNL     1      20.765  -1.388  54.175  1.00  0.00     0.375 A 
HETATM   20  N3  UNL     1      21.694  -0.402  53.569  1.00  0.00     0.099 N 
HETATM   21  S1  UNL     1      22.695  -1.044  53.814  1.00  0.00     0.106 SA
HETATM   22  C13 UNL     1      22.375   0.604  52.974  1.00  0.00     0.297 A 
ENDBRANCH   1  14
TORSDOF 5
ENDMDL
MODEL 7
REMARK VINA RESULT:      -7.2      2.800      4.890
REMARK  5 active torsions:
REMARK  status: ('A' for Active; 'I' for Inactive)
REMARK    1  A    between atoms: C4_5  and  C5_6 
REMARK    2  A    between atoms: C5_6  and  C6_7 
REMARK    3  A    between atoms: C5_6  and  N1_12 
REMARK    4  A    between atoms: C6_7  and  C7_8 
REMARK    5  A    between atoms: C7_8  and  C8_9 
ROOT
HETATM    1  C5  UNL     1      23.537   1.481  51.721  1.00  0.00     0.140 C 
ENDROOT
BRANCH   1   2
HETATM    2  C4  UNL     1      23.114   2.032  50.441  1.00  0.00    -0.034 A 
HETATM    3  C3  UNL     1      23.701   3.182  49.948  1.00  0.00     0.011 A 
HETATM    4  C2  UNL     1      23.249   3.621  48.720  1.00  0.00     0.019 A 
HETATM    5  C1  UNL     1      22.276   3.023  47.948  1.00  0.00     0.011 A 
HETATM    6 BR1  UNL     1      21.725   3.709  46.268  1.00  0.00    -0.051 Br
HETATM    7  C15 UNL     1      21.733   1.881  48.500  1.00  0.00     0.019 A 
HETATM    8  C14 UNL     1      22.129   1.361  49.739  1.00  0.00     0.011 A 
ENDBRANCH   1   2
BRANCH   1   9
HETATM    9  C6  UNL     1      22.269   1.468  52.636  1.00  0.00     0.036 C 
BRANCH   9  10
HETATM   10  C7  UNL     1      21.535   0.177  52.547  1.00  0.00     0.036 C 
BRANCH  10  11
HETATM   11  C8  UNL     1      21.988  -0.672  53.707  1.00  0.00    -0.080 A 
HETATM   12  C9  UNL     1      21.836  -1.639  54.658  1.00  0.00    -0.019 A 
HETATM   13  C10 UNL     1      23.138  -0.924  54.613  1.00  0.00     0.061 A 
ENDBRANCH  10  11
ENDBRANCH   9  10
ENDBRANCH   1   9
BRANCH   1  14
HETATM   14  N1  UNL     1      24.565   1.995  52.513  1.00  0.00    -0.252 N 
HETATM   15  N2  UNL     1      25.369   2.827  53.354  1.00  0.00    -0.106 NA
HETATM   16  O1  UNL     1      26.095   2.173  54.314  1.00  0.00    -0.236 OA
HETATM   17  H11 UNL     1      26.019   3.387  52.723  1.00  0.00     0.180 HD
HETATM   18  C11 UNL     1      26.891   1.055  54.133  1.00  0.00     0.377 A 
HETATM   19  C12 UNL     1      27.722  -0.200  53.863  1.00  0.00     0.375 A 
HETATM   20  N3  UNL     1      26.565   0.262  53.055  1.00  0.00     0.099 N 
HETATM   21  S1  UNL     1      26.620  -0.660  52.267  1.00  0.00     0.106 SA
HETATM   22  C13 UNL     1      25.502   0.837  52.449  1.00  0.00     0.297 A 
ENDBRANCH   1  14
TORSDOF 5
ENDMDL
MODEL 8
REMARK VINA RESULT:      -7.0      1.955      2.399
REMARK  5 active torsions:
REMARK  status: ('A' for Active; 'I' for Inactive)
REMARK    1  A    between atoms: C4_5  and  C5_6 
REMARK    2  A    between atoms: C5_6  and  C6_7 
REMARK    3  A    between atoms: C5_6  and  N1_12 
REMARK    4  A    between atoms: C6_7  and  C7_8 
REMARK    5  A    between atoms: C7_8  and  C8_9 
ROOT
HETATM    1  C5  UNL     1      24.064   0.666  53.399  1.00  0.00     0.140 C 
ENDROOT
BRANCH   1   2
HETATM    2  C4  UNL     1      22.670   0.242  53.409  1.00  0.00    -0.034 A 
HETATM    3  C3  UNL     1      21.657   1.177  53.506  1.00  0.00     0.011 A 
HETATM    4  C2  UNL     1      20.367   0.685  53.490  1.00  0.00     0.019 A 
HETATM    5  C1  UNL     1      20.002  -0.640  53.387  1.00  0.00     0.011 A 
HETATM    6 BR1  UNL     1      18.194  -1.214  53.374  1.00  0.00    -0.051 Br
HETATM    7  C15 UNL     1      21.063  -1.518  53.294  1.00  0.00     0.019 A 
HETATM    8  C14 UNL     1      22.402  -1.110  53.300  1.00  0.00     0.011 A 
ENDBRANCH   1   2
BRANCH   1   9
HETATM    9  C6  UNL     1      24.430   0.944  51.905  1.00  0.00     0.036 C 
BRANCH   9  10
HETATM   10  C7  UNL     1      23.930   2.268  51.449  1.00  0.00     0.036 C 
BRANCH  10  11
HETATM   11  C8  UNL     1      23.017   2.017  50.275  1.00  0.00    -0.080 A 
HETATM   12  C9  UNL     1      22.602   2.171  48.984  1.00  0.00    -0.019 A 
HETATM   13  C10 UNL     1      21.800   1.276  49.858  1.00  0.00     0.061 A 
ENDBRANCH  10  11
ENDBRANCH   9  10
ENDBRANCH   1   9
BRANCH   1  14
HETATM   14  N1  UNL     1      25.129  -0.073  53.916  1.00  0.00    -0.252 N 
HETATM   15  N2  UNL     1      25.937  -1.103  54.492  1.00  0.00    -0.106 NA
HETATM   16  O1  UNL     1      27.204  -1.216  53.984  1.00  0.00    -0.236 OA
HETATM   17  H11 UNL     1      25.978  -0.928  55.542  1.00  0.00     0.180 HD
HETATM   18  C11 UNL     1      28.110  -0.188  53.782  1.00  0.00     0.377 A 
HETATM   19  C12 UNL     1      29.043   1.002  53.553  1.00  0.00     0.375 A 
HETATM   20  N3  UNL     1      27.561   1.064  53.618  1.00  0.00     0.099 N 
HETATM   21  S1  UNL     1      27.504   2.263  53.435  1.00  0.00     0.106 SA
HETATM   22  C13 UNL     1      26.219   0.922  53.707  1.00  0.00     0.297 A 
ENDBRANCH   1  14
TORSDOF 5
ENDMDL
MODEL 9
REMARK VINA RESULT:      -7.0      5.026      6.932
REMARK  5 active torsions:
REMARK  status: ('A' for Active; 'I' for Inactive)
REMARK    1  A    between atoms: C4_5  and  C5_6 
REMARK    2  A    between atoms: C5_6  and  C6_7 
REMARK    3  A    between atoms: C5_6  and  N1_12 
REMARK    4  A    between atoms: C6_7  and  C7_8 
REMARK    5  A    between atoms: C7_8  and  C8_9 
ROOT
HETATM    1  C5  UNL     1      22.770   2.575  51.493  1.00  0.00     0.140 C 
ENDROOT
BRANCH   1   2
HETATM    2  C4  UNL     1      23.894   2.047  52.254  1.00  0.00    -0.034 A 
HETATM    3  C3  UNL     1      24.632   2.878  53.076  1.00  0.00     0.011 A 
HETATM    4  C2  UNL     1      25.668   2.288  53.772  1.00  0.00     0.019 A 
HETATM    5  C1  UNL     1      26.030   0.959  53.721  1.00  0.00     0.011 A 
HETATM    6 BR1  UNL     1      27.475   0.244  54.721  1.00  0.00    -0.051 Br
HETATM    7  C15 UNL     1      25.251   0.188  52.883  1.00  0.00     0.019 A 
HETATM    8  C14 UNL     1      24.180   0.699  52.139  1.00  0.00     0.011 A 
ENDBRANCH   1   2
BRANCH   1   9
HETATM    9  C6  UNL     1      23.248   3.933  50.885  1.00  0.00     0.036 C 
BRANCH   9  10
HETATM   10  C7  UNL     1      23.704   3.779  49.477  1.00  0.00     0.036 C 
BRANCH  10  11
HETATM   11  C8  UNL     1      25.202   3.944  49.475  1.00  0.00    -0.080 A 
HETATM   12  C9  UNL     1      26.365   4.626  49.263  1.00  0.00    -0.019 A 
HETATM   13  C10 UNL     1      26.472   3.242  49.793  1.00  0.00     0.061 A 
ENDBRANCH  10  11
ENDBRANCH   9  10
ENDBRANCH   1   9
BRANCH   1  14
HETATM   14  N1  UNL     1      21.498   2.824  52.013  1.00  0.00    -0.252 N 
HETATM   15  N2  UNL     1      20.407   3.248  52.834  1.00  0.00    -0.106 NA
HETATM   16  O1  UNL     1      19.300   3.697  52.164  1.00  0.00    -0.236 OA
HETATM   17  H11 UNL     1      20.145   2.429  53.465  1.00  0.00     0.180 HD
HETATM   18  C11 UNL     1      18.666   3.075  51.102  1.00  0.00     0.377 A 
HETATM   19  C12 UNL     1      18.040   2.348  49.911  1.00  0.00     0.375 A 
HETATM   20  N3  UNL     1      19.449   2.221  50.359  1.00  0.00     0.099 N 
HETATM   21  S1  UNL     1      19.759   1.432  49.490  1.00  0.00     0.106 SA
HETATM   22  C13 UNL     1      20.684   2.235  50.912  1.00  0.00     0.297 A 
ENDBRANCH   1  14
TORSDOF 5
ENDMDL
