MODEL 1
REMARK VINA RESULT:      -7.7      0.000      0.000
REMARK  5 active torsions:
REMARK  status: ('A' for Active; 'I' for Inactive)
REMARK    1  A    between atoms: C2_2  and  N1_3 
REMARK    2  A    between atoms: C2_2  and  C3_4 
REMARK    3  A    between atoms: C4_5  and  C5_6 
REMARK    4  A    between atoms: C6_7  and  N2_8 
REMARK    5  A    between atoms: N2_8  and  C7_9 
ROOT
HETATM    1  C7  UNL     1      25.173   3.302  50.152  1.00  0.00     0.045 A 
HETATM    2  C8  UNL     1      23.962   2.769  50.169  1.00  0.00     0.121 A 
HETATM    3  N3  UNL     1      23.459   1.759  51.051  1.00  0.00    -0.316 N 
HETATM    4  C9  UNL     1      22.085   1.479  50.707  1.00  0.00     0.160 C 
HETATM    5  C10 UNL     1      21.411   0.644  51.720  1.00  0.00     0.009 C 
HETATM    6  C11 UNL     1      21.640  -0.063  52.809  1.00  0.00     0.017 A 
HETATM    7  C12 UNL     1      20.683  -0.811  53.613  1.00  0.00     0.046 A 
HETATM    8 CL1  UNL     1      18.968  -0.929  53.280  1.00  0.00    -0.083 Cl
HETATM    9  C13 UNL     1      21.402  -1.349  54.599  1.00  0.00     0.027 A 
HETATM   10  C14 UNL     1      22.822  -0.956  54.443  1.00  0.00     0.040 A 
HETATM   11  C15 UNL     1      22.981  -0.182  53.371  1.00  0.00     0.091 A 
HETATM   12  O1  UNL     1      24.200   0.346  52.966  1.00  0.00    -0.277 OA
HETATM   13  C16 UNL     1      24.439   1.321  52.001  1.00  0.00     0.249 A 
HETATM   14  N4  UNL     1      25.609   1.810  52.017  1.00  0.00    -0.244 NA
HETATM   15  C17 UNL     1      26.152   2.816  51.162  1.00  0.00     0.211 A 
ENDROOT
BRANCH   1  16
HETATM   16  N2  UNL     1      25.540   4.295  49.223  1.00  0.00    -0.367 N 
HETATM   17  H11 UNL     1      24.788   4.140  48.489  1.00  0.00     0.165 HD
BRANCH  16  18
HETATM   18  C6  UNL     1      26.466   5.325  48.965  1.00  0.00     0.088 C 
HETATM   19  C5  UNL     1      27.667   4.959  48.552  1.00  0.00     0.017 C 
BRANCH  19  20
HETATM   20  C4  UNL     1      28.655   5.981  48.273  1.00  0.00    -0.001 C 
HETATM   21  C3  UNL     1      29.918   5.837  48.653  1.00  0.00     0.008 C 
BRANCH  21  22
HETATM   22  C2  UNL     1      31.034   6.769  48.452  1.00  0.00     0.236 C 
HETATM   23  C1  UNL     1      32.312   6.077  47.977  1.00  0.00     0.046 C 
BRANCH  22  24
HETATM   24  N1  UNL     1      31.279   7.556  49.654  1.00  0.00     0.086 N 
HETATM   25  H5  UNL     1      30.640   8.394  49.620  1.00  0.00     0.313 HD
HETATM   26  H6  UNL     1      31.028   6.972  50.493  1.00  0.00     0.313 HD
ENDBRANCH  22  24
ENDBRANCH  21  22
ENDBRANCH  19  20
ENDBRANCH  16  18
ENDBRANCH   1  16
TORSDOF 5
ENDMDL
MODEL 2
REMARK VINA RESULT:      -7.6      4.763     11.063
REMARK  5 active torsions:
REMARK  status: ('A' for Active; 'I' for Inactive)
REMARK    1  A    between atoms: C2_2  and  N1_3 
REMARK    2  A    between atoms: C2_2  and  C3_4 
REMARK    3  A    between atoms: C4_5  and  C5_6 
REMARK    4  A    between atoms: C6_7  and  N2_8 
REMARK    5  A    between atoms: N2_8  and  C7_9 
ROOT
HETATM    1  C7  UNL     1      20.283  -0.717  53.703  1.00  0.00     0.045 A 
HETATM    2  C8  UNL     1      20.868   0.233  52.989  1.00  0.00     0.121 A 
HETATM    3  N3  UNL     1      22.267   0.523  52.894  1.00  0.00    -0.316 N 
HETATM    4  C9  UNL     1      22.453   1.644  52.002  1.00  0.00     0.160 C 
HETATM    5  C10 UNL     1      23.870   1.848  51.644  1.00  0.00     0.009 C 
HETATM    6  C11 UNL     1      25.089   1.440  51.937  1.00  0.00     0.017 A 
HETATM    7  C12 UNL     1      26.349   1.880  51.352  1.00  0.00     0.046 A 
HETATM    8 CL1  UNL     1      26.503   3.089  50.095  1.00  0.00    -0.083 Cl
HETATM    9  C13 UNL     1      27.289   1.175  51.981  1.00  0.00     0.027 A 
HETATM   10  C14 UNL     1      26.651   0.277  52.972  1.00  0.00     0.040 A 
HETATM   11  C15 UNL     1      25.327   0.425  52.957  1.00  0.00     0.091 A 
HETATM   12  O1  UNL     1      24.455  -0.283  53.774  1.00  0.00    -0.277 OA
HETATM   13  C16 UNL     1      23.068  -0.358  53.692  1.00  0.00     0.249 A 
HETATM   14  N4  UNL     1      22.543  -1.280  54.387  1.00  0.00    -0.244 NA
HETATM   15  C17 UNL     1      21.158  -1.608  54.511  1.00  0.00     0.211 A 
ENDROOT
BRANCH   1  16
HETATM   16  N2  UNL     1      18.886  -0.894  53.707  1.00  0.00    -0.367 N 
HETATM   17  H11 UNL     1      18.597  -0.030  54.252  1.00  0.00     0.165 HD
BRANCH  16  18
HETATM   18  C6  UNL     1      17.845  -1.738  53.272  1.00  0.00     0.088 C 
HETATM   19  C5  UNL     1      17.829  -2.966  53.760  1.00  0.00     0.017 C 
BRANCH  19  20
HETATM   20  C4  UNL     1      16.779  -3.873  53.344  1.00  0.00    -0.001 C 
HETATM   21  C3  UNL     1      16.317  -4.811  54.161  1.00  0.00     0.008 C 
BRANCH  21  22
HETATM   22  C2  UNL     1      15.267  -5.802  53.898  1.00  0.00     0.236 C 
HETATM   23  C1  UNL     1      14.518  -5.545  52.589  1.00  0.00     0.046 C 
BRANCH  22  24
HETATM   24  N1  UNL     1      14.343  -5.893  55.020  1.00  0.00     0.086 N 
HETATM   25  H5  UNL     1      14.458  -5.018  55.597  1.00  0.00     0.313 HD
HETATM   26  H6  UNL     1      13.361  -5.924  54.644  1.00  0.00     0.313 HD
ENDBRANCH  22  24
ENDBRANCH  21  22
ENDBRANCH  19  20
ENDBRANCH  16  18
ENDBRANCH   1  16
TORSDOF 5
ENDMDL
MODEL 3
REMARK VINA RESULT:      -7.4      4.873     10.999
REMARK  5 active torsions:
REMARK  status: ('A' for Active; 'I' for Inactive)
REMARK    1  A    between atoms: C2_2  and  N1_3 
REMARK    2  A    between atoms: C2_2  and  C3_4 
REMARK    3  A    between atoms: C4_5  and  C5_6 
REMARK    4  A    between atoms: C6_7  and  N2_8 
REMARK    5  A    between atoms: N2_8  and  C7_9 
ROOT
HETATM    1  C7  UNL     1      20.494  -0.447  53.360  1.00  0.00     0.045 A 
HETATM    2  C8  UNL     1      21.651  -0.767  53.918  1.00  0.00     0.121 A 
HETATM    3  N3  UNL     1      22.960  -0.331  53.533  1.00  0.00    -0.316 N 
HETATM    4  C9  UNL     1      23.932  -0.930  54.418  1.00  0.00     0.160 C 
HETATM    5  C10 UNL     1      25.275  -0.339  54.261  1.00  0.00     0.009 C 
HETATM    6  C11 UNL     1      25.968   0.487  53.504  1.00  0.00     0.017 A 
HETATM    7  C12 UNL     1      27.367   0.872  53.640  1.00  0.00     0.046 A 
HETATM    8 CL1  UNL     1      28.452   0.288  54.885  1.00  0.00    -0.083 Cl
HETATM    9  C13 UNL     1      27.593   1.722  52.638  1.00  0.00     0.027 A 
HETATM   10  C14 UNL     1      26.350   1.895  51.850  1.00  0.00     0.040 A 
HETATM   11  C15 UNL     1      25.364   1.159  52.358  1.00  0.00     0.091 A 
HETATM   12  O1  UNL     1      24.078   1.113  51.837  1.00  0.00    -0.277 OA
HETATM   13  C16 UNL     1      22.937   0.553  52.405  1.00  0.00     0.249 A 
HETATM   14  N4  UNL     1      21.847   0.884  51.847  1.00  0.00    -0.244 NA
HETATM   15  C17 UNL     1      20.523   0.478  52.196  1.00  0.00     0.211 A 
ENDROOT
BRANCH   1  16
HETATM   16  N2  UNL     1      19.269  -0.951  53.841  1.00  0.00    -0.367 N 
HETATM   17  H11 UNL     1      19.427  -0.838  54.885  1.00  0.00     0.165 HD
BRANCH  16  18
HETATM   18  C6  UNL     1      18.029  -1.493  53.448  1.00  0.00     0.088 C 
HETATM   19  C5  UNL     1      17.838  -2.779  53.684  1.00  0.00     0.017 C 
BRANCH  19  20
HETATM   20  C4  UNL     1      16.579  -3.384  53.299  1.00  0.00    -0.001 C 
HETATM   21  C3  UNL     1      16.336  -4.668  53.527  1.00  0.00     0.008 C 
BRANCH  21  22
HETATM   22  C2  UNL     1      15.124  -5.430  53.202  1.00  0.00     0.236 C 
HETATM   23  C1  UNL     1      14.670  -5.239  51.754  1.00  0.00     0.046 C 
BRANCH  22  24
HETATM   24  N1  UNL     1      14.048  -5.120  54.133  1.00  0.00     0.086 N 
HETATM   25  H5  UNL     1      13.751  -4.124  53.954  1.00  0.00     0.313 HD
HETATM   26  H6  UNL     1      13.236  -5.757  53.930  1.00  0.00     0.313 HD
ENDBRANCH  22  24
ENDBRANCH  21  22
ENDBRANCH  19  20
ENDBRANCH  16  18
ENDBRANCH   1  16
TORSDOF 5
ENDMDL
MODEL 4
REMARK VINA RESULT:      -7.4      1.796      2.500
REMARK  5 active torsions:
REMARK  status: ('A' for Active; 'I' for Inactive)
REMARK    1  A    between atoms: C2_2  and  N1_3 
REMARK    2  A    between atoms: C2_2  and  C3_4 
REMARK    3  A    between atoms: C4_5  and  C5_6 
REMARK    4  A    between atoms: C6_7  and  N2_8 
REMARK    5  A    between atoms: N2_8  and  C7_9 
ROOT
HETATM    1  C7  UNL     1      25.437   3.933  49.590  1.00  0.00     0.045 A 
HETATM    2  C8  UNL     1      25.657   3.319  50.742  1.00  0.00     0.121 A 
HETATM    3  N3  UNL     1      24.759   2.479  51.475  1.00  0.00    -0.316 N 
HETATM    4  C9  UNL     1      25.417   2.026  52.678  1.00  0.00     0.160 C 
HETATM    5  C10 UNL     1      24.666   0.956  53.361  1.00  0.00     0.009 C 
HETATM    6  C11 UNL     1      23.516   0.313  53.341  1.00  0.00     0.017 A 
HETATM    7  C12 UNL     1      23.071  -0.762  54.217  1.00  0.00     0.046 A 
HETATM    8 CL1  UNL     1      24.011  -1.441  55.530  1.00  0.00    -0.083 Cl
HETATM    9  C13 UNL     1      21.845  -1.072  53.794  1.00  0.00     0.027 A 
HETATM   10  C14 UNL     1      21.488  -0.206  52.646  1.00  0.00     0.040 A 
HETATM   11  C15 UNL     1      22.483   0.632  52.361  1.00  0.00     0.091 A 
HETATM   12  O1  UNL     1      22.444   1.566  51.334  1.00  0.00    -0.277 OA
HETATM   13  C16 UNL     1      23.490   2.330  50.824  1.00  0.00     0.249 A 
HETATM   14  N4  UNL     1      23.244   2.900  49.719  1.00  0.00    -0.244 NA
HETATM   15  C17 UNL     1      24.106   3.742  48.953  1.00  0.00     0.211 A 
ENDROOT
BRANCH   1  16
HETATM   16  N2  UNL     1      26.415   4.737  48.973  1.00  0.00    -0.367 N 
HETATM   17  H11 UNL     1      25.800   5.529  48.622  1.00  0.00     0.165 HD
BRANCH  16  18
HETATM   18  C6  UNL     1      27.793   4.842  48.696  1.00  0.00     0.088 C 
HETATM   19  C5  UNL     1      28.222   6.005  48.237  1.00  0.00     0.017 C 
BRANCH  19  20
HETATM   20  C4  UNL     1      29.631   6.163  47.938  1.00  0.00    -0.001 C 
HETATM   21  C3  UNL     1      30.435   5.112  47.844  1.00  0.00     0.008 C 
BRANCH  21  22
HETATM   22  C2  UNL     1      31.873   5.098  47.551  1.00  0.00     0.236 C 
HETATM   23  C1  UNL     1      32.280   3.963  46.611  1.00  0.00     0.046 C 
BRANCH  22  24
HETATM   24  N1  UNL     1      32.656   5.066  48.779  1.00  0.00     0.086 N 
HETATM   25  H5  UNL     1      32.356   4.214  49.324  1.00  0.00     0.313 HD
HETATM   26  H6  UNL     1      33.672   4.966  48.526  1.00  0.00     0.313 HD
ENDBRANCH  22  24
ENDBRANCH  21  22
ENDBRANCH  19  20
ENDBRANCH  16  18
ENDBRANCH   1  16
TORSDOF 5
ENDMDL
MODEL 5
REMARK VINA RESULT:      -7.3      2.236      2.399
REMARK  5 active torsions:
REMARK  status: ('A' for Active; 'I' for Inactive)
REMARK    1  A    between atoms: C2_2  and  N1_3 
REMARK    2  A    between atoms: C2_2  and  C3_4 
REMARK    3  A    between atoms: C4_5  and  C5_6 
REMARK    4  A    between atoms: C6_7  and  N2_8 
REMARK    5  A    between atoms: N2_8  and  C7_9 
ROOT
HETATM    1  C7  UNL     1      26.174   2.835  51.108  1.00  0.00     0.045 A 
HETATM    2  C8  UNL     1      24.909   2.511  50.890  1.00  0.00     0.121 A 
HETATM    3  N3  UNL     1      24.119   1.540  51.586  1.00  0.00    -0.316 N 
HETATM    4  C9  UNL     1      22.794   1.516  51.012  1.00  0.00     0.160 C 
HETATM    5  C10 UNL     1      21.842   0.737  51.827  1.00  0.00     0.009 C 
HETATM    6  C11 UNL     1      21.777  -0.071  52.867  1.00  0.00     0.017 A 
HETATM    7  C12 UNL     1      20.597  -0.703  53.441  1.00  0.00     0.046 A 
HETATM    8 CL1  UNL     1      18.963  -0.511  52.841  1.00  0.00    -0.083 Cl
HETATM    9  C13 UNL     1      21.052  -1.419  54.470  1.00  0.00     0.027 A 
HETATM   10  C14 UNL     1      22.521  -1.257  54.570  1.00  0.00     0.040 A 
HETATM   11  C15 UNL     1      22.973  -0.449  53.612  1.00  0.00     0.091 A 
HETATM   12  O1  UNL     1      24.308  -0.105  53.449  1.00  0.00    -0.277 OA
HETATM   13  C16 UNL     1      24.850   0.881  52.629  1.00  0.00     0.249 A 
HETATM   14  N4  UNL     1      26.061   1.167  52.868  1.00  0.00    -0.244 NA
HETATM   15  C17 UNL     1      26.886   2.126  52.205  1.00  0.00     0.211 A 
ENDROOT
BRANCH   1  16
HETATM   16  N2  UNL     1      26.836   3.815  50.344  1.00  0.00    -0.367 N 
HETATM   17  H11 UNL     1      27.772   3.830  50.844  1.00  0.00     0.165 HD
BRANCH  16  18
HETATM   18  C6  UNL     1      26.696   4.690  49.248  1.00  0.00     0.088 C 
HETATM   19  C5  UNL     1      25.811   5.664  49.371  1.00  0.00     0.017 C 
BRANCH  19  20
HETATM   20  C4  UNL     1      25.629   6.590  48.272  1.00  0.00    -0.001 C 
HETATM   21  C3  UNL     1      26.573   7.465  47.948  1.00  0.00     0.008 C 
BRANCH  21  22
HETATM   22  C2  UNL     1      26.548   8.464  46.873  1.00  0.00     0.236 C 
HETATM   23  C1  UNL     1      27.756   8.367  45.940  1.00  0.00     0.046 C 
BRANCH  22  24
HETATM   24  N1  UNL     1      26.411   9.809  47.414  1.00  0.00     0.086 N 
HETATM   25  H5  UNL     1      27.379  10.157  47.649  1.00  0.00     0.313 HD
HETATM   26  H6  UNL     1      25.999  10.429  46.670  1.00  0.00     0.313 HD
ENDBRANCH  22  24
ENDBRANCH  21  22
ENDBRANCH  19  20
ENDBRANCH  16  18
ENDBRANCH   1  16
TORSDOF 5
ENDMDL
MODEL 6
REMARK VINA RESULT:      -7.1      1.827      2.484
REMARK  5 active torsions:
REMARK  status: ('A' for Active; 'I' for Inactive)
REMARK    1  A    between atoms: C2_2  and  N1_3 
REMARK    2  A    between atoms: C2_2  and  C3_4 
REMARK    3  A    between atoms: C4_5  and  C5_6 
REMARK    4  A    between atoms: C6_7  and  N2_8 
REMARK    5  A    between atoms: N2_8  and  C7_9 
ROOT
HETATM    1  C7  UNL     1      25.249   3.519  49.653  1.00  0.00     0.045 A 
HETATM    2  C8  UNL     1      25.390   2.884  50.806  1.00  0.00     0.121 A 
HETATM    3  N3  UNL     1      24.390   2.169  51.542  1.00  0.00    -0.316 N 
HETATM    4  C9  UNL     1      24.986   1.638  52.746  1.00  0.00     0.160 C 
HETATM    5  C10 UNL     1      24.102   0.675  53.432  1.00  0.00     0.009 C 
HETATM    6  C11 UNL     1      22.879   0.186  53.413  1.00  0.00     0.017 A 
HETATM    7  C12 UNL     1      22.299  -0.820  54.292  1.00  0.00     0.046 A 
HETATM    8 CL1  UNL     1      23.145  -1.612  55.606  1.00  0.00    -0.083 Cl
HETATM    9  C13 UNL     1      21.043  -0.969  53.870  1.00  0.00     0.027 A 
HETATM   10  C14 UNL     1      20.800  -0.068  52.720  1.00  0.00     0.040 A 
HETATM   11  C15 UNL     1      21.895   0.634  52.433  1.00  0.00     0.091 A 
HETATM   12  O1  UNL     1      21.977   1.563  51.403  1.00  0.00    -0.277 OA
HETATM   13  C16 UNL     1      23.113   2.184  50.892  1.00  0.00     0.249 A 
HETATM   14  N4  UNL     1      22.942   2.778  49.785  1.00  0.00    -0.244 NA
HETATM   15  C17 UNL     1      23.905   3.500  49.017  1.00  0.00     0.211 A 
ENDROOT
BRANCH   1  16
HETATM   16  N2  UNL     1      26.323   4.188  49.034  1.00  0.00    -0.367 N 
HETATM   17  H11 UNL     1      26.663   3.420  48.385  1.00  0.00     0.165 HD
BRANCH  16  18
HETATM   18  C6  UNL     1      27.024   5.410  48.983  1.00  0.00     0.088 C 
HETATM   19  C5  UNL     1      28.164   5.416  48.314  1.00  0.00     0.017 C 
BRANCH  19  20
HETATM   20  C4  UNL     1      28.923   6.648  48.232  1.00  0.00    -0.001 C 
HETATM   21  C3  UNL     1      28.540   7.735  48.890  1.00  0.00     0.008 C 
BRANCH  21  22
HETATM   22  C2  UNL     1      29.189   9.051  48.914  1.00  0.00     0.236 C 
HETATM   23  C1  UNL     1      30.714   8.967  48.833  1.00  0.00     0.046 C 
BRANCH  22  24
HETATM   24  N1  UNL     1      28.768   9.819  50.078  1.00  0.00     0.086 N 
HETATM   25  H5  UNL     1      28.640   9.140  50.876  1.00  0.00     0.313 HD
HETATM   26  H6  UNL     1      29.534  10.495  50.328  1.00  0.00     0.313 HD
ENDBRANCH  22  24
ENDBRANCH  21  22
ENDBRANCH  19  20
ENDBRANCH  16  18
ENDBRANCH   1  16
TORSDOF 5
ENDMDL
MODEL 7
REMARK VINA RESULT:      -6.9      3.100      4.756
REMARK  5 active torsions:
REMARK  status: ('A' for Active; 'I' for Inactive)
REMARK    1  A    between atoms: C2_2  and  N1_3 
REMARK    2  A    between atoms: C2_2  and  C3_4 
REMARK    3  A    between atoms: C4_5  and  C5_6 
REMARK    4  A    between atoms: C6_7  and  N2_8 
REMARK    5  A    between atoms: N2_8  and  C7_9 
ROOT
HETATM    1  C7  UNL     1      27.710   6.300  48.471  1.00  0.00     0.045 A 
HETATM    2  C8  UNL     1      27.205   5.112  48.762  1.00  0.00     0.121 A 
HETATM    3  N3  UNL     1      26.061   4.818  49.572  1.00  0.00    -0.316 N 
HETATM    4  C9  UNL     1      25.875   3.387  49.620  1.00  0.00     0.160 C 
HETATM    5  C10 UNL     1      24.578   3.008  50.214  1.00  0.00     0.009 C 
HETATM    6  C11 UNL     1      23.535   3.508  50.845  1.00  0.00     0.017 A 
HETATM    7  C12 UNL     1      22.351   2.805  51.320  1.00  0.00     0.046 A 
HETATM    8 CL1  UNL     1      22.066   1.085  51.144  1.00  0.00    -0.083 Cl
HETATM    9  C13 UNL     1      21.593   3.744  51.888  1.00  0.00     0.027 A 
HETATM   10  C14 UNL     1      22.275   5.054  51.785  1.00  0.00     0.040 A 
HETATM   11  C15 UNL     1      23.445   4.929  51.160  1.00  0.00     0.091 A 
HETATM   12  O1  UNL     1      24.312   5.985  50.912  1.00  0.00    -0.277 OA
HETATM   13  C16 UNL     1      25.439   6.000  50.095  1.00  0.00     0.249 A 
HETATM   14  N4  UNL     1      25.893   7.155  49.835  1.00  0.00    -0.244 NA
HETATM   15  C17 UNL     1      27.025   7.495  49.034  1.00  0.00     0.211 A 
ENDROOT
BRANCH   1  16
HETATM   16  N2  UNL     1      28.849   6.448  47.656  1.00  0.00    -0.367 N 
HETATM   17  H11 UNL     1      28.381   6.555  46.710  1.00  0.00     0.165 HD
BRANCH  16  18
HETATM   18  C6  UNL     1      30.258   6.503  47.669  1.00  0.00     0.088 C 
HETATM   19  C5  UNL     1      30.895   5.400  48.021  1.00  0.00     0.017 C 
BRANCH  19  20
HETATM   20  C4  UNL     1      32.344   5.406  48.050  1.00  0.00    -0.001 C 
HETATM   21  C3  UNL     1      33.047   4.471  47.425  1.00  0.00     0.008 C 
BRANCH  21  22
HETATM   22  C2  UNL     1      34.506   4.332  47.356  1.00  0.00     0.236 C 
HETATM   23  C1  UNL     1      34.961   3.300  46.324  1.00  0.00     0.046 C 
BRANCH  22  24
HETATM   24  N1  UNL     1      35.064   4.040  48.670  1.00  0.00     0.086 N 
HETATM   25  H5  UNL     1      34.292   3.625  49.257  1.00  0.00     0.313 HD
HETATM   26  H6  UNL     1      35.827   3.323  48.558  1.00  0.00     0.313 HD
ENDBRANCH  22  24
ENDBRANCH  21  22
ENDBRANCH  19  20
ENDBRANCH  16  18
ENDBRANCH   1  16
TORSDOF 5
ENDMDL
MODEL 8
REMARK VINA RESULT:      -6.8      4.017      9.967
REMARK  5 active torsions:
REMARK  status: ('A' for Active; 'I' for Inactive)
REMARK    1  A    between atoms: C2_2  and  N1_3 
REMARK    2  A    between atoms: C2_2  and  C3_4 
REMARK    3  A    between atoms: C4_5  and  C5_6 
REMARK    4  A    between atoms: C6_7  and  N2_8 
REMARK    5  A    between atoms: N2_8  and  C7_9 
ROOT
HETATM    1  C7  UNL     1      23.025   2.795  51.493  1.00  0.00     0.045 A 
HETATM    2  C8  UNL     1      24.188   2.659  50.875  1.00  0.00     0.121 A 
HETATM    3  N3  UNL     1      24.912   3.651  50.138  1.00  0.00    -0.316 N 
HETATM    4  C9  UNL     1      26.131   3.064  49.634  1.00  0.00     0.160 C 
HETATM    5  C10 UNL     1      27.057   4.074  49.087  1.00  0.00     0.009 C 
HETATM    6  C11 UNL     1      27.140   5.351  48.773  1.00  0.00     0.017 A 
HETATM    7  C12 UNL     1      28.280   6.068  48.217  1.00  0.00     0.046 A 
HETATM    8 CL1  UNL     1      29.830   5.346  47.836  1.00  0.00    -0.083 Cl
HETATM    9  C13 UNL     1      27.866   7.327  48.079  1.00  0.00     0.027 A 
HETATM   10  C14 UNL     1      26.463   7.437  48.543  1.00  0.00     0.040 A 
HETATM   11  C15 UNL     1      26.012   6.256  48.963  1.00  0.00     0.091 A 
HETATM   12  O1  UNL     1      24.732   6.043  49.458  1.00  0.00    -0.277 OA
HETATM   13  C16 UNL     1      24.238   4.916  50.110  1.00  0.00     0.249 A 
HETATM   14  N4  UNL     1      23.124   5.084  50.692  1.00  0.00    -0.244 NA
HETATM   15  C17 UNL     1      22.368   4.129  51.437  1.00  0.00     0.211 A 
ENDROOT
BRANCH   1  16
HETATM   16  N2  UNL     1      22.418   1.729  52.185  1.00  0.00    -0.367 N 
HETATM   17  H11 UNL     1      23.119   1.606  52.973  1.00  0.00     0.165 HD
BRANCH  16  18
HETATM   18  C6  UNL     1      21.307   0.862  52.191  1.00  0.00     0.088 C 
HETATM   19  C5  UNL     1      20.141   1.383  51.851  1.00  0.00     0.017 C 
BRANCH  19  20
HETATM   20  C4  UNL     1      18.968   0.533  51.842  1.00  0.00    -0.001 C 
HETATM   21  C3  UNL     1      18.846  -0.477  52.694  1.00  0.00     0.008 C 
BRANCH  21  22
HETATM   22  C2  UNL     1      17.733  -1.426  52.816  1.00  0.00     0.236 C 
HETATM   23  C1  UNL     1      16.363  -0.760  52.683  1.00  0.00     0.046 C 
BRANCH  22  24
HETATM   24  N1  UNL     1      17.828  -2.185  54.055  1.00  0.00     0.086 N 
HETATM   25  H5  UNL     1      17.435  -1.583  54.827  1.00  0.00     0.313 HD
HETATM   26  H6  UNL     1      17.235  -3.049  53.965  1.00  0.00     0.313 HD
ENDBRANCH  22  24
ENDBRANCH  21  22
ENDBRANCH  19  20
ENDBRANCH  16  18
ENDBRANCH   1  16
TORSDOF 5
ENDMDL
MODEL 9
REMARK VINA RESULT:      -6.7      2.737      3.431
REMARK  5 active torsions:
REMARK  status: ('A' for Active; 'I' for Inactive)
REMARK    1  A    between atoms: C2_2  and  N1_3 
REMARK    2  A    between atoms: C2_2  and  C3_4 
REMARK    3  A    between atoms: C4_5  and  C5_6 
REMARK    4  A    between atoms: C6_7  and  N2_8 
REMARK    5  A    between atoms: N2_8  and  C7_9 
ROOT
HETATM    1  C7  UNL     1      25.702   5.287  49.333  1.00  0.00     0.045 A 
HETATM    2  C8  UNL     1      24.738   4.621  49.948  1.00  0.00     0.121 A 
HETATM    3  N3  UNL     1      24.829   3.351  50.605  1.00  0.00    -0.316 N 
HETATM    4  C9  UNL     1      23.532   3.003  51.136  1.00  0.00     0.160 C 
HETATM    5  C10 UNL     1      23.589   1.843  52.045  1.00  0.00     0.009 C 
HETATM    6  C11 UNL     1      24.399   0.899  52.481  1.00  0.00     0.017 A 
HETATM    7  C12 UNL     1      24.113  -0.157  53.443  1.00  0.00     0.046 A 
HETATM    8 CL1  UNL     1      22.573  -0.396  54.242  1.00  0.00    -0.083 Cl
HETATM    9  C13 UNL     1      25.248  -0.849  53.547  1.00  0.00     0.027 A 
HETATM   10  C14 UNL     1      26.273  -0.251  52.661  1.00  0.00     0.040 A 
HETATM   11  C15 UNL     1      25.777   0.802  52.013  1.00  0.00     0.091 A 
HETATM   12  O1  UNL     1      26.500   1.571  51.110  1.00  0.00    -0.277 OA
HETATM   13  C16 UNL     1      26.151   2.797  50.549  1.00  0.00     0.249 A 
HETATM   14  N4  UNL     1      27.099   3.408  49.971  1.00  0.00    -0.244 NA
HETATM   15  C17 UNL     1      27.056   4.671  49.307  1.00  0.00     0.211 A 
ENDROOT
BRANCH   1  16
HETATM   16  N2  UNL     1      25.474   6.536  48.723  1.00  0.00    -0.367 N 
HETATM   17  H11 UNL     1      24.466   6.405  48.418  1.00  0.00     0.165 HD
BRANCH  16  18
HETATM   18  C6  UNL     1      26.067   7.777  48.416  1.00  0.00     0.088 C 
HETATM   19  C5  UNL     1      26.624   8.436  49.417  1.00  0.00     0.017 C 
BRANCH  19  20
HETATM   20  C4  UNL     1      27.247   9.718  49.153  1.00  0.00    -0.001 C 
HETATM   21  C3  UNL     1      28.540   9.807  48.869  1.00  0.00     0.008 C 
BRANCH  21  22
HETATM   22  C2  UNL     1      29.319  11.017  48.579  1.00  0.00     0.236 C 
HETATM   23  C1  UNL     1      30.810  10.852  48.879  1.00  0.00     0.046 C 
BRANCH  22  24
HETATM   24  N1  UNL     1      28.769  12.171  49.277  1.00  0.00     0.086 N 
HETATM   25  H5  UNL     1      28.963  12.042  50.306  1.00  0.00     0.313 HD
HETATM   26  H6  UNL     1      29.270  13.034  48.943  1.00  0.00     0.313 HD
ENDBRANCH  22  24
ENDBRANCH  21  22
ENDBRANCH  19  20
ENDBRANCH  16  18
ENDBRANCH   1  16
TORSDOF 5
ENDMDL
