MODEL 1
REMARK VINA RESULT:      -7.7      0.000      0.000
REMARK  7 active torsions:
REMARK  status: ('A' for Active; 'I' for Inactive)
REMARK    1  A    between atoms: C2_2  and  N1_3 
REMARK    2  A    between atoms: N1_3  and  C3_4 
REMARK    3  A    between atoms: N1_3  and  C5_6 
REMARK    4  A    between atoms: C5_6  and  C6_7 
REMARK    5  A    between atoms: C6_7  and  N2_8 
REMARK       I    between atoms: N2_8  and  C7_9 
REMARK    6  A    between atoms: C7_9  and  C8_11 
REMARK    7  A    between atoms: C14_18  and  O2_19 
ROOT
HETATM    1  C8  UNL     1      23.235   1.933  52.296  1.00  0.00     0.088 C 
HETATM    2  C9  UNL     1      22.867   0.701  52.573  1.00  0.00     0.019 C 
HETATM    3  C10 UNL     1      21.452   0.454  52.205  1.00  0.00     0.069 C 
HETATM    4  N3  UNL     1      23.510  -0.430  53.138  1.00  0.00    -0.392 N 
HETATM    5  C11 UNL     1      24.834  -0.467  53.664  1.00  0.00     0.135 C 
HETATM    6  C12 UNL     1      25.813   0.158  52.697  1.00  0.00     0.091 A 
HETATM    7  C13 UNL     1      25.741   1.636  52.781  1.00  0.00     0.054 A 
HETATM    8  C14 UNL     1      24.634   2.338  52.604  1.00  0.00     0.106 C 
HETATM    9  N4  UNL     1      27.001   2.191  53.078  1.00  0.00    -0.356 N 
HETATM   10  C15 UNL     1      27.844   1.057  53.214  1.00  0.00     0.039 A 
HETATM   11  C16 UNL     1      29.206   1.053  53.526  1.00  0.00     0.030 A 
HETATM   12  C17 UNL     1      29.931  -0.088  53.651  1.00  0.00     0.002 A 
HETATM   13  C18 UNL     1      29.261  -1.299  53.452  1.00  0.00     0.001 A 
HETATM   14  C19 UNL     1      27.902  -1.334  53.139  1.00  0.00     0.010 A 
HETATM   15  C20 UNL     1      27.202  -0.145  53.021  1.00  0.00    -0.020 A 
HETATM   16  H19 UNL     1      22.941  -1.301  53.159  1.00  0.00     0.159 HD
HETATM   17  H24 UNL     1      27.259   3.183  53.177  1.00  0.00     0.166 HD
ENDROOT
BRANCH   1  18
HETATM   18  C7  UNL     1      22.497   3.004  51.719  1.00  0.00     0.256 C 
HETATM   19  N2  UNL     1      22.082   3.575  50.522  1.00  0.00    -0.355 N 
HETATM   20  H15 UNL     1      22.445   3.026  49.724  1.00  0.00     0.162 HD
HETATM   21  O1  UNL     1      21.952   3.836  52.481  1.00  0.00    -0.267 OA
BRANCH  19  22
HETATM   22  C6  UNL     1      21.289   4.723  50.197  1.00  0.00     0.142 C 
BRANCH  22  23
HETATM   23  C5  UNL     1      22.107   5.838  49.683  1.00  0.00     0.136 C 
BRANCH  23  24
HETATM   24  N1  UNL     1      23.501   5.832  50.039  1.00  0.00    -0.412 N 
BRANCH  24  25
HETATM   25  C2  UNL     1      23.839   6.774  51.066  1.00  0.00     0.112 C 
HETATM   26  C1  UNL     1      23.932   8.137  50.400  1.00  0.00     0.026 C 
ENDBRANCH  24  25
BRANCH  24  27
HETATM   27  C3  UNL     1      24.406   5.741  48.951  1.00  0.00     0.112 C 
HETATM   28  C4  UNL     1      25.547   4.818  49.293  1.00  0.00     0.026 C 
ENDBRANCH  24  27
ENDBRANCH  23  24
ENDBRANCH  22  23
ENDBRANCH  19  22
ENDBRANCH   1  18
BRANCH   8  29
HETATM   29  O2  UNL     1      24.859   3.706  52.740  1.00  0.00    -0.358 OA
HETATM   30  H23 UNL     1      25.058   4.144  53.608  1.00  0.00     0.217 HD
ENDBRANCH   8  29
TORSDOF 7
ENDMDL
MODEL 2
REMARK VINA RESULT:      -7.6      2.066      6.977
REMARK  7 active torsions:
REMARK  status: ('A' for Active; 'I' for Inactive)
REMARK    1  A    between atoms: C2_2  and  N1_3 
REMARK    2  A    between atoms: N1_3  and  C3_4 
REMARK    3  A    between atoms: N1_3  and  C5_6 
REMARK    4  A    between atoms: C5_6  and  C6_7 
REMARK    5  A    between atoms: C6_7  and  N2_8 
REMARK       I    between atoms: N2_8  and  C7_9 
REMARK    6  A    between atoms: C7_9  and  C8_11 
REMARK    7  A    between atoms: C14_18  and  O2_19 
ROOT
HETATM    1  C8  UNL     1      24.639   2.133  51.315  1.00  0.00     0.088 C 
HETATM    2  C9  UNL     1      23.441   2.407  50.848  1.00  0.00     0.019 C 
HETATM    3  C10 UNL     1      22.386   1.641  51.555  1.00  0.00     0.069 C 
HETATM    4  N3  UNL     1      22.935   3.259  49.832  1.00  0.00    -0.392 N 
HETATM    5  C11 UNL     1      23.712   4.046  48.934  1.00  0.00     0.135 C 
HETATM    6  C12 UNL     1      24.767   4.830  49.682  1.00  0.00     0.091 A 
HETATM    7  C13 UNL     1      25.912   3.952  50.021  1.00  0.00     0.054 A 
HETATM    8  C14 UNL     1      25.808   2.828  50.710  1.00  0.00     0.106 C 
HETATM    9  N4  UNL     1      27.118   4.467  49.508  1.00  0.00    -0.356 N 
HETATM   10  C15 UNL     1      26.716   5.643  48.822  1.00  0.00     0.039 A 
HETATM   11  C16 UNL     1      27.535   6.528  48.116  1.00  0.00     0.030 A 
HETATM   12  C17 UNL     1      27.058   7.625  47.474  1.00  0.00     0.002 A 
HETATM   13  C18 UNL     1      25.680   7.857  47.541  1.00  0.00     0.001 A 
HETATM   14  C19 UNL     1      24.831   6.996  48.236  1.00  0.00     0.010 A 
HETATM   15  C20 UNL     1      25.363   5.889  48.876  1.00  0.00    -0.020 A 
HETATM   16  H19 UNL     1      21.898   3.295  49.757  1.00  0.00     0.159 HD
HETATM   17  H24 UNL     1      28.071   4.088  49.603  1.00  0.00     0.166 HD
ENDROOT
BRANCH   1  18
HETATM   18  C7  UNL     1      25.039   1.248  52.355  1.00  0.00     0.256 C 
HETATM   19  N2  UNL     1      25.393   1.166  53.696  1.00  0.00    -0.355 N 
HETATM   20  H15 UNL     1      25.369   2.107  54.126  1.00  0.00     0.162 HD
HETATM   21  O1  UNL     1      25.157   0.028  52.092  1.00  0.00    -0.267 OA
BRANCH  19  22
HETATM   22  C6  UNL     1      25.769   0.083  54.555  1.00  0.00     0.142 C 
BRANCH  22  23
HETATM   23  C5  UNL     1      27.201   0.125  54.910  1.00  0.00     0.136 C 
BRANCH  23  24
HETATM   24  N1  UNL     1      28.133   0.213  53.819  1.00  0.00    -0.412 N 
BRANCH  24  25
HETATM   25  C2  UNL     1      28.435  -1.050  53.211  1.00  0.00     0.112 C 
HETATM   26  C1  UNL     1      29.865  -1.393  53.597  1.00  0.00     0.026 C 
ENDBRANCH  24  25
BRANCH  24  27
HETATM   27  C3  UNL     1      29.232   1.086  54.027  1.00  0.00     0.112 C 
HETATM   28  C4  UNL     1      28.830   2.512  53.747  1.00  0.00     0.026 C 
ENDBRANCH  24  27
ENDBRANCH  23  24
ENDBRANCH  22  23
ENDBRANCH  19  22
ENDBRANCH   1  18
BRANCH   8  29
HETATM   29  O2  UNL     1      27.044   2.208  50.880  1.00  0.00    -0.358 OA
HETATM   30  H23 UNL     1      27.607   2.323  51.689  1.00  0.00     0.217 HD
ENDBRANCH   8  29
TORSDOF 7
ENDMDL
MODEL 3
REMARK VINA RESULT:      -7.6      2.942      7.928
REMARK  7 active torsions:
REMARK  status: ('A' for Active; 'I' for Inactive)
REMARK    1  A    between atoms: C2_2  and  N1_3 
REMARK    2  A    between atoms: N1_3  and  C3_4 
REMARK    3  A    between atoms: N1_3  and  C5_6 
REMARK    4  A    between atoms: C5_6  and  C6_7 
REMARK    5  A    between atoms: C6_7  and  N2_8 
REMARK       I    between atoms: N2_8  and  C7_9 
REMARK    6  A    between atoms: C7_9  and  C8_11 
REMARK    7  A    between atoms: C14_18  and  O2_19 
ROOT
HETATM    1  C8  UNL     1      22.936   0.699  52.805  1.00  0.00     0.088 C 
HETATM    2  C9  UNL     1      22.705   1.543  51.824  1.00  0.00     0.019 C 
HETATM    3  C10 UNL     1      23.961   2.129  51.294  1.00  0.00     0.069 C 
HETATM    4  N3  UNL     1      21.540   2.015  51.166  1.00  0.00    -0.392 N 
HETATM    5  C11 UNL     1      20.195   1.699  51.511  1.00  0.00     0.135 C 
HETATM    6  C12 UNL     1      20.024   0.208  51.694  1.00  0.00     0.091 A 
HETATM    7  C13 UNL     1      20.542  -0.207  53.019  1.00  0.00     0.054 A 
HETATM    8  C14 UNL     1      21.774   0.021  53.442  1.00  0.00     0.106 C 
HETATM    9  N4  UNL     1      19.549  -0.869  53.769  1.00  0.00    -0.356 N 
HETATM   10  C15 UNL     1      18.409  -0.832  52.924  1.00  0.00     0.039 A 
HETATM   11  C16 UNL     1      17.139  -1.342  53.201  1.00  0.00     0.030 A 
HETATM   12  C17 UNL     1      16.099  -1.246  52.333  1.00  0.00     0.002 A 
HETATM   13  C18 UNL     1      16.338  -0.604  51.114  1.00  0.00     0.001 A 
HETATM   14  C19 UNL     1      17.594  -0.082  50.802  1.00  0.00     0.010 A 
HETATM   15  C20 UNL     1      18.625  -0.203  51.718  1.00  0.00    -0.020 A 
HETATM   16  H19 UNL     1      21.711   2.649  50.358  1.00  0.00     0.159 HD
HETATM   17  H24 UNL     1      19.624  -1.284  54.708  1.00  0.00     0.166 HD
ENDROOT
BRANCH   1  18
HETATM   18  C7  UNL     1      24.165   0.292  53.396  1.00  0.00     0.256 C 
HETATM   19  N2  UNL     1      25.329   0.742  54.007  1.00  0.00    -0.355 N 
HETATM   20  H15 UNL     1      25.326   1.775  54.056  1.00  0.00     0.162 HD
HETATM   21  O1  UNL     1      24.427  -0.932  53.454  1.00  0.00    -0.267 OA
BRANCH  19  22
HETATM   22  C6  UNL     1      26.478   0.082  54.551  1.00  0.00     0.142 C 
BRANCH  22  23
HETATM   23  C5  UNL     1      27.636   0.134  53.637  1.00  0.00     0.136 C 
BRANCH  23  24
HETATM   24  N1  UNL     1      28.935   0.226  54.246  1.00  0.00    -0.412 N 
BRANCH  24  25
HETATM   25  C2  UNL     1      29.293   1.556  54.648  1.00  0.00     0.112 C 
HETATM   26  C1  UNL     1      28.764   2.495  53.575  1.00  0.00     0.026 C 
ENDBRANCH  24  25
BRANCH  24  27
HETATM   27  C3  UNL     1      29.955  -0.535  53.622  1.00  0.00     0.112 C 
HETATM   28  C4  UNL     1      29.460  -1.925  53.315  1.00  0.00     0.026 C 
ENDBRANCH  24  27
ENDBRANCH  23  24
ENDBRANCH  22  23
ENDBRANCH  19  22
ENDBRANCH   1  18
BRANCH   8  29
HETATM   29  O2  UNL     1      21.984  -0.479  54.724  1.00  0.00    -0.358 OA
HETATM   30  H23 UNL     1      21.251  -0.664  55.366  1.00  0.00     0.217 HD
ENDBRANCH   8  29
TORSDOF 7
ENDMDL
MODEL 4
REMARK VINA RESULT:      -7.5      1.967      3.259
REMARK  7 active torsions:
REMARK  status: ('A' for Active; 'I' for Inactive)
REMARK    1  A    between atoms: C2_2  and  N1_3 
REMARK    2  A    between atoms: N1_3  and  C3_4 
REMARK    3  A    between atoms: N1_3  and  C5_6 
REMARK    4  A    between atoms: C5_6  and  C6_7 
REMARK    5  A    between atoms: C6_7  and  N2_8 
REMARK       I    between atoms: N2_8  and  C7_9 
REMARK    6  A    between atoms: C7_9  and  C8_11 
REMARK    7  A    between atoms: C14_18  and  O2_19 
ROOT
HETATM    1  C8  UNL     1      23.241   1.818  52.347  1.00  0.00     0.088 C 
HETATM    2  C9  UNL     1      22.908   0.573  52.604  1.00  0.00     0.019 C 
HETATM    3  C10 UNL     1      21.499   0.293  52.233  1.00  0.00     0.069 C 
HETATM    4  N3  UNL     1      23.582  -0.549  53.150  1.00  0.00    -0.392 N 
HETATM    5  C11 UNL     1      24.907  -0.559  53.673  1.00  0.00     0.135 C 
HETATM    6  C12 UNL     1      25.867   0.109  52.715  1.00  0.00     0.091 A 
HETATM    7  C13 UNL     1      25.755   1.583  52.823  1.00  0.00     0.054 A 
HETATM    8  C14 UNL     1      24.628   2.257  52.659  1.00  0.00     0.106 C 
HETATM    9  N4  UNL     1      27.000   2.168  53.129  1.00  0.00    -0.356 N 
HETATM   10  C15 UNL     1      27.874   1.055  53.245  1.00  0.00     0.039 A 
HETATM   11  C16 UNL     1      29.236   1.083  53.555  1.00  0.00     0.030 A 
HETATM   12  C17 UNL     1      29.992  -0.039  53.660  1.00  0.00     0.002 A 
HETATM   13  C18 UNL     1      29.355  -1.264  53.442  1.00  0.00     0.001 A 
HETATM   14  C19 UNL     1      27.997  -1.332  53.130  1.00  0.00     0.010 A 
HETATM   15  C20 UNL     1      27.265  -0.161  53.033  1.00  0.00    -0.020 A 
HETATM   16  H19 UNL     1      23.038  -1.436  53.156  1.00  0.00     0.159 HD
HETATM   17  H24 UNL     1      27.230   3.165  53.243  1.00  0.00     0.166 HD
ENDROOT
BRANCH   1  18
HETATM   18  C7  UNL     1      22.473   2.879  51.788  1.00  0.00     0.256 C 
HETATM   19  N2  UNL     1      21.345   3.671  51.964  1.00  0.00    -0.355 N 
HETATM   20  H15 UNL     1      20.851   3.397  52.831  1.00  0.00     0.162 HD
HETATM   21  O1  UNL     1      22.854   3.394  50.711  1.00  0.00    -0.267 OA
BRANCH  19  22
HETATM   22  C6  UNL     1      20.762   4.740  51.210  1.00  0.00     0.142 C 
BRANCH  22  23
HETATM   23  C5  UNL     1      19.433   4.385  50.675  1.00  0.00     0.136 C 
BRANCH  23  24
HETATM   24  N1  UNL     1      19.195   2.991  50.415  1.00  0.00    -0.412 N 
BRANCH  24  25
HETATM   25  C2  UNL     1      19.300   2.634  49.030  1.00  0.00     0.112 C 
HETATM   26  C1  UNL     1      20.465   1.665  48.914  1.00  0.00     0.026 C 
ENDBRANCH  24  25
BRANCH  24  27
HETATM   27  C3  UNL     1      18.114   2.415  51.129  1.00  0.00     0.112 C 
HETATM   28  C4  UNL     1      17.160   3.487  51.593  1.00  0.00     0.026 C 
ENDBRANCH  24  27
ENDBRANCH  23  24
ENDBRANCH  22  23
ENDBRANCH  19  22
ENDBRANCH   1  18
BRANCH   8  29
HETATM   29  O2  UNL     1      24.817   3.628  52.818  1.00  0.00    -0.358 OA
HETATM   30  H23 UNL     1      24.091   4.296  52.712  1.00  0.00     0.217 HD
ENDBRANCH   8  29
TORSDOF 7
ENDMDL
MODEL 5
REMARK VINA RESULT:      -7.5      2.998      5.541
REMARK  7 active torsions:
REMARK  status: ('A' for Active; 'I' for Inactive)
REMARK    1  A    between atoms: C2_2  and  N1_3 
REMARK    2  A    between atoms: N1_3  and  C3_4 
REMARK    3  A    between atoms: N1_3  and  C5_6 
REMARK    4  A    between atoms: C5_6  and  C6_7 
REMARK    5  A    between atoms: C6_7  and  N2_8 
REMARK       I    between atoms: N2_8  and  C7_9 
REMARK    6  A    between atoms: C7_9  and  C8_11 
REMARK    7  A    between atoms: C14_18  and  O2_19 
ROOT
HETATM    1  C8  UNL     1      25.740   4.427  49.776  1.00  0.00     0.088 C 
HETATM    2  C9  UNL     1      24.522   4.875  49.570  1.00  0.00     0.019 C 
HETATM    3  C10 UNL     1      24.498   5.954  48.552  1.00  0.00     0.069 C 
HETATM    4  N3  UNL     1      23.241   4.565  50.095  1.00  0.00    -0.392 N 
HETATM    5  C11 UNL     1      22.965   3.640  51.142  1.00  0.00     0.135 C 
HETATM    6  C12 UNL     1      23.670   2.325  50.896  1.00  0.00     0.091 A 
HETATM    7  C13 UNL     1      25.101   2.435  51.268  1.00  0.00     0.054 A 
HETATM    8  C14 UNL     1      25.932   3.335  50.769  1.00  0.00     0.106 C 
HETATM    9  N4  UNL     1      25.455   1.462  52.223  1.00  0.00    -0.356 N 
HETATM   10  C15 UNL     1      24.237   0.775  52.469  1.00  0.00     0.039 A 
HETATM   11  C16 UNL     1      24.032  -0.284  53.357  1.00  0.00     0.030 A 
HETATM   12  C17 UNL     1      22.823  -0.873  53.539  1.00  0.00     0.002 A 
HETATM   13  C18 UNL     1      21.751  -0.378  52.789  1.00  0.00     0.001 A 
HETATM   14  C19 UNL     1      21.916   0.677  51.892  1.00  0.00     0.010 A 
HETATM   15  C20 UNL     1      23.169   1.247  51.740  1.00  0.00    -0.020 A 
HETATM   16  H19 UNL     1      22.446   5.074  49.657  1.00  0.00     0.159 HD
HETATM   17  H24 UNL     1      26.375   1.284  52.649  1.00  0.00     0.166 HD
ENDROOT
BRANCH   1  18
HETATM   18  C7  UNL     1      26.975   4.815  49.184  1.00  0.00     0.256 C 
HETATM   19  N2  UNL     1      27.817   5.891  48.930  1.00  0.00    -0.355 N 
HETATM   20  H15 UNL     1      27.402   6.761  49.304  1.00  0.00     0.162 HD
HETATM   21  O1  UNL     1      27.683   3.936  48.641  1.00  0.00    -0.267 OA
BRANCH  19  22
HETATM   22  C6  UNL     1      29.087   6.019  48.280  1.00  0.00     0.142 C 
BRANCH  22  23
HETATM   23  C5  UNL     1      29.420   7.426  47.979  1.00  0.00     0.136 C 
BRANCH  23  24
HETATM   24  N1  UNL     1      28.395   8.400  48.240  1.00  0.00    -0.412 N 
BRANCH  24  25
HETATM   25  C2  UNL     1      27.940   9.091  47.069  1.00  0.00     0.112 C 
HETATM   26  C1  UNL     1      26.679   8.381  46.602  1.00  0.00     0.026 C 
ENDBRANCH  24  25
BRANCH  24  27
HETATM   27  C3  UNL     1      28.593   9.195  49.398  1.00  0.00     0.112 C 
HETATM   28  C4  UNL     1      27.332   9.243  50.224  1.00  0.00     0.026 C 
ENDBRANCH  24  27
ENDBRANCH  23  24
ENDBRANCH  22  23
ENDBRANCH  19  22
ENDBRANCH   1  18
BRANCH   8  29
HETATM   29  O2  UNL     1      27.214   3.206  51.297  1.00  0.00    -0.358 OA
HETATM   30  H23 UNL     1      27.898   3.924  51.258  1.00  0.00     0.217 HD
ENDBRANCH   8  29
TORSDOF 7
ENDMDL
MODEL 6
REMARK VINA RESULT:      -7.3      3.795      5.976
REMARK  7 active torsions:
REMARK  status: ('A' for Active; 'I' for Inactive)
REMARK    1  A    between atoms: C2_2  and  N1_3 
REMARK    2  A    between atoms: N1_3  and  C3_4 
REMARK    3  A    between atoms: N1_3  and  C5_6 
REMARK    4  A    between atoms: C5_6  and  C6_7 
REMARK    5  A    between atoms: C6_7  and  N2_8 
REMARK       I    between atoms: N2_8  and  C7_9 
REMARK    6  A    between atoms: C7_9  and  C8_11 
REMARK    7  A    between atoms: C14_18  and  O2_19 
ROOT
HETATM    1  C8  UNL     1      25.666   4.418  49.787  1.00  0.00     0.088 C 
HETATM    2  C9  UNL     1      24.442   4.850  49.578  1.00  0.00     0.019 C 
HETATM    3  C10 UNL     1      24.404   5.921  48.553  1.00  0.00     0.069 C 
HETATM    4  N3  UNL     1      23.166   4.526  50.105  1.00  0.00    -0.392 N 
HETATM    5  C11 UNL     1      22.902   3.605  51.159  1.00  0.00     0.135 C 
HETATM    6  C12 UNL     1      23.624   2.298  50.922  1.00  0.00     0.091 A 
HETATM    7  C13 UNL     1      25.053   2.429  51.293  1.00  0.00     0.054 A 
HETATM    8  C14 UNL     1      25.872   3.337  50.788  1.00  0.00     0.106 C 
HETATM    9  N4  UNL     1      25.420   1.468  52.256  1.00  0.00    -0.356 N 
HETATM   10  C15 UNL     1      24.211   0.766  52.506  1.00  0.00     0.039 A 
HETATM   11  C16 UNL     1      24.021  -0.289  53.401  1.00  0.00     0.030 A 
HETATM   12  C17 UNL     1      22.819  -0.893  53.587  1.00  0.00     0.002 A 
HETATM   13  C18 UNL     1      21.740  -0.418  52.834  1.00  0.00     0.001 A 
HETATM   14  C19 UNL     1      21.892   0.634  51.930  1.00  0.00     0.010 A 
HETATM   15  C20 UNL     1      23.137   1.218  51.773  1.00  0.00    -0.020 A 
HETATM   16  H19 UNL     1      22.364   5.021  49.664  1.00  0.00     0.159 HD
HETATM   17  H24 UNL     1      26.343   1.305  52.682  1.00  0.00     0.166 HD
ENDROOT
BRANCH   1  18
HETATM   18  C7  UNL     1      26.896   4.819  49.193  1.00  0.00     0.256 C 
HETATM   19  N2  UNL     1      27.724   5.904  48.930  1.00  0.00    -0.355 N 
HETATM   20  H15 UNL     1      27.295   6.772  49.296  1.00  0.00     0.162 HD
HETATM   21  O1  UNL     1      27.617   3.945  48.658  1.00  0.00    -0.267 OA
BRANCH  19  22
HETATM   22  C6  UNL     1      28.992   6.045  48.280  1.00  0.00     0.142 C 
BRANCH  22  23
HETATM   23  C5  UNL     1      29.538   7.410  48.413  1.00  0.00     0.136 C 
BRANCH  23  24
HETATM   24  N1  UNL     1      30.886   7.519  48.903  1.00  0.00    -0.412 N 
BRANCH  24  25
HETATM   25  C2  UNL     1      31.208   8.814  49.427  1.00  0.00     0.112 C 
HETATM   26  C1  UNL     1      29.949   9.659  49.315  1.00  0.00     0.026 C 
ENDBRANCH  24  25
BRANCH  24  27
HETATM   27  C3  UNL     1      31.878   6.905  48.096  1.00  0.00     0.112 C 
HETATM   28  C4  UNL     1      33.254   7.327  48.544  1.00  0.00     0.026 C 
ENDBRANCH  24  27
ENDBRANCH  23  24
ENDBRANCH  22  23
ENDBRANCH  19  22
ENDBRANCH   1  18
BRANCH   8  29
HETATM   29  O2  UNL     1      27.156   3.228  51.317  1.00  0.00    -0.358 OA
HETATM   30  H23 UNL     1      27.367   2.717  52.141  1.00  0.00     0.217 HD
ENDBRANCH   8  29
TORSDOF 7
ENDMDL
MODEL 7
REMARK VINA RESULT:      -6.8      2.406      6.780
REMARK  7 active torsions:
REMARK  status: ('A' for Active; 'I' for Inactive)
REMARK    1  A    between atoms: C2_2  and  N1_3 
REMARK    2  A    between atoms: N1_3  and  C3_4 
REMARK    3  A    between atoms: N1_3  and  C5_6 
REMARK    4  A    between atoms: C5_6  and  C6_7 
REMARK    5  A    between atoms: C6_7  and  N2_8 
REMARK       I    between atoms: N2_8  and  C7_9 
REMARK    6  A    between atoms: C7_9  and  C8_11 
REMARK    7  A    between atoms: C14_18  and  O2_19 
ROOT
HETATM    1  C8  UNL     1      23.670   4.352  50.525  1.00  0.00     0.088 C 
HETATM    2  C9  UNL     1      23.060   5.376  49.972  1.00  0.00     0.019 C 
HETATM    3  C10 UNL     1      21.684   5.547  50.499  1.00  0.00     0.069 C 
HETATM    4  N3  UNL     1      23.415   6.343  48.996  1.00  0.00    -0.392 N 
HETATM    5  C11 UNL     1      24.631   6.379  48.255  1.00  0.00     0.135 C 
HETATM    6  C12 UNL     1      25.823   6.220  49.171  1.00  0.00     0.091 A 
HETATM    7  C13 UNL     1      26.000   4.794  49.536  1.00  0.00     0.054 A 
HETATM    8  C14 UNL     1      25.066   4.050  50.104  1.00  0.00     0.106 C 
HETATM    9  N4  UNL     1      27.287   4.337  49.193  1.00  0.00    -0.356 N 
HETATM   10  C15 UNL     1      27.894   5.468  48.584  1.00  0.00     0.039 A 
HETATM   11  C16 UNL     1      29.181   5.545  48.046  1.00  0.00     0.030 A 
HETATM   12  C17 UNL     1      29.673   6.670  47.467  1.00  0.00     0.002 A 
HETATM   13  C18 UNL     1      28.833   7.787  47.421  1.00  0.00     0.001 A 
HETATM   14  C19 UNL     1      27.542   7.748  47.948  1.00  0.00     0.010 A 
HETATM   15  C20 UNL     1      27.082   6.578  48.530  1.00  0.00    -0.020 A 
HETATM   16  H19 UNL     1      22.704   7.084  48.825  1.00  0.00     0.159 HD
HETATM   17  H24 UNL     1      27.700   3.406  49.343  1.00  0.00     0.166 HD
ENDROOT
BRANCH   1  18
HETATM   18  C7  UNL     1      23.213   3.433  51.511  1.00  0.00     0.256 C 
HETATM   19  N2  UNL     1      22.455   2.288  51.724  1.00  0.00    -0.355 N 
HETATM   20  H15 UNL     1      22.048   1.962  50.830  1.00  0.00     0.162 HD
HETATM   21  O1  UNL     1      23.560   3.610  52.703  1.00  0.00    -0.267 OA
BRANCH  19  22
HETATM   22  C6  UNL     1      22.140   1.513  52.887  1.00  0.00     0.142 C 
BRANCH  22  23
HETATM   23  C5  UNL     1      22.354   0.069  52.669  1.00  0.00     0.136 C 
BRANCH  23  24
HETATM   24  N1  UNL     1      23.338  -0.569  53.502  1.00  0.00    -0.412 N 
BRANCH  24  25
HETATM   25  C2  UNL     1      22.805  -1.099  54.724  1.00  0.00     0.112 C 
HETATM   26  C1  UNL     1      21.447  -1.694  54.389  1.00  0.00     0.026 C 
ENDBRANCH  24  25
BRANCH  24  27
HETATM   27  C3  UNL     1      24.581   0.106  53.602  1.00  0.00     0.112 C 
HETATM   28  C4  UNL     1      25.694  -0.762  53.073  1.00  0.00     0.026 C 
ENDBRANCH  24  27
ENDBRANCH  23  24
ENDBRANCH  22  23
ENDBRANCH  19  22
ENDBRANCH   1  18
BRANCH   8  29
HETATM   29  O2  UNL     1      25.507   2.750  50.334  1.00  0.00    -0.358 OA
HETATM   30  H23 UNL     1      25.081   1.948  49.933  1.00  0.00     0.217 HD
ENDBRANCH   8  29
TORSDOF 7
ENDMDL
MODEL 8
REMARK VINA RESULT:      -6.7      3.865      5.832
REMARK  7 active torsions:
REMARK  status: ('A' for Active; 'I' for Inactive)
REMARK    1  A    between atoms: C2_2  and  N1_3 
REMARK    2  A    between atoms: N1_3  and  C3_4 
REMARK    3  A    between atoms: N1_3  and  C5_6 
REMARK    4  A    between atoms: C5_6  and  C6_7 
REMARK    5  A    between atoms: C6_7  and  N2_8 
REMARK       I    between atoms: N2_8  and  C7_9 
REMARK    6  A    between atoms: C7_9  and  C8_11 
REMARK    7  A    between atoms: C14_18  and  O2_19 
ROOT
HETATM    1  C8  UNL     1      18.997  -0.195  52.678  1.00  0.00     0.088 C 
HETATM    2  C9  UNL     1      19.213  -1.197  53.500  1.00  0.00     0.019 C 
HETATM    3  C10 UNL     1      18.068  -2.139  53.533  1.00  0.00     0.069 C 
HETATM    4  N3  UNL     1      20.281  -1.576  54.354  1.00  0.00    -0.392 N 
HETATM    5  C11 UNL     1      21.468  -0.826  54.597  1.00  0.00     0.135 C 
HETATM    6  C12 UNL     1      22.086  -0.365  53.296  1.00  0.00     0.091 A 
HETATM    7  C13 UNL     1      21.357   0.815  52.774  1.00  0.00     0.054 A 
HETATM    8  C14 UNL     1      20.058   0.838  52.529  1.00  0.00     0.106 C 
HETATM    9  N4  UNL     1      22.227   1.906  52.580  1.00  0.00    -0.356 N 
HETATM   10  C15 UNL     1      23.486   1.413  53.015  1.00  0.00     0.039 A 
HETATM   11  C16 UNL     1      24.697   2.108  53.046  1.00  0.00     0.030 A 
HETATM   12  C17 UNL     1      25.853   1.557  53.496  1.00  0.00     0.002 A 
HETATM   13  C18 UNL     1      25.802   0.233  53.941  1.00  0.00     0.001 A 
HETATM   14  C19 UNL     1      24.611  -0.493  53.925  1.00  0.00     0.010 A 
HETATM   15  C20 UNL     1      23.455   0.110  53.457  1.00  0.00    -0.020 A 
HETATM   16  H19 UNL     1      20.162  -2.490  54.836  1.00  0.00     0.159 HD
HETATM   17  H24 UNL     1      22.011   2.842  52.211  1.00  0.00     0.166 HD
ENDROOT
BRANCH   1  18
HETATM   18  C7  UNL     1      17.871   0.092  51.856  1.00  0.00     0.256 C 
HETATM   19  N2  UNL     1      16.586   0.620  51.843  1.00  0.00    -0.355 N 
HETATM   20  H15 UNL     1      16.320   0.925  52.796  1.00  0.00     0.162 HD
HETATM   21  O1  UNL     1      17.929  -0.194  50.637  1.00  0.00    -0.267 OA
BRANCH  19  22
HETATM   22  C6  UNL     1      15.605   0.811  50.817  1.00  0.00     0.142 C 
BRANCH  22  23
HETATM   23  C5  UNL     1      15.146   2.212  50.738  1.00  0.00     0.136 C 
BRANCH  23  24
HETATM   24  N1  UNL     1      15.904   3.091  49.890  1.00  0.00    -0.412 N 
BRANCH  24  25
HETATM   25  C2  UNL     1      16.505   2.435  48.765  1.00  0.00     0.112 C 
HETATM   26  C1  UNL     1      17.980   2.804  48.778  1.00  0.00     0.026 C 
ENDBRANCH  24  25
BRANCH  24  27
HETATM   27  C3  UNL     1      16.712   4.041  50.566  1.00  0.00     0.112 C 
HETATM   28  C4  UNL     1      16.208   4.254  51.970  1.00  0.00     0.026 C 
ENDBRANCH  24  27
ENDBRANCH  23  24
ENDBRANCH  22  23
ENDBRANCH  19  22
ENDBRANCH   1  18
BRANCH   8  29
HETATM   29  O2  UNL     1      19.643   2.077  52.045  1.00  0.00    -0.358 OA
HETATM   30  H23 UNL     1      19.832   2.935  52.504  1.00  0.00     0.217 HD
ENDBRANCH   8  29
TORSDOF 7
ENDMDL
MODEL 9
REMARK VINA RESULT:      -6.6      2.965      4.511
REMARK  7 active torsions:
REMARK  status: ('A' for Active; 'I' for Inactive)
REMARK    1  A    between atoms: C2_2  and  N1_3 
REMARK    2  A    between atoms: N1_3  and  C3_4 
REMARK    3  A    between atoms: N1_3  and  C5_6 
REMARK    4  A    between atoms: C5_6  and  C6_7 
REMARK    5  A    between atoms: C6_7  and  N2_8 
REMARK       I    between atoms: N2_8  and  C7_9 
REMARK    6  A    between atoms: C7_9  and  C8_11 
REMARK    7  A    between atoms: C14_18  and  O2_19 
ROOT
HETATM    1  C8  UNL     1      24.514   5.364  50.271  1.00  0.00     0.088 C 
HETATM    2  C9  UNL     1      23.564   5.419  51.178  1.00  0.00     0.019 C 
HETATM    3  C10 UNL     1      22.631   6.544  50.931  1.00  0.00     0.069 C 
HETATM    4  N3  UNL     1      23.236   4.654  52.327  1.00  0.00    -0.392 N 
HETATM    5  C11 UNL     1      23.995   3.572  52.860  1.00  0.00     0.135 C 
HETATM    6  C12 UNL     1      24.370   2.593  51.771  1.00  0.00     0.091 A 
HETATM    7  C13 UNL     1      25.518   3.112  50.991  1.00  0.00     0.054 A 
HETATM    8  C14 UNL     1      25.532   4.284  50.377  1.00  0.00     0.106 C 
HETATM    9  N4  UNL     1      26.592   2.199  50.995  1.00  0.00    -0.356 N 
HETATM   10  C15 UNL     1      26.122   1.133  51.806  1.00  0.00     0.039 A 
HETATM   11  C16 UNL     1      26.813  -0.032  52.148  1.00  0.00     0.030 A 
HETATM   12  C17 UNL     1      26.287  -0.996  52.946  1.00  0.00     0.002 A 
HETATM   13  C18 UNL     1      24.993  -0.788  53.434  1.00  0.00     0.001 A 
HETATM   14  C19 UNL     1      24.272   0.363  53.115  1.00  0.00     0.010 A 
HETATM   15  C20 UNL     1      24.849   1.319  52.296  1.00  0.00    -0.020 A 
HETATM   16  H19 UNL     1      22.354   4.927  52.806  1.00  0.00     0.159 HD
HETATM   17  H24 UNL     1      27.504   2.278  50.524  1.00  0.00     0.166 HD
ENDROOT
BRANCH   1  18
HETATM   18  C7  UNL     1      24.753   6.196  49.141  1.00  0.00     0.256 C 
HETATM   19  N2  UNL     1      25.469   7.293  48.676  1.00  0.00    -0.355 N 
HETATM   20  H15 UNL     1      26.063   7.674  49.433  1.00  0.00     0.162 HD
HETATM   21  O1  UNL     1      24.139   5.953  48.076  1.00  0.00    -0.267 OA
BRANCH  19  22
HETATM   22  C6  UNL     1      25.537   7.966  47.414  1.00  0.00     0.142 C 
BRANCH  22  23
HETATM   23  C5  UNL     1      26.927   8.144  46.951  1.00  0.00     0.136 C 
BRANCH  23  24
HETATM   24  N1  UNL     1      27.963   7.932  47.925  1.00  0.00    -0.412 N 
BRANCH  24  25
HETATM   25  C2  UNL     1      28.598   9.140  48.367  1.00  0.00     0.112 C 
HETATM   26  C1  UNL     1      28.131   9.384  49.793  1.00  0.00     0.026 C 
ENDBRANCH  24  25
BRANCH  24  27
HETATM   27  C3  UNL     1      28.820   6.831  47.672  1.00  0.00     0.112 C 
HETATM   28  C4  UNL     1      30.085   7.295  46.996  1.00  0.00     0.026 C 
ENDBRANCH  24  27
ENDBRANCH  23  24
ENDBRANCH  22  23
ENDBRANCH  19  22
ENDBRANCH   1  18
BRANCH   8  29
HETATM   29  O2  UNL     1      26.739   4.512  49.721  1.00  0.00    -0.358 OA
HETATM   30  H23 UNL     1      27.233   5.371  49.768  1.00  0.00     0.217 HD
ENDBRANCH   8  29
TORSDOF 7
ENDMDL
