MODEL 1
REMARK VINA RESULT:      -9.6      0.000      0.000
REMARK  6 active torsions:
REMARK  status: ('A' for Active; 'I' for Inactive)
REMARK    1  A    between atoms: C2_2  and  O1_3 
REMARK    2  A    between atoms: C3_4  and  C4_5 
REMARK    3  A    between atoms: C8_10  and  C9_11 
REMARK    4  A    between atoms: C9_11  and  C10_12 
REMARK    5  A    between atoms: C13_17  and  N4_18 
REMARK    6  A    between atoms: N4_18  and  C14_19 
ROOT
HETATM    1  C10 UNL     1      27.083   1.670  52.979  1.00  0.00     0.004 A 
HETATM    2  C11 UNL     1      28.291   2.318  53.586  1.00  0.00     0.192 A 
HETATM    3  N2  UNL     1      28.879   1.441  54.530  1.00  0.00    -0.278 NA
HETATM    4  C12 UNL     1      28.541   0.280  54.909  1.00  0.00     0.229 A 
HETATM    5  N3  UNL     1      27.393  -0.349  54.358  1.00  0.00    -0.224 NA
HETATM    6  C13 UNL     1      26.728   0.317  53.462  1.00  0.00     0.137 A 
ENDROOT
BRANCH   1   7
HETATM    7  C9  UNL     1      26.352   2.268  52.043  1.00  0.00    -0.007 C 
BRANCH   7   8
HETATM    8  C8  UNL     1      25.645   2.519  50.792  1.00  0.00     0.041 C 
HETATM    9  C7  UNL     1      24.462   3.449  50.928  1.00  0.00     0.278 C 
HETATM   10  N1  UNL     1      24.831   4.799  51.193  1.00  0.00     0.087 N 
HETATM   11  C6  UNL     1      25.493   5.403  50.079  1.00  0.00     0.303 C 
HETATM   12  H9  UNL     1      25.402   4.901  52.036  1.00  0.00     0.316 HD
HETATM   13  C5  UNL     1      26.469   4.453  49.491  1.00  0.00    -0.051 C 
HETATM   14  C4  UNL     1      27.396   4.882  48.655  1.00  0.00     0.007 C 
HETATM   15  C20 UNL     1      26.591   2.976  49.699  1.00  0.00     0.046 C 
BRANCH  14  16
HETATM   16  C3  UNL     1      27.492   6.287  48.284  1.00  0.00     0.032 C 
HETATM   17  C2  UNL     1      28.437   7.172  48.439  1.00  0.00     0.039 C 
HETATM   18  C1  UNL     1      28.501   8.595  48.048  1.00  0.00     0.076 C 
BRANCH  17  19
HETATM   19  O1  UNL     1      29.614   6.763  49.076  1.00  0.00    -0.365 OA
HETATM   20  H4  UNL     1      29.857   7.192  49.942  1.00  0.00     0.217 HD
ENDBRANCH  17  19
ENDBRANCH  14  16
ENDBRANCH   7   8
ENDBRANCH   1   7
BRANCH   6  21
HETATM   21  N4  UNL     1      25.591  -0.342  52.962  1.00  0.00    -0.340 N 
HETATM   22  H17 UNL     1      25.737  -0.849  52.036  1.00  0.00     0.167 HD
BRANCH  21  23
HETATM   23  C14 UNL     1      24.311  -0.384  53.572  1.00  0.00     0.035 A 
HETATM   24  C15 UNL     1      23.979  -1.114  54.684  1.00  0.00     0.029 A 
HETATM   25  C16 UNL     1      22.728  -1.135  55.260  1.00  0.00     0.004 A 
HETATM   26  C17 UNL     1      21.721  -0.376  54.701  1.00  0.00     0.024 A 
HETATM   27  C18 UNL     1      22.013   0.374  53.583  1.00  0.00     0.036 A 
HETATM   28 CL1  UNL     1      20.731   1.343  52.867  1.00  0.00    -0.084 Cl
HETATM   29  C19 UNL     1      23.280   0.362  53.040  1.00  0.00     0.053 A 
ENDBRANCH  21  23
ENDBRANCH   6  21
TORSDOF 6
ENDMDL
MODEL 2
REMARK VINA RESULT:      -8.7      2.905      5.036
REMARK  6 active torsions:
REMARK  status: ('A' for Active; 'I' for Inactive)
REMARK    1  A    between atoms: C2_2  and  O1_3 
REMARK    2  A    between atoms: C3_4  and  C4_5 
REMARK    3  A    between atoms: C8_10  and  C9_11 
REMARK    4  A    between atoms: C9_11  and  C10_12 
REMARK    5  A    between atoms: C13_17  and  N4_18 
REMARK    6  A    between atoms: N4_18  and  C14_19 
ROOT
HETATM    1  C10 UNL     1      22.469  -0.401  53.207  1.00  0.00     0.004 A 
HETATM    2  C11 UNL     1      21.520  -1.021  54.188  1.00  0.00     0.192 A 
HETATM    3  N2  UNL     1      22.236  -1.473  55.324  1.00  0.00    -0.278 NA
HETATM    4  C12 UNL     1      23.473  -1.438  55.595  1.00  0.00     0.229 A 
HETATM    5  N3  UNL     1      24.393  -0.867  54.676  1.00  0.00    -0.224 NA
HETATM    6  C13 UNL     1      23.904  -0.392  53.570  1.00  0.00     0.137 A 
ENDROOT
BRANCH   1   7
HETATM    7  C9  UNL     1      22.058   0.126  52.058  1.00  0.00    -0.007 C 
BRANCH   7   8
HETATM    8  C8  UNL     1      21.367   0.979  51.098  1.00  0.00     0.041 C 
HETATM    9  C7  UNL     1      20.644   2.151  51.723  1.00  0.00     0.278 C 
HETATM   10  N1  UNL     1      21.523   3.145  52.241  1.00  0.00     0.087 N 
HETATM   11  C6  UNL     1      22.239   3.821  51.204  1.00  0.00     0.303 C 
HETATM   12  H9  UNL     1      22.178   2.781  52.936  1.00  0.00     0.316 HD
HETATM   13  C5  UNL     1      22.713   2.845  50.194  1.00  0.00    -0.051 C 
HETATM   14  C4  UNL     1      23.636   3.189  49.315  1.00  0.00     0.007 C 
HETATM   15  C20 UNL     1      22.291   1.425  49.982  1.00  0.00     0.046 C 
BRANCH  14  16
HETATM   16  C3  UNL     1      24.216   4.526  49.307  1.00  0.00     0.032 C 
HETATM   17  C2  UNL     1      25.300   5.014  49.840  1.00  0.00     0.039 C 
HETATM   18  C1  UNL     1      25.860   6.381  49.811  1.00  0.00     0.076 C 
BRANCH  17  19
HETATM   19  O1  UNL     1      26.114   4.145  50.576  1.00  0.00    -0.365 OA
HETATM   20  H4  UNL     1      26.673   3.486  50.079  1.00  0.00     0.217 HD
ENDBRANCH  17  19
ENDBRANCH  14  16
ENDBRANCH   7   8
ENDBRANCH   1   7
BRANCH   6  21
HETATM   21  N4  UNL     1      24.858   0.145  52.686  1.00  0.00    -0.340 N 
HETATM   22  H17 UNL     1      24.533   0.234  51.675  1.00  0.00     0.167 HD
BRANCH  21  23
HETATM   23  C14 UNL     1      26.171   0.562  53.024  1.00  0.00     0.035 A 
HETATM   24  C15 UNL     1      26.549   1.846  53.323  1.00  0.00     0.029 A 
HETATM   25  C16 UNL     1      27.832   2.225  53.653  1.00  0.00     0.004 A 
HETATM   26  C17 UNL     1      28.824   1.268  53.693  1.00  0.00     0.024 A 
HETATM   27  C18 UNL     1      28.485  -0.035  53.399  1.00  0.00     0.036 A 
HETATM   28 CL1  UNL     1      29.747  -1.259  53.450  1.00  0.00    -0.084 Cl
HETATM   29  C19 UNL     1      27.188  -0.368  53.074  1.00  0.00     0.053 A 
ENDBRANCH  21  23
ENDBRANCH   6  21
TORSDOF 6
ENDMDL
MODEL 3
REMARK VINA RESULT:      -8.2      3.687      6.405
REMARK  6 active torsions:
REMARK  status: ('A' for Active; 'I' for Inactive)
REMARK    1  A    between atoms: C2_2  and  O1_3 
REMARK    2  A    between atoms: C3_4  and  C4_5 
REMARK    3  A    between atoms: C8_10  and  C9_11 
REMARK    4  A    between atoms: C9_11  and  C10_12 
REMARK    5  A    between atoms: C13_17  and  N4_18 
REMARK    6  A    between atoms: N4_18  and  C14_19 
ROOT
HETATM    1  C10 UNL     1      25.382   0.205  53.776  1.00  0.00     0.004 A 
HETATM    2  C11 UNL     1      26.521  -0.762  53.908  1.00  0.00     0.192 A 
HETATM    3  N2  UNL     1      27.745  -0.051  53.972  1.00  0.00    -0.278 NA
HETATM    4  C12 UNL     1      27.988   1.191  53.924  1.00  0.00     0.229 A 
HETATM    5  N3  UNL     1      26.927   2.125  53.787  1.00  0.00    -0.224 NA
HETATM    6  C13 UNL     1      25.722   1.644  53.718  1.00  0.00     0.137 A 
ENDROOT
BRANCH   1   7
HETATM    7  C9  UNL     1      24.116  -0.195  53.717  1.00  0.00    -0.007 C 
BRANCH   7   8
HETATM    8  C8  UNL     1      22.903  -0.883  53.290  1.00  0.00     0.041 C 
HETATM    9  C7  UNL     1      21.934  -1.178  54.412  1.00  0.00     0.278 C 
HETATM   10  N1  UNL     1      21.300  -0.013  54.933  1.00  0.00     0.087 N 
HETATM   11  C6  UNL     1      20.409   0.582  53.986  1.00  0.00     0.303 C 
HETATM   12  H9  UNL     1      21.963   0.687  55.274  1.00  0.00     0.316 HD
HETATM   13  C5  UNL     1      21.032   0.597  52.640  1.00  0.00    -0.051 C 
HETATM   14  C4  UNL     1      20.530   1.353  51.682  1.00  0.00     0.007 C 
HETATM   15  C20 UNL     1      22.225  -0.158  52.144  1.00  0.00     0.046 C 
BRANCH  14  16
HETATM   16  C3  UNL     1      19.359   2.189  51.909  1.00  0.00     0.032 C 
HETATM   17  C2  UNL     1      18.758   3.076  51.166  1.00  0.00     0.039 C 
HETATM   18  C1  UNL     1      17.567   3.909  51.428  1.00  0.00     0.076 C 
BRANCH  17  19
HETATM   19  O1  UNL     1      19.283   3.323  49.892  1.00  0.00    -0.365 OA
HETATM   20  H4  UNL     1      20.126   3.851  49.822  1.00  0.00     0.217 HD
ENDBRANCH  17  19
ENDBRANCH  14  16
ENDBRANCH   7   8
ENDBRANCH   1   7
BRANCH   6  21
HETATM   21  N4  UNL     1      24.710   2.608  53.565  1.00  0.00    -0.340 N 
HETATM   22  H17 UNL     1      24.378   3.059  54.472  1.00  0.00     0.167 HD
BRANCH  21  23
HETATM   23  C14 UNL     1      24.119   3.014  52.341  1.00  0.00     0.035 A 
HETATM   24  C15 UNL     1      24.404   2.495  51.105  1.00  0.00     0.029 A 
HETATM   25  C16 UNL     1      23.811   2.905  49.930  1.00  0.00     0.004 A 
HETATM   26  C17 UNL     1      22.861   3.904  49.973  1.00  0.00     0.024 A 
HETATM   27  C18 UNL     1      22.545   4.452  51.196  1.00  0.00     0.036 A 
HETATM   28 CL1  UNL     1      21.334   5.726  51.254  1.00  0.00    -0.084 Cl
HETATM   29  C19 UNL     1      23.165   4.010  52.345  1.00  0.00     0.053 A 
ENDBRANCH  21  23
ENDBRANCH   6  21
TORSDOF 6
ENDMDL
MODEL 4
REMARK VINA RESULT:      -8.1      3.740      5.529
REMARK  6 active torsions:
REMARK  status: ('A' for Active; 'I' for Inactive)
REMARK    1  A    between atoms: C2_2  and  O1_3 
REMARK    2  A    between atoms: C3_4  and  C4_5 
REMARK    3  A    between atoms: C8_10  and  C9_11 
REMARK    4  A    between atoms: C9_11  and  C10_12 
REMARK    5  A    between atoms: C13_17  and  N4_18 
REMARK    6  A    between atoms: N4_18  and  C14_19 
ROOT
HETATM    1  C10 UNL     1      22.144  -0.601  53.147  1.00  0.00     0.004 A 
HETATM    2  C11 UNL     1      21.289  -1.313  54.153  1.00  0.00     0.192 A 
HETATM    3  N2  UNL     1      22.064  -1.634  55.295  1.00  0.00    -0.278 NA
HETATM    4  C12 UNL     1      23.286  -1.427  55.555  1.00  0.00     0.229 A 
HETATM    5  N3  UNL     1      24.118  -0.767  54.614  1.00  0.00    -0.224 NA
HETATM    6  C13 UNL     1      23.566  -0.392  53.499  1.00  0.00     0.137 A 
ENDROOT
BRANCH   1   7
HETATM    7  C9  UNL     1      21.662  -0.166  51.987  1.00  0.00    -0.007 C 
BRANCH   7   8
HETATM    8  C8  UNL     1      20.741   0.346  50.978  1.00  0.00     0.041 C 
HETATM    9  C7  UNL     1      19.825   1.440  51.478  1.00  0.00     0.278 C 
HETATM   10  N1  UNL     1      20.500   2.667  51.738  1.00  0.00     0.087 N 
HETATM   11  C6  UNL     1      20.984   3.279  50.540  1.00  0.00     0.303 C 
HETATM   12  H9  UNL     1      21.262   2.572  52.413  1.00  0.00     0.316 HD
HETATM   13  C5  UNL     1      21.591   2.254  49.656  1.00  0.00    -0.051 C 
HETATM   14  C4  UNL     1      22.359   2.616  48.645  1.00  0.00     0.007 C 
HETATM   15  C20 UNL     1      21.473   0.764  49.717  1.00  0.00     0.046 C 
BRANCH  14  16
HETATM   16  C3  UNL     1      22.634   4.019  48.365  1.00  0.00     0.032 C 
HETATM   17  C2  UNL     1      22.419   4.762  47.315  1.00  0.00     0.039 C 
HETATM   18  C1  UNL     1      22.711   6.187  47.064  1.00  0.00     0.076 C 
BRANCH  17  19
HETATM   19  O1  UNL     1      21.809   4.162  46.207  1.00  0.00    -0.365 OA
HETATM   20  H4  UNL     1      22.392   3.759  45.506  1.00  0.00     0.217 HD
ENDBRANCH  17  19
ENDBRANCH  14  16
ENDBRANCH   7   8
ENDBRANCH   1   7
BRANCH   6  21
HETATM   21  N4  UNL     1      24.437   0.241  52.593  1.00  0.00    -0.340 N 
HETATM   22  H17 UNL     1      25.143  -0.405  52.123  1.00  0.00     0.167 HD
BRANCH  21  23
HETATM   23  C14 UNL     1      24.449   1.621  52.267  1.00  0.00     0.035 A 
HETATM   24  C15 UNL     1      23.786   2.608  52.949  1.00  0.00     0.029 A 
HETATM   25  C16 UNL     1      23.817   3.945  52.615  1.00  0.00     0.004 A 
HETATM   26  C17 UNL     1      24.559   4.344  51.523  1.00  0.00     0.024 A 
HETATM   27  C18 UNL     1      25.241   3.383  50.811  1.00  0.00     0.036 A 
HETATM   28 CL1  UNL     1      26.190   3.889  49.418  1.00  0.00    -0.084 Cl
HETATM   29  C19 UNL     1      25.180   2.057  51.183  1.00  0.00     0.053 A 
ENDBRANCH  21  23
ENDBRANCH   6  21
TORSDOF 6
ENDMDL
MODEL 5
REMARK VINA RESULT:      -8.1      3.567      6.734
REMARK  6 active torsions:
REMARK  status: ('A' for Active; 'I' for Inactive)
REMARK    1  A    between atoms: C2_2  and  O1_3 
REMARK    2  A    between atoms: C3_4  and  C4_5 
REMARK    3  A    between atoms: C8_10  and  C9_11 
REMARK    4  A    between atoms: C9_11  and  C10_12 
REMARK    5  A    between atoms: C13_17  and  N4_18 
REMARK    6  A    between atoms: N4_18  and  C14_19 
ROOT
HETATM    1  C10 UNL     1      25.372   0.026  53.991  1.00  0.00     0.004 A 
HETATM    2  C11 UNL     1      26.014  -0.313  55.303  1.00  0.00     0.192 A 
HETATM    3  N2  UNL     1      27.373   0.091  55.287  1.00  0.00    -0.278 NA
HETATM    4  C12 UNL     1      28.065   0.644  54.382  1.00  0.00     0.229 A 
HETATM    5  N3  UNL     1      27.482   0.962  53.127  1.00  0.00    -0.224 NA
HETATM    6  C13 UNL     1      26.227   0.664  52.966  1.00  0.00     0.137 A 
ENDROOT
BRANCH   1   7
HETATM    7  C9  UNL     1      24.090  -0.225  53.743  1.00  0.00    -0.007 C 
BRANCH   7   8
HETATM    8  C8  UNL     1      22.879  -0.874  53.254  1.00  0.00     0.041 C 
HETATM    9  C7  UNL     1      21.885  -1.222  54.338  1.00  0.00     0.278 C 
HETATM   10  N1  UNL     1      21.253  -0.082  54.913  1.00  0.00     0.087 N 
HETATM   11  C6  UNL     1      20.386   0.576  53.986  1.00  0.00     0.303 C 
HETATM   12  H9  UNL     1      21.916   0.589  55.308  1.00  0.00     0.316 HD
HETATM   13  C5  UNL     1      21.036   0.662  52.656  1.00  0.00    -0.051 C 
HETATM   14  C4  UNL     1      20.561   1.478  51.733  1.00  0.00     0.007 C 
HETATM   15  C20 UNL     1      22.231  -0.076  52.139  1.00  0.00     0.046 C 
BRANCH  14  16
HETATM   16  C3  UNL     1      19.394   2.313  51.986  1.00  0.00     0.032 C 
HETATM   17  C2  UNL     1      18.681   3.080  51.210  1.00  0.00     0.039 C 
HETATM   18  C1  UNL     1      17.499   3.917  51.501  1.00  0.00     0.076 C 
BRANCH  17  19
HETATM   19  O1  UNL     1      19.050   3.167  49.862  1.00  0.00    -0.365 OA
HETATM   20  H4  UNL     1      19.952   3.530  49.641  1.00  0.00     0.217 HD
ENDBRANCH  17  19
ENDBRANCH  14  16
ENDBRANCH   7   8
ENDBRANCH   1   7
BRANCH   6  21
HETATM   21  N4  UNL     1      25.703   0.983  51.701  1.00  0.00    -0.340 N 
HETATM   22  H17 UNL     1      25.443   0.144  51.097  1.00  0.00     0.167 HD
BRANCH  21  23
HETATM   23  C14 UNL     1      25.499   2.288  51.183  1.00  0.00     0.035 A 
HETATM   24  C15 UNL     1      24.437   3.106  51.474  1.00  0.00     0.029 A 
HETATM   25  C16 UNL     1      24.264   4.373  50.961  1.00  0.00     0.004 A 
HETATM   26  C17 UNL     1      25.210   4.879  50.093  1.00  0.00     0.024 A 
HETATM   27  C18 UNL     1      26.293   4.089  49.776  1.00  0.00     0.036 A 
HETATM   28 CL1  UNL     1      27.501   4.731  48.671  1.00  0.00    -0.084 Cl
HETATM   29  C19 UNL     1      26.423   2.827  50.314  1.00  0.00     0.053 A 
ENDBRANCH  21  23
ENDBRANCH   6  21
TORSDOF 6
ENDMDL
MODEL 6
REMARK VINA RESULT:      -8.1      3.544      7.602
REMARK  6 active torsions:
REMARK  status: ('A' for Active; 'I' for Inactive)
REMARK    1  A    between atoms: C2_2  and  O1_3 
REMARK    2  A    between atoms: C3_4  and  C4_5 
REMARK    3  A    between atoms: C8_10  and  C9_11 
REMARK    4  A    between atoms: C9_11  and  C10_12 
REMARK    5  A    between atoms: C13_17  and  N4_18 
REMARK    6  A    between atoms: N4_18  and  C14_19 
ROOT
HETATM    1  C10 UNL     1      21.405   3.070  49.380  1.00  0.00     0.004 A 
HETATM    2  C11 UNL     1      20.327   2.382  48.597  1.00  0.00     0.192 A 
HETATM    3  N2  UNL     1      20.203   2.986  47.321  1.00  0.00    -0.278 NA
HETATM    4  C12 UNL     1      20.823   3.960  46.800  1.00  0.00     0.229 A 
HETATM    5  N3  UNL     1      21.839   4.636  47.525  1.00  0.00    -0.224 NA
HETATM    6  C13 UNL     1      22.092   4.206  48.725  1.00  0.00     0.137 A 
ENDROOT
BRANCH   1   7
HETATM    7  C9  UNL     1      21.745   2.689  50.607  1.00  0.00    -0.007 C 
BRANCH   7   8
HETATM    8  C8  UNL     1      21.828   2.628  52.062  1.00  0.00     0.041 C 
HETATM    9  C7  UNL     1      21.590   1.251  52.636  1.00  0.00     0.278 C 
HETATM   10  N1  UNL     1      22.646   0.334  52.362  1.00  0.00     0.087 N 
HETATM   11  C6  UNL     1      23.851   0.683  53.048  1.00  0.00     0.303 C 
HETATM   12  H9  UNL     1      22.833   0.223  51.363  1.00  0.00     0.316 HD
HETATM   13  C5  UNL     1      24.078   2.146  52.965  1.00  0.00    -0.051 C 
HETATM   14  C4  UNL     1      25.259   2.655  53.261  1.00  0.00     0.007 C 
HETATM   15  C20 UNL     1      23.123   3.229  52.572  1.00  0.00     0.046 C 
BRANCH  14  16
HETATM   16  C3  UNL     1      26.369   1.807  53.677  1.00  0.00     0.032 C 
HETATM   17  C2  UNL     1      27.638   1.819  53.382  1.00  0.00     0.039 C 
HETATM   18  C1  UNL     1      28.740   0.940  53.825  1.00  0.00     0.076 C 
BRANCH  17  19
HETATM   19  O1  UNL     1      28.095   2.808  52.503  1.00  0.00    -0.365 OA
HETATM   20  H4  UNL     1      29.078   2.897  52.361  1.00  0.00     0.217 HD
ENDBRANCH  17  19
ENDBRANCH  14  16
ENDBRANCH   7   8
ENDBRANCH   1   7
BRANCH   6  21
HETATM   21  N4  UNL     1      23.093   4.921  49.408  1.00  0.00    -0.340 N 
HETATM   22  H17 UNL     1      22.734   5.675  50.070  1.00  0.00     0.167 HD
BRANCH  21  23
HETATM   23  C14 UNL     1      24.493   4.723  49.289  1.00  0.00     0.035 A 
HETATM   24  C15 UNL     1      25.165   3.567  49.594  1.00  0.00     0.029 A 
HETATM   25  C16 UNL     1      26.526   3.399  49.465  1.00  0.00     0.004 A 
HETATM   26  C17 UNL     1      27.290   4.448  48.999  1.00  0.00     0.024 A 
HETATM   27  C18 UNL     1      26.653   5.628  48.681  1.00  0.00     0.036 A 
HETATM   28 CL1  UNL     1      27.623   6.969  48.086  1.00  0.00    -0.084 Cl
HETATM   29  C19 UNL     1      25.287   5.750  48.827  1.00  0.00     0.053 A 
ENDBRANCH  21  23
ENDBRANCH   6  21
TORSDOF 6
ENDMDL
MODEL 7
REMARK VINA RESULT:      -8.1      3.390      5.692
REMARK  6 active torsions:
REMARK  status: ('A' for Active; 'I' for Inactive)
REMARK    1  A    between atoms: C2_2  and  O1_3 
REMARK    2  A    between atoms: C3_4  and  C4_5 
REMARK    3  A    between atoms: C8_10  and  C9_11 
REMARK    4  A    between atoms: C9_11  and  C10_12 
REMARK    5  A    between atoms: C13_17  and  N4_18 
REMARK    6  A    between atoms: N4_18  and  C14_19 
ROOT
HETATM    1  C10 UNL     1      24.464  -0.033  53.753  1.00  0.00     0.004 A 
HETATM    2  C11 UNL     1      25.142  -0.707  54.907  1.00  0.00     0.192 A 
HETATM    3  N2  UNL     1      26.544  -0.520  54.813  1.00  0.00    -0.278 NA
HETATM    4  C12 UNL     1      27.245   0.080  53.946  1.00  0.00     0.229 A 
HETATM    5  N3  UNL     1      26.627   0.715  52.836  1.00  0.00    -0.224 NA
HETATM    6  C13 UNL     1      25.331   0.648  52.766  1.00  0.00     0.137 A 
ENDROOT
BRANCH   1   7
HETATM    7  C9  UNL     1      23.142  -0.034  53.607  1.00  0.00    -0.007 C 
BRANCH   7   8
HETATM    8  C8  UNL     1      21.809  -0.330  53.096  1.00  0.00     0.041 C 
HETATM    9  C7  UNL     1      20.734   0.606  53.599  1.00  0.00     0.278 C 
HETATM   10  N1  UNL     1      20.838   1.924  53.066  1.00  0.00     0.087 N 
HETATM   11  C6  UNL     1      20.559   1.959  51.664  1.00  0.00     0.303 C 
HETATM   12  H9  UNL     1      21.741   2.363  53.253  1.00  0.00     0.316 HD
HETATM   13  C5  UNL     1      21.217   0.815  50.987  1.00  0.00    -0.051 C 
HETATM   14  C4  UNL     1      21.349   0.804  49.674  1.00  0.00     0.007 C 
HETATM   15  C20 UNL     1      21.801  -0.427  51.583  1.00  0.00     0.046 C 
BRANCH  14  16
HETATM   16  C3  UNL     1      20.858   1.902  48.852  1.00  0.00     0.032 C 
HETATM   17  C2  UNL     1      21.362   2.516  47.818  1.00  0.00     0.039 C 
HETATM   18  C1  UNL     1      20.835   3.631  47.005  1.00  0.00     0.076 C 
BRANCH  17  19
HETATM   19  O1  UNL     1      22.612   2.091  47.353  1.00  0.00    -0.365 OA
HETATM   20  H4  UNL     1      23.305   2.781  47.161  1.00  0.00     0.217 HD
ENDBRANCH  17  19
ENDBRANCH  14  16
ENDBRANCH   7   8
ENDBRANCH   1   7
BRANCH   6  21
HETATM   21  N4  UNL     1      24.769   1.276  51.639  1.00  0.00    -0.340 N 
HETATM   22  H17 UNL     1      24.691   0.660  50.773  1.00  0.00     0.167 HD
BRANCH  21  23
HETATM   23  C14 UNL     1      24.314   2.618  51.568  1.00  0.00     0.035 A 
HETATM   24  C15 UNL     1      23.969   3.402  52.639  1.00  0.00     0.029 A 
HETATM   25  C16 UNL     1      23.533   4.706  52.543  1.00  0.00     0.004 A 
HETATM   26  C17 UNL     1      23.428   5.287  51.297  1.00  0.00     0.024 A 
HETATM   27  C18 UNL     1      23.765   4.533  50.194  1.00  0.00     0.036 A 
HETATM   28 CL1  UNL     1      23.633   5.271  48.603  1.00  0.00    -0.084 Cl
HETATM   29  C19 UNL     1      24.196   3.231  50.339  1.00  0.00     0.053 A 
ENDBRANCH  21  23
ENDBRANCH   6  21
TORSDOF 6
ENDMDL
MODEL 8
REMARK VINA RESULT:      -8.0      3.564      6.008
REMARK  6 active torsions:
REMARK  status: ('A' for Active; 'I' for Inactive)
REMARK    1  A    between atoms: C2_2  and  O1_3 
REMARK    2  A    between atoms: C3_4  and  C4_5 
REMARK    3  A    between atoms: C8_10  and  C9_11 
REMARK    4  A    between atoms: C9_11  and  C10_12 
REMARK    5  A    between atoms: C13_17  and  N4_18 
REMARK    6  A    between atoms: N4_18  and  C14_19 
ROOT
HETATM    1  C10 UNL     1      25.366   1.900  52.154  1.00  0.00     0.004 A 
HETATM    2  C11 UNL     1      25.530   1.580  53.609  1.00  0.00     0.192 A 
HETATM    3  N2  UNL     1      26.862   1.850  54.010  1.00  0.00    -0.278 NA
HETATM    4  C12 UNL     1      27.856   2.279  53.354  1.00  0.00     0.229 A 
HETATM    5  N3  UNL     1      27.729   2.577  51.971  1.00  0.00    -0.224 NA
HETATM    6  C13 UNL     1      26.561   2.391  51.433  1.00  0.00     0.137 A 
ENDROOT
BRANCH   1   7
HETATM    7  C9  UNL     1      24.204   1.758  51.523  1.00  0.00    -0.007 C 
BRANCH   7   8
HETATM    8  C8  UNL     1      22.773   1.769  51.244  1.00  0.00     0.041 C 
HETATM    9  C7  UNL     1      22.024   2.899  51.912  1.00  0.00     0.278 C 
HETATM   10  N1  UNL     1      22.321   4.179  51.359  1.00  0.00     0.087 N 
HETATM   11  C6  UNL     1      21.830   4.313  50.023  1.00  0.00     0.303 C 
HETATM   12  H9  UNL     1      23.316   4.409  51.390  1.00  0.00     0.316 HD
HETATM   13  C5  UNL     1      22.103   3.075  49.254  1.00  0.00    -0.051 C 
HETATM   14  C4  UNL     1      22.012   3.074  47.938  1.00  0.00     0.007 C 
HETATM   15  C20 UNL     1      22.495   1.720  49.754  1.00  0.00     0.046 C 
BRANCH  14  16
HETATM   16  C3  UNL     1      21.642   4.275  47.201  1.00  0.00     0.032 C 
HETATM   17  C2  UNL     1      21.678   4.571  45.932  1.00  0.00     0.039 C 
HETATM   18  C1  UNL     1      21.293   5.805  45.216  1.00  0.00     0.076 C 
BRANCH  17  19
HETATM   19  O1  UNL     1      22.150   3.594  45.048  1.00  0.00    -0.365 OA
HETATM   20  H4  UNL     1      21.497   2.938  44.676  1.00  0.00     0.217 HD
ENDBRANCH  17  19
ENDBRANCH  14  16
ENDBRANCH   7   8
ENDBRANCH   1   7
BRANCH   6  21
HETATM   21  N4  UNL     1      26.492   2.683  50.058  1.00  0.00    -0.340 N 
HETATM   22  H17 UNL     1      26.394   1.833  49.423  1.00  0.00     0.167 HD
BRANCH  21  23
HETATM   23  C14 UNL     1      26.540   3.974  49.473  1.00  0.00     0.035 A 
HETATM   24  C15 UNL     1      27.651   4.562  48.925  1.00  0.00     0.029 A 
HETATM   25  C16 UNL     1      27.670   5.818  48.358  1.00  0.00     0.004 A 
HETATM   26  C17 UNL     1      26.506   6.555  48.324  1.00  0.00     0.024 A 
HETATM   27  C18 UNL     1      25.366   6.000  48.863  1.00  0.00     0.036 A 
HETATM   28 CL1  UNL     1      23.878   6.938  48.822  1.00  0.00    -0.084 Cl
HETATM   29  C19 UNL     1      25.395   4.740  49.421  1.00  0.00     0.053 A 
ENDBRANCH  21  23
ENDBRANCH   6  21
TORSDOF 6
ENDMDL
MODEL 9
REMARK VINA RESULT:      -7.9      3.072      4.883
REMARK  6 active torsions:
REMARK  status: ('A' for Active; 'I' for Inactive)
REMARK    1  A    between atoms: C2_2  and  O1_3 
REMARK    2  A    between atoms: C3_4  and  C4_5 
REMARK    3  A    between atoms: C8_10  and  C9_11 
REMARK    4  A    between atoms: C9_11  and  C10_12 
REMARK    5  A    between atoms: C13_17  and  N4_18 
REMARK    6  A    between atoms: N4_18  and  C14_19 
ROOT
HETATM    1  C10 UNL     1      21.728   1.321  51.416  1.00  0.00     0.004 A 
HETATM    2  C11 UNL     1      20.440   0.566  51.277  1.00  0.00     0.192 A 
HETATM    3  N2  UNL     1      20.076   0.011  52.529  1.00  0.00    -0.278 NA
HETATM    4  C12 UNL     1      20.652   0.052  53.655  1.00  0.00     0.229 A 
HETATM    5  N3  UNL     1      21.879   0.750  53.809  1.00  0.00    -0.224 NA
HETATM    6  C13 UNL     1      22.363   1.332  52.752  1.00  0.00     0.137 A 
ENDROOT
BRANCH   1   7
HETATM    7  C9  UNL     1      22.288   1.962  50.394  1.00  0.00    -0.007 C 
BRANCH   7   8
HETATM    8  C8  UNL     1      23.091   2.236  49.208  1.00  0.00     0.041 C 
HETATM    9  C7  UNL     1      22.371   3.037  48.148  1.00  0.00     0.278 C 
HETATM   10  N1  UNL     1      22.143   4.393  48.522  1.00  0.00     0.087 N 
HETATM   11  C6  UNL     1      23.361   5.138  48.610  1.00  0.00     0.303 C 
HETATM   12  H9  UNL     1      21.614   4.487  49.391  1.00  0.00     0.316 HD
HETATM   13  C5  UNL     1      24.402   4.330  49.290  1.00  0.00    -0.051 C 
HETATM   14  C4  UNL     1      25.500   4.905  49.745  1.00  0.00     0.007 C 
HETATM   15  C20 UNL     1      24.425   2.860  49.569  1.00  0.00     0.046 C 
BRANCH  14  16
HETATM   16  C3  UNL     1      25.725   6.337  49.596  1.00  0.00     0.032 C 
HETATM   17  C2  UNL     1      25.523   7.343  50.399  1.00  0.00     0.039 C 
HETATM   18  C1  UNL     1      25.764   8.789  50.216  1.00  0.00     0.076 C 
BRANCH  17  19
HETATM   19  O1  UNL     1      24.989   7.071  51.665  1.00  0.00    -0.365 OA
HETATM   20  H4  UNL     1      25.303   6.255  52.145  1.00  0.00     0.217 HD
ENDBRANCH  17  19
ENDBRANCH  14  16
ENDBRANCH   7   8
ENDBRANCH   1   7
BRANCH   6  21
HETATM   21  N4  UNL     1      23.588   1.993  52.953  1.00  0.00    -0.340 N 
HETATM   22  H17 UNL     1      23.507   3.034  53.165  1.00  0.00     0.167 HD
BRANCH  21  23
HETATM   23  C14 UNL     1      24.877   1.403  52.898  1.00  0.00     0.035 A 
HETATM   24  C15 UNL     1      25.155   0.127  52.481  1.00  0.00     0.029 A 
HETATM   25  C16 UNL     1      26.418  -0.421  52.433  1.00  0.00     0.004 A 
HETATM   26  C17 UNL     1      27.496   0.345  52.824  1.00  0.00     0.024 A 
HETATM   27  C18 UNL     1      27.260   1.634  53.249  1.00  0.00     0.036 A 
HETATM   28 CL1  UNL     1      28.632   2.615  53.749  1.00  0.00    -0.084 Cl
HETATM   29  C19 UNL     1      25.978   2.140  53.281  1.00  0.00     0.053 A 
ENDBRANCH  21  23
ENDBRANCH   6  21
TORSDOF 6
ENDMDL
