MODEL 1
REMARK VINA RESULT:      -6.2      0.000      0.000
REMARK  12 active torsions:
REMARK  status: ('A' for Active; 'I' for Inactive)
REMARK    1  A    between atoms: N1_2  and  C3_4 
REMARK    2  A    between atoms: C3_4  and  C4_5 
REMARK    3  A    between atoms: C4_5  and  N2_6 
REMARK    4  A    between atoms: N2_6  and  C6_8 
REMARK    5  A    between atoms: C6_8  and  C7_9 
REMARK    6  A    between atoms: C7_9  and  N3_10 
REMARK       I    between atoms: N3_10  and  C8_11 
REMARK    7  A    between atoms: C8_11  and  C9_13 
REMARK    8  A    between atoms: C9_13  and  C10_14 
REMARK    9  A    between atoms: C10_14  and  C11_15 
REMARK   10  A    between atoms: C11_15  and  N4_16 
REMARK   11  A    between atoms: N4_16  and  C12_17 
REMARK   12  A    between atoms: C12_17  and  N5_18 
ROOT
HETATM    1  N3  UNL     1      27.833   4.943  48.647  1.00  0.00    -0.360 N 
HETATM    2  C8  UNL     1      26.540   5.018  49.197  1.00  0.00     0.217 C 
HETATM    3  O1  UNL     1      25.954   6.103  49.396  1.00  0.00    -0.274 OA
HETATM    4  H18 UNL     1      28.164   3.936  48.556  1.00  0.00     0.162 HD
ENDROOT
BRANCH   2   5
HETATM    5  C9  UNL     1      25.719   3.873  49.607  1.00  0.00     0.104 C 
BRANCH   5   6
HETATM    6  C10 UNL     1      26.464   2.927  50.522  1.00  0.00     0.028 C 
BRANCH   6   7
HETATM    7  C11 UNL     1      25.458   2.294  51.494  1.00  0.00     0.116 C 
BRANCH   7   8
HETATM    8  N4  UNL     1      25.658   2.890  52.768  1.00  0.00    -0.404 N 
HETATM    9  H25 UNL     1      25.915   3.876  52.808  1.00  0.00     0.154 HD
BRANCH   8  10
HETATM   10  C12 UNL     1      26.040   2.042  53.837  1.00  0.00     0.265 C 
BRANCH  10  11
HETATM   11  N5  UNL     1      27.467   1.844  53.994  1.00  0.00    -0.271 NA
HETATM   12  C13 UNL     1      28.017   0.711  53.721  1.00  0.00     0.053 A 
HETATM   13  C14 UNL     1      29.481   0.611  53.914  1.00  0.00     0.031 A 
HETATM   14  C17 UNL     1      27.595  -0.622  53.243  1.00  0.00     0.031 A 
HETATM   15  C15 UNL     1      29.854  -0.622  53.588  1.00  0.00     0.002 A 
HETATM   16  C16 UNL     1      28.672  -1.399  53.166  1.00  0.00     0.002 A 
ENDBRANCH  10  11
ENDBRANCH   8  10
ENDBRANCH   7   8
ENDBRANCH   6   7
ENDBRANCH   5   6
ENDBRANCH   2   5
BRANCH   1  17
HETATM   17  C7  UNL     1      28.645   6.073  48.242  1.00  0.00     0.142 C 
BRANCH  17  18
HETATM   18  C6  UNL     1      30.055   5.586  48.000  1.00  0.00     0.136 C 
BRANCH  18  19
HETATM   19  N2  UNL     1      30.978   6.627  48.285  1.00  0.00    -0.413 N 
HETATM   20  C5  UNL     1      30.355   7.812  48.744  1.00  0.00     0.143 C 
BRANCH  19  21
HETATM   21  C4  UNL     1      32.219   6.265  48.859  1.00  0.00     0.146 C 
BRANCH  21  22
HETATM   22  C3  UNL     1      33.275   5.814  47.879  1.00  0.00     0.290 C 
BRANCH  22  23
HETATM   23  N1  UNL     1      34.350   5.109  48.504  1.00  0.00     0.081 N 
HETATM   24  C1  UNL     1      35.439   5.916  48.962  1.00  0.00     0.309 C 
HETATM   25  C2  UNL     1      34.805   3.943  47.813  1.00  0.00     0.309 C 
ENDBRANCH  22  23
ENDBRANCH  21  22
ENDBRANCH  19  21
ENDBRANCH  18  19
ENDBRANCH  17  18
ENDBRANCH   1  17
TORSDOF 12
ENDMDL
MODEL 2
REMARK VINA RESULT:      -6.2      5.267      7.580
REMARK  12 active torsions:
REMARK  status: ('A' for Active; 'I' for Inactive)
REMARK    1  A    between atoms: N1_2  and  C3_4 
REMARK    2  A    between atoms: C3_4  and  C4_5 
REMARK    3  A    between atoms: C4_5  and  N2_6 
REMARK    4  A    between atoms: N2_6  and  C6_8 
REMARK    5  A    between atoms: C6_8  and  C7_9 
REMARK    6  A    between atoms: C7_9  and  N3_10 
REMARK       I    between atoms: N3_10  and  C8_11 
REMARK    7  A    between atoms: C8_11  and  C9_13 
REMARK    8  A    between atoms: C9_13  and  C10_14 
REMARK    9  A    between atoms: C10_14  and  C11_15 
REMARK   10  A    between atoms: C11_15  and  N4_16 
REMARK   11  A    between atoms: N4_16  and  C12_17 
REMARK   12  A    between atoms: C12_17  and  N5_18 
ROOT
HETATM    1  N3  UNL     1      25.559   2.591  52.862  1.00  0.00    -0.360 N 
HETATM    2  C8  UNL     1      26.942   2.425  52.657  1.00  0.00     0.217 C 
HETATM    3  O1  UNL     1      27.479   2.572  51.539  1.00  0.00    -0.274 OA
HETATM    4  H18 UNL     1      25.291   2.422  53.878  1.00  0.00     0.162 HD
ENDROOT
BRANCH   2   5
HETATM    5  C9  UNL     1      27.921   2.065  53.688  1.00  0.00     0.104 C 
BRANCH   5   6
HETATM    6  C10 UNL     1      28.586   0.735  53.414  1.00  0.00     0.028 C 
BRANCH   6   7
HETATM    7  C11 UNL     1      27.533  -0.374  53.554  1.00  0.00     0.116 C 
BRANCH   7   8
HETATM    8  N4  UNL     1      27.002  -0.301  54.869  1.00  0.00    -0.404 N 
HETATM    9  H25 UNL     1      27.643  -0.393  55.656  1.00  0.00     0.154 HD
BRANCH   8  10
HETATM   10  C12 UNL     1      25.643  -0.661  55.050  1.00  0.00     0.265 C 
BRANCH  10  11
HETATM   11  N5  UNL     1      24.755  -0.304  53.962  1.00  0.00    -0.271 NA
HETATM   12  C13 UNL     1      23.491  -0.545  54.026  1.00  0.00     0.053 A 
HETATM   13  C14 UNL     1      22.670  -0.142  52.863  1.00  0.00     0.031 A 
HETATM   14  C17 UNL     1      22.541  -1.154  54.981  1.00  0.00     0.031 A 
HETATM   15  C15 UNL     1      21.408  -0.475  53.116  1.00  0.00     0.002 A 
HETATM   16  C16 UNL     1      21.325  -1.111  54.445  1.00  0.00     0.002 A 
ENDBRANCH  10  11
ENDBRANCH   8  10
ENDBRANCH   7   8
ENDBRANCH   6   7
ENDBRANCH   5   6
ENDBRANCH   2   5
BRANCH   1  17
HETATM   17  C7  UNL     1      24.591   2.945  51.844  1.00  0.00     0.142 C 
BRANCH  17  18
HETATM   18  C6  UNL     1      23.358   3.489  52.527  1.00  0.00     0.136 C 
BRANCH  18  19
HETATM   19  N2  UNL     1      22.245   3.398  51.650  1.00  0.00    -0.413 N 
HETATM   20  C5  UNL     1      21.001   3.492  52.317  1.00  0.00     0.143 C 
BRANCH  19  21
HETATM   21  C4  UNL     1      22.362   4.003  50.376  1.00  0.00     0.146 C 
BRANCH  21  22
HETATM   22  C3  UNL     1      22.268   5.510  50.367  1.00  0.00     0.290 C 
BRANCH  22  23
HETATM   23  N1  UNL     1      23.475   6.140  49.933  1.00  0.00     0.081 N 
HETATM   24  C1  UNL     1      24.282   5.380  49.029  1.00  0.00     0.309 C 
HETATM   25  C2  UNL     1      24.257   6.749  50.963  1.00  0.00     0.309 C 
ENDBRANCH  22  23
ENDBRANCH  21  22
ENDBRANCH  19  21
ENDBRANCH  18  19
ENDBRANCH  17  18
ENDBRANCH   1  17
TORSDOF 12
ENDMDL
MODEL 3
REMARK VINA RESULT:      -6.2      1.539      7.761
REMARK  12 active torsions:
REMARK  status: ('A' for Active; 'I' for Inactive)
REMARK    1  A    between atoms: N1_2  and  C3_4 
REMARK    2  A    between atoms: C3_4  and  C4_5 
REMARK    3  A    between atoms: C4_5  and  N2_6 
REMARK    4  A    between atoms: N2_6  and  C6_8 
REMARK    5  A    between atoms: C6_8  and  C7_9 
REMARK    6  A    between atoms: C7_9  and  N3_10 
REMARK       I    between atoms: N3_10  and  C8_11 
REMARK    7  A    between atoms: C8_11  and  C9_13 
REMARK    8  A    between atoms: C9_13  and  C10_14 
REMARK    9  A    between atoms: C10_14  and  C11_15 
REMARK   10  A    between atoms: C11_15  and  N4_16 
REMARK   11  A    between atoms: N4_16  and  C12_17 
REMARK   12  A    between atoms: C12_17  and  N5_18 
ROOT
HETATM    1  N3  UNL     1      26.039   3.438  51.212  1.00  0.00    -0.360 N 
HETATM    2  C8  UNL     1      25.990   3.995  49.920  1.00  0.00     0.217 C 
HETATM    3  O1  UNL     1      24.925   4.112  49.277  1.00  0.00    -0.274 OA
HETATM    4  H18 UNL     1      27.031   3.421  51.595  1.00  0.00     0.162 HD
ENDROOT
BRANCH   2   5
HETATM    5  C9  UNL     1      27.141   4.500  49.164  1.00  0.00     0.104 C 
BRANCH   5   6
HETATM    6  C10 UNL     1      26.866   5.840  48.520  1.00  0.00     0.028 C 
BRANCH   6   7
HETATM    7  C11 UNL     1      28.201   6.571  48.322  1.00  0.00     0.116 C 
BRANCH   7   8
HETATM    8  N4  UNL     1      29.240   5.680  48.706  1.00  0.00    -0.404 N 
HETATM    9  H25 UNL     1      29.223   5.292  49.647  1.00  0.00     0.154 HD
BRANCH   8  10
HETATM   10  C12 UNL     1      30.485   5.797  48.038  1.00  0.00     0.265 C 
BRANCH  10  11
HETATM   11  N5  UNL     1      31.158   4.546  47.754  1.00  0.00    -0.271 NA
HETATM   12  C13 UNL     1      32.437   4.434  47.871  1.00  0.00     0.053 A 
HETATM   13  C14 UNL     1      33.027   3.115  47.557  1.00  0.00     0.031 A 
HETATM   14  C17 UNL     1      33.579   5.293  48.247  1.00  0.00     0.031 A 
HETATM   15  C15 UNL     1      34.342   3.202  47.731  1.00  0.00     0.002 A 
HETATM   16  C16 UNL     1      34.691   4.568  48.165  1.00  0.00     0.002 A 
ENDBRANCH  10  11
ENDBRANCH   8  10
ENDBRANCH   7   8
ENDBRANCH   6   7
ENDBRANCH   5   6
ENDBRANCH   2   5
BRANCH   1  17
HETATM   17  C7  UNL     1      24.903   2.939  51.959  1.00  0.00     0.142 C 
BRANCH  17  18
HETATM   18  C6  UNL     1      24.744   1.466  51.660  1.00  0.00     0.136 C 
BRANCH  18  19
HETATM   19  N2  UNL     1      24.833   0.720  52.864  1.00  0.00    -0.413 N 
HETATM   20  C5  UNL     1      23.630   0.053  53.197  1.00  0.00     0.143 C 
BRANCH  19  21
HETATM   21  C4  UNL     1      26.054   0.060  53.139  1.00  0.00     0.146 C 
BRANCH  21  22
HETATM   22  C3  UNL     1      26.966   0.770  54.110  1.00  0.00     0.290 C 
BRANCH  22  23
HETATM   23  N1  UNL     1      28.254   1.053  53.560  1.00  0.00     0.081 N 
HETATM   24  C1  UNL     1      29.312   0.184  53.976  1.00  0.00     0.309 C 
HETATM   25  C2  UNL     1      28.649   2.427  53.592  1.00  0.00     0.309 C 
ENDBRANCH  22  23
ENDBRANCH  21  22
ENDBRANCH  19  21
ENDBRANCH  18  19
ENDBRANCH  17  18
ENDBRANCH   1  17
TORSDOF 12
ENDMDL
MODEL 4
REMARK VINA RESULT:      -6.1      4.683      7.533
REMARK  12 active torsions:
REMARK  status: ('A' for Active; 'I' for Inactive)
REMARK    1  A    between atoms: N1_2  and  C3_4 
REMARK    2  A    between atoms: C3_4  and  C4_5 
REMARK    3  A    between atoms: C4_5  and  N2_6 
REMARK    4  A    between atoms: N2_6  and  C6_8 
REMARK    5  A    between atoms: C6_8  and  C7_9 
REMARK    6  A    between atoms: C7_9  and  N3_10 
REMARK       I    between atoms: N3_10  and  C8_11 
REMARK    7  A    between atoms: C8_11  and  C9_13 
REMARK    8  A    between atoms: C9_13  and  C10_14 
REMARK    9  A    between atoms: C10_14  and  C11_15 
REMARK   10  A    between atoms: C11_15  and  N4_16 
REMARK   11  A    between atoms: N4_16  and  C12_17 
REMARK   12  A    between atoms: C12_17  and  N5_18 
ROOT
HETATM    1  N3  UNL     1      26.824   3.518  50.884  1.00  0.00    -0.360 N 
HETATM    2  C8  UNL     1      26.842   2.313  51.611  1.00  0.00     0.217 C 
HETATM    3  O1  UNL     1      26.290   1.270  51.201  1.00  0.00    -0.274 OA
HETATM    4  H18 UNL     1      27.344   4.292  51.395  1.00  0.00     0.162 HD
ENDROOT
BRANCH   2   5
HETATM    5  C9  UNL     1      27.486   2.111  52.914  1.00  0.00     0.104 C 
BRANCH   5   6
HETATM    6  C10 UNL     1      27.816   0.658  53.175  1.00  0.00     0.028 C 
BRANCH   6   7
HETATM    7  C11 UNL     1      27.973   0.458  54.689  1.00  0.00     0.116 C 
BRANCH   7   8
HETATM    8  N4  UNL     1      26.871  -0.317  55.138  1.00  0.00    -0.404 N 
HETATM    9  H25 UNL     1      27.030  -1.011  55.867  1.00  0.00     0.154 HD
BRANCH   8  10
HETATM   10  C12 UNL     1      25.793  -0.511  54.236  1.00  0.00     0.265 C 
BRANCH  10  11
HETATM   11  N5  UNL     1      24.541  -0.914  54.842  1.00  0.00    -0.271 NA
HETATM   12  C13 UNL     1      23.417  -0.727  54.238  1.00  0.00     0.053 A 
HETATM   13  C14 UNL     1      22.194  -1.174  54.941  1.00  0.00     0.031 A 
HETATM   14  C17 UNL     1      22.945  -0.153  52.960  1.00  0.00     0.031 A 
HETATM   15  C15 UNL     1      21.151  -0.894  54.167  1.00  0.00     0.002 A 
HETATM   16  C16 UNL     1      21.619  -0.253  52.923  1.00  0.00     0.002 A 
ENDBRANCH  10  11
ENDBRANCH   8  10
ENDBRANCH   7   8
ENDBRANCH   6   7
ENDBRANCH   5   6
ENDBRANCH   2   5
BRANCH   1  17
HETATM   17  C7  UNL     1      26.188   3.718  49.598  1.00  0.00     0.142 C 
BRANCH  17  18
HETATM   18  C6  UNL     1      24.755   4.136  49.835  1.00  0.00     0.136 C 
BRANCH  18  19
HETATM   19  N2  UNL     1      24.721   5.258  50.706  1.00  0.00    -0.413 N 
HETATM   20  C5  UNL     1      25.105   6.464  50.075  1.00  0.00     0.143 C 
BRANCH  19  21
HETATM   21  C4  UNL     1      23.682   5.312  51.665  1.00  0.00     0.146 C 
BRANCH  21  22
HETATM   22  C3  UNL     1      22.973   4.005  51.924  1.00  0.00     0.290 C 
BRANCH  22  23
HETATM   23  N1  UNL     1      21.615   4.011  51.482  1.00  0.00     0.081 N 
HETATM   24  C1  UNL     1      21.105   5.280  51.060  1.00  0.00     0.309 C 
HETATM   25  C2  UNL     1      20.690   3.318  52.324  1.00  0.00     0.309 C 
ENDBRANCH  22  23
ENDBRANCH  21  22
ENDBRANCH  19  21
ENDBRANCH  18  19
ENDBRANCH  17  18
ENDBRANCH   1  17
TORSDOF 12
ENDMDL
MODEL 5
REMARK VINA RESULT:      -6.0      5.549      8.261
REMARK  12 active torsions:
REMARK  status: ('A' for Active; 'I' for Inactive)
REMARK    1  A    between atoms: N1_2  and  C3_4 
REMARK    2  A    between atoms: C3_4  and  C4_5 
REMARK    3  A    between atoms: C4_5  and  N2_6 
REMARK    4  A    between atoms: N2_6  and  C6_8 
REMARK    5  A    between atoms: C6_8  and  C7_9 
REMARK    6  A    between atoms: C7_9  and  N3_10 
REMARK       I    between atoms: N3_10  and  C8_11 
REMARK    7  A    between atoms: C8_11  and  C9_13 
REMARK    8  A    between atoms: C9_13  and  C10_14 
REMARK    9  A    between atoms: C10_14  and  C11_15 
REMARK   10  A    between atoms: C11_15  and  N4_16 
REMARK   11  A    between atoms: N4_16  and  C12_17 
REMARK   12  A    between atoms: C12_17  and  N5_18 
ROOT
HETATM    1  N3  UNL     1      25.210   2.346  52.467  1.00  0.00    -0.360 N 
HETATM    2  C8  UNL     1      26.612   2.347  52.339  1.00  0.00     0.217 C 
HETATM    3  O1  UNL     1      27.189   2.592  51.258  1.00  0.00    -0.274 OA
HETATM    4  H18 UNL     1      24.907   2.113  53.460  1.00  0.00     0.162 HD
ENDROOT
BRANCH   2   5
HETATM    5  C9  UNL     1      27.568   2.068  53.416  1.00  0.00     0.104 C 
BRANCH   5   6
HETATM    6  C10 UNL     1      28.342   0.789  53.183  1.00  0.00     0.028 C 
BRANCH   6   7
HETATM    7  C11 UNL     1      27.399  -0.401  53.409  1.00  0.00     0.116 C 
BRANCH   7   8
HETATM    8  N4  UNL     1      26.920  -0.323  54.744  1.00  0.00    -0.404 N 
HETATM    9  H25 UNL     1      27.590  -0.409  55.506  1.00  0.00     0.154 HD
BRANCH   8  10
HETATM   10  C12 UNL     1      25.569  -0.685  54.979  1.00  0.00     0.265 C 
BRANCH  10  11
HETATM   11  N5  UNL     1      24.648  -0.384  53.902  1.00  0.00    -0.271 NA
HETATM   12  C13 UNL     1      23.388  -0.635  54.012  1.00  0.00     0.053 A 
HETATM   13  C14 UNL     1      22.532  -0.290  52.856  1.00  0.00     0.031 A 
HETATM   14  C17 UNL     1      22.472  -1.211  55.019  1.00  0.00     0.031 A 
HETATM   15  C15 UNL     1      21.281  -0.625  53.158  1.00  0.00     0.002 A 
HETATM   16  C16 UNL     1      21.241  -1.203  54.515  1.00  0.00     0.002 A 
ENDBRANCH  10  11
ENDBRANCH   8  10
ENDBRANCH   7   8
ENDBRANCH   6   7
ENDBRANCH   5   6
ENDBRANCH   2   5
BRANCH   1  17
HETATM   17  C7  UNL     1      24.265   2.620  51.404  1.00  0.00     0.142 C 
BRANCH  17  18
HETATM   18  C6  UNL     1      23.855   4.072  51.494  1.00  0.00     0.136 C 
BRANCH  18  19
HETATM   19  N2  UNL     1      22.454   4.162  51.713  1.00  0.00    -0.413 N 
HETATM   20  C5  UNL     1      21.917   5.426  51.374  1.00  0.00     0.143 C 
BRANCH  19  21
HETATM   21  C4  UNL     1      21.672   3.014  51.440  1.00  0.00     0.146 C 
BRANCH  21  22
HETATM   22  C3  UNL     1      20.665   3.170  50.328  1.00  0.00     0.290 C 
BRANCH  22  23
HETATM   23  N1  UNL     1      21.062   2.515  49.121  1.00  0.00     0.081 N 
HETATM   24  C1  UNL     1      20.194   2.704  47.998  1.00  0.00     0.309 C 
HETATM   25  C2  UNL     1      21.460   1.150  49.263  1.00  0.00     0.309 C 
ENDBRANCH  22  23
ENDBRANCH  21  22
ENDBRANCH  19  21
ENDBRANCH  18  19
ENDBRANCH  17  18
ENDBRANCH   1  17
TORSDOF 12
ENDMDL
MODEL 6
REMARK VINA RESULT:      -6.0      1.779      2.488
REMARK  12 active torsions:
REMARK  status: ('A' for Active; 'I' for Inactive)
REMARK    1  A    between atoms: N1_2  and  C3_4 
REMARK    2  A    between atoms: C3_4  and  C4_5 
REMARK    3  A    between atoms: C4_5  and  N2_6 
REMARK    4  A    between atoms: N2_6  and  C6_8 
REMARK    5  A    between atoms: C6_8  and  C7_9 
REMARK    6  A    between atoms: C7_9  and  N3_10 
REMARK       I    between atoms: N3_10  and  C8_11 
REMARK    7  A    between atoms: C8_11  and  C9_13 
REMARK    8  A    between atoms: C9_13  and  C10_14 
REMARK    9  A    between atoms: C10_14  and  C11_15 
REMARK   10  A    between atoms: C11_15  and  N4_16 
REMARK   11  A    between atoms: N4_16  and  C12_17 
REMARK   12  A    between atoms: C12_17  and  N5_18 
ROOT
HETATM    1  N3  UNL     1      27.199   7.175  49.361  1.00  0.00    -0.360 N 
HETATM    2  C8  UNL     1      26.091   6.363  49.053  1.00  0.00     0.217 C 
HETATM    3  O1  UNL     1      25.243   6.680  48.192  1.00  0.00    -0.274 OA
HETATM    4  H18 UNL     1      27.806   6.739  50.118  1.00  0.00     0.162 HD
ENDROOT
BRANCH   2   5
HETATM    5  C9  UNL     1      25.779   5.072  49.675  1.00  0.00     0.104 C 
BRANCH   5   6
HETATM    6  C10 UNL     1      26.833   4.025  49.390  1.00  0.00     0.028 C 
BRANCH   6   7
HETATM    7  C11 UNL     1      26.506   2.768  50.209  1.00  0.00     0.116 C 
BRANCH   7   8
HETATM    8  N4  UNL     1      26.022   3.193  51.475  1.00  0.00    -0.404 N 
HETATM    9  H25 UNL     1      26.007   4.191  51.679  1.00  0.00     0.154 HD
BRANCH   8  10
HETATM   10  C12 UNL     1      26.113   2.278  52.554  1.00  0.00     0.265 C 
BRANCH  10  11
HETATM   11  N5  UNL     1      27.447   2.062  53.075  1.00  0.00    -0.271 NA
HETATM   12  C13 UNL     1      27.945   0.877  53.165  1.00  0.00     0.053 A 
HETATM   13  C14 UNL     1      29.316   0.764  53.710  1.00  0.00     0.031 A 
HETATM   14  C17 UNL     1      27.527  -0.510  52.871  1.00  0.00     0.031 A 
HETATM   15  C15 UNL     1      29.646  -0.524  53.727  1.00  0.00     0.002 A 
HETATM   16  C16 UNL     1      28.524  -1.326  53.200  1.00  0.00     0.002 A 
ENDBRANCH  10  11
ENDBRANCH   8  10
ENDBRANCH   7   8
ENDBRANCH   6   7
ENDBRANCH   5   6
ENDBRANCH   2   5
BRANCH   1  17
HETATM   17  C7  UNL     1      27.507   8.450  48.748  1.00  0.00     0.142 C 
BRANCH  17  18
HETATM   18  C6  UNL     1      28.405   9.226  49.684  1.00  0.00     0.136 C 
BRANCH  18  19
HETATM   19  N2  UNL     1      29.563   9.662  48.986  1.00  0.00    -0.413 N 
HETATM   20  C5  UNL     1      29.626  11.068  48.837  1.00  0.00     0.143 C 
BRANCH  19  21
HETATM   21  C4  UNL     1      30.772   8.965  49.220  1.00  0.00     0.146 C 
BRANCH  21  22
HETATM   22  C3  UNL     1      31.044   7.813  48.282  1.00  0.00     0.290 C 
BRANCH  22  23
HETATM   23  N1  UNL     1      30.768   6.540  48.869  1.00  0.00     0.081 N 
HETATM   24  C1  UNL     1      31.811   5.993  49.682  1.00  0.00     0.309 C 
HETATM   25  C2  UNL     1      30.212   5.562  47.987  1.00  0.00     0.309 C 
ENDBRANCH  22  23
ENDBRANCH  21  22
ENDBRANCH  19  21
ENDBRANCH  18  19
ENDBRANCH  17  18
ENDBRANCH   1  17
TORSDOF 12
ENDMDL
MODEL 7
REMARK VINA RESULT:      -5.9      1.824      3.380
REMARK  12 active torsions:
REMARK  status: ('A' for Active; 'I' for Inactive)
REMARK    1  A    between atoms: N1_2  and  C3_4 
REMARK    2  A    between atoms: C3_4  and  C4_5 
REMARK    3  A    between atoms: C4_5  and  N2_6 
REMARK    4  A    between atoms: N2_6  and  C6_8 
REMARK    5  A    between atoms: C6_8  and  C7_9 
REMARK    6  A    between atoms: C7_9  and  N3_10 
REMARK       I    between atoms: N3_10  and  C8_11 
REMARK    7  A    between atoms: C8_11  and  C9_13 
REMARK    8  A    between atoms: C9_13  and  C10_14 
REMARK    9  A    between atoms: C10_14  and  C11_15 
REMARK   10  A    between atoms: C11_15  and  N4_16 
REMARK   11  A    between atoms: N4_16  and  C12_17 
REMARK   12  A    between atoms: C12_17  and  N5_18 
ROOT
HETATM    1  N3  UNL     1      28.289   5.790  48.822  1.00  0.00    -0.360 N 
HETATM    2  C8  UNL     1      27.019   5.191  48.930  1.00  0.00     0.217 C 
HETATM    3  O1  UNL     1      25.965   5.789  48.629  1.00  0.00    -0.274 OA
HETATM    4  H18 UNL     1      29.063   5.127  49.126  1.00  0.00     0.162 HD
ENDROOT
BRANCH   2   5
HETATM    5  C9  UNL     1      26.757   3.825  49.398  1.00  0.00     0.104 C 
BRANCH   5   6
HETATM    6  C10 UNL     1      25.598   3.761  50.368  1.00  0.00     0.028 C 
BRANCH   6   7
HETATM    7  C11 UNL     1      25.709   2.460  51.175  1.00  0.00     0.116 C 
BRANCH   7   8
HETATM    8  N4  UNL     1      25.881   2.813  52.539  1.00  0.00    -0.404 N 
HETATM    9  H25 UNL     1      25.619   3.753  52.834  1.00  0.00     0.154 HD
BRANCH   8  10
HETATM   10  C12 UNL     1      26.872   2.119  53.278  1.00  0.00     0.265 C 
BRANCH  10  11
HETATM   11  N5  UNL     1      26.915   0.686  53.068  1.00  0.00    -0.271 NA
HETATM   12  C13 UNL     1      28.000   0.016  53.256  1.00  0.00     0.053 A 
HETATM   13  C14 UNL     1      27.939  -1.443  53.015  1.00  0.00     0.031 A 
HETATM   14  C17 UNL     1      29.393   0.285  53.668  1.00  0.00     0.031 A 
HETATM   15  C15 UNL     1      29.144  -1.949  53.256  1.00  0.00     0.002 A 
HETATM   16  C16 UNL     1      30.059  -0.867  53.667  1.00  0.00     0.002 A 
ENDBRANCH  10  11
ENDBRANCH   8  10
ENDBRANCH   7   8
ENDBRANCH   6   7
ENDBRANCH   5   6
ENDBRANCH   2   5
BRANCH   1  17
HETATM   17  C7  UNL     1      28.549   7.138  48.361  1.00  0.00     0.142 C 
BRANCH  17  18
HETATM   18  C6  UNL     1      30.012   7.244  47.996  1.00  0.00     0.136 C 
BRANCH  18  19
HETATM   19  N2  UNL     1      30.753   7.708  49.114  1.00  0.00    -0.413 N 
HETATM   20  C5  UNL     1      31.883   6.907  49.405  1.00  0.00     0.143 C 
BRANCH  19  21
HETATM   21  C4  UNL     1      30.869   9.107  49.291  1.00  0.00     0.146 C 
BRANCH  21  22
HETATM   22  C3  UNL     1      31.115   9.898  48.029  1.00  0.00     0.290 C 
BRANCH  22  23
HETATM   23  N1  UNL     1      30.389  11.128  47.991  1.00  0.00     0.081 N 
HETATM   24  C1  UNL     1      30.684  12.056  49.039  1.00  0.00     0.309 C 
HETATM   25  C2  UNL     1      28.982  11.005  47.769  1.00  0.00     0.309 C 
ENDBRANCH  22  23
ENDBRANCH  21  22
ENDBRANCH  19  21
ENDBRANCH  18  19
ENDBRANCH  17  18
ENDBRANCH   1  17
TORSDOF 12
ENDMDL
MODEL 8
REMARK VINA RESULT:      -5.9      2.143      3.299
REMARK  12 active torsions:
REMARK  status: ('A' for Active; 'I' for Inactive)
REMARK    1  A    between atoms: N1_2  and  C3_4 
REMARK    2  A    between atoms: C3_4  and  C4_5 
REMARK    3  A    between atoms: C4_5  and  N2_6 
REMARK    4  A    between atoms: N2_6  and  C6_8 
REMARK    5  A    between atoms: C6_8  and  C7_9 
REMARK    6  A    between atoms: C7_9  and  N3_10 
REMARK       I    between atoms: N3_10  and  C8_11 
REMARK    7  A    between atoms: C8_11  and  C9_13 
REMARK    8  A    between atoms: C9_13  and  C10_14 
REMARK    9  A    between atoms: C10_14  and  C11_15 
REMARK   10  A    between atoms: C11_15  and  N4_16 
REMARK   11  A    between atoms: N4_16  and  C12_17 
REMARK   12  A    between atoms: C12_17  and  N5_18 
ROOT
HETATM    1  N3  UNL     1      29.860   7.304  48.835  1.00  0.00    -0.360 N 
HETATM    2  C8  UNL     1      29.664   5.930  48.599  1.00  0.00     0.217 C 
HETATM    3  O1  UNL     1      30.601   5.105  48.609  1.00  0.00    -0.274 OA
HETATM    4  H18 UNL     1      28.946   7.846  48.784  1.00  0.00     0.162 HD
ENDROOT
BRANCH   2   5
HETATM    5  C9  UNL     1      28.376   5.288  48.315  1.00  0.00     0.104 C 
BRANCH   5   6
HETATM    6  C10 UNL     1      27.202   6.190  48.623  1.00  0.00     0.028 C 
BRANCH   6   7
HETATM    7  C11 UNL     1      26.119   5.359  49.327  1.00  0.00     0.116 C 
BRANCH   7   8
HETATM    8  N4  UNL     1      26.775   4.368  50.104  1.00  0.00    -0.404 N 
HETATM    9  H25 UNL     1      27.780   4.246  49.987  1.00  0.00     0.154 HD
BRANCH   8  10
HETATM   10  C12 UNL     1      26.003   3.268  50.555  1.00  0.00     0.265 C 
BRANCH  10  11
HETATM   11  N5  UNL     1      26.757   2.168  51.120  1.00  0.00    -0.271 NA
HETATM   12  C13 UNL     1      26.183   1.264  51.837  1.00  0.00     0.053 A 
HETATM   13  C14 UNL     1      27.041   0.182  52.367  1.00  0.00     0.031 A 
HETATM   14  C17 UNL     1      24.823   0.961  52.331  1.00  0.00     0.031 A 
HETATM   15  C15 UNL     1      26.274  -0.640  53.076  1.00  0.00     0.002 A 
HETATM   16  C16 UNL     1      24.881  -0.154  53.054  1.00  0.00     0.002 A 
ENDBRANCH  10  11
ENDBRANCH   8  10
ENDBRANCH   7   8
ENDBRANCH   6   7
ENDBRANCH   5   6
ENDBRANCH   2   5
BRANCH   1  17
HETATM   17  C7  UNL     1      31.132   7.939  49.116  1.00  0.00     0.142 C 
BRANCH  17  18
HETATM   18  C6  UNL     1      31.691   8.480  47.820  1.00  0.00     0.136 C 
BRANCH  18  19
HETATM   19  N2  UNL     1      32.825   7.718  47.432  1.00  0.00    -0.413 N 
HETATM   20  C5  UNL     1      33.722   7.471  48.498  1.00  0.00     0.143 C 
BRANCH  19  21
HETATM   21  C4  UNL     1      32.630   6.691  46.478  1.00  0.00     0.146 C 
BRANCH  21  22
HETATM   22  C3  UNL     1      33.891   6.051  45.951  1.00  0.00     0.290 C 
BRANCH  22  23
HETATM   23  N1  UNL     1      33.907   4.632  46.114  1.00  0.00     0.081 N 
HETATM   24  C1  UNL     1      35.026   3.953  45.536  1.00  0.00     0.309 C 
HETATM   25  C2  UNL     1      32.674   3.966  45.828  1.00  0.00     0.309 C 
ENDBRANCH  22  23
ENDBRANCH  21  22
ENDBRANCH  19  21
ENDBRANCH  18  19
ENDBRANCH  17  18
ENDBRANCH   1  17
TORSDOF 12
ENDMDL
MODEL 9
REMARK VINA RESULT:      -5.8      2.399      3.351
REMARK  12 active torsions:
REMARK  status: ('A' for Active; 'I' for Inactive)
REMARK    1  A    between atoms: N1_2  and  C3_4 
REMARK    2  A    between atoms: C3_4  and  C4_5 
REMARK    3  A    between atoms: C4_5  and  N2_6 
REMARK    4  A    between atoms: N2_6  and  C6_8 
REMARK    5  A    between atoms: C6_8  and  C7_9 
REMARK    6  A    between atoms: C7_9  and  N3_10 
REMARK       I    between atoms: N3_10  and  C8_11 
REMARK    7  A    between atoms: C8_11  and  C9_13 
REMARK    8  A    between atoms: C9_13  and  C10_14 
REMARK    9  A    between atoms: C10_14  and  C11_15 
REMARK   10  A    between atoms: C11_15  and  N4_16 
REMARK   11  A    between atoms: N4_16  and  C12_17 
REMARK   12  A    between atoms: C12_17  and  N5_18 
ROOT
HETATM    1  N3  UNL     1      28.815   6.877  48.873  1.00  0.00    -0.360 N 
HETATM    2  C8  UNL     1      27.500   6.719  48.396  1.00  0.00     0.217 C 
HETATM    3  O1  UNL     1      27.010   7.457  47.515  1.00  0.00    -0.274 OA
HETATM    4  H18 UNL     1      29.051   6.158  49.620  1.00  0.00     0.162 HD
ENDROOT
BRANCH   2   5
HETATM    5  C9  UNL     1      26.545   5.702  48.847  1.00  0.00     0.104 C 
BRANCH   5   6
HETATM    6  C10 UNL     1      27.178   4.335  48.981  1.00  0.00     0.028 C 
BRANCH   6   7
HETATM    7  C11 UNL     1      26.195   3.411  49.713  1.00  0.00     0.116 C 
BRANCH   7   8
HETATM    8  N4  UNL     1      26.643   3.282  51.055  1.00  0.00    -0.404 N 
HETATM    9  H25 UNL     1      27.601   3.551  51.274  1.00  0.00     0.154 HD
BRANCH   8  10
HETATM   10  C12 UNL     1      26.001   2.319  51.873  1.00  0.00     0.265 C 
BRANCH  10  11
HETATM   11  N5  UNL     1      24.624   2.030  51.529  1.00  0.00    -0.271 NA
HETATM   12  C13 UNL     1      23.954   1.126  52.159  1.00  0.00     0.053 A 
HETATM   13  C14 UNL     1      22.554   0.908  51.733  1.00  0.00     0.031 A 
HETATM   14  C17 UNL     1      24.181   0.166  53.259  1.00  0.00     0.031 A 
HETATM   15  C15 UNL     1      22.040  -0.055  52.491  1.00  0.00     0.002 A 
HETATM   16  C16 UNL     1      23.059  -0.523  53.450  1.00  0.00     0.002 A 
ENDBRANCH  10  11
ENDBRANCH   8  10
ENDBRANCH   7   8
ENDBRANCH   6   7
ENDBRANCH   5   6
ENDBRANCH   2   5
BRANCH   1  17
HETATM   17  C7  UNL     1      29.759   7.882  48.428  1.00  0.00     0.142 C 
BRANCH  17  18
HETATM   18  C6  UNL     1      30.820   7.204  47.592  1.00  0.00     0.136 C 
BRANCH  18  19
HETATM   19  N2  UNL     1      32.030   7.119  48.330  1.00  0.00    -0.413 N 
HETATM   20  C5  UNL     1      32.227   8.213  49.205  1.00  0.00     0.143 C 
BRANCH  19  21
HETATM   21  C4  UNL     1      32.444   5.838  48.767  1.00  0.00     0.146 C 
BRANCH  21  22
HETATM   22  C3  UNL     1      32.988   4.933  47.689  1.00  0.00     0.290 C 
BRANCH  22  23
HETATM   23  N1  UNL     1      34.401   4.737  47.786  1.00  0.00     0.081 N 
HETATM   24  C1  UNL     1      34.850   3.384  47.662  1.00  0.00     0.309 C 
HETATM   25  C2  UNL     1      35.043   5.415  48.869  1.00  0.00     0.309 C 
ENDBRANCH  22  23
ENDBRANCH  21  22
ENDBRANCH  19  21
ENDBRANCH  18  19
ENDBRANCH  17  18
ENDBRANCH   1  17
TORSDOF 12
ENDMDL
