MODEL 1
REMARK VINA RESULT:      -8.6      0.000      0.000
REMARK  8 active torsions:
REMARK  status: ('A' for Active; 'I' for Inactive)
REMARK    1  A    between atoms: C2_2  and  C3_3 
REMARK    2  A    between atoms: C4_4  and  C5_5 
REMARK    3  A    between atoms: C6_6  and  N1_7 
REMARK    4  A    between atoms: N1_7  and  C7_8 
REMARK    5  A    between atoms: C12_14  and  N3_15 
REMARK    6  A    between atoms: N3_15  and  C13_16 
REMARK    7  A    between atoms: C13_16  and  C14_17 
REMARK    8  A    between atoms: C17_20  and  O1_21 
ROOT
HETATM    1  C7  UNL     1      21.854   4.817  51.760  1.00  0.00     0.133 A 
HETATM    2  N2  UNL     1      20.657   4.385  51.536  1.00  0.00    -0.267 NA
HETATM    3  C8  UNL     1      20.533   2.973  51.841  1.00  0.00     0.190 A 
HETATM    4  C9  UNL     1      21.888   2.589  52.304  1.00  0.00    -0.024 A 
HETATM    5  C10 UNL     1      22.402   1.392  52.734  1.00  0.00     0.012 A 
HETATM    6  C11 UNL     1      23.731   1.348  53.108  1.00  0.00     0.030 A 
HETATM    7  C12 UNL     1      24.576   2.443  53.076  1.00  0.00     0.029 A 
HETATM    8  C20 UNL     1      24.033   3.637  52.639  1.00  0.00     0.045 A 
HETATM    9  C21 UNL     1      22.710   3.720  52.258  1.00  0.00     0.020 A 
ENDROOT
BRANCH   7  10
HETATM   10  N3  UNL     1      25.948   2.328  53.479  1.00  0.00    -0.386 N 
HETATM   11  H13 UNL     1      26.174   2.600  54.462  1.00  0.00     0.160 HD
BRANCH  10  12
HETATM   12  C13 UNL     1      26.849   1.842  52.447  1.00  0.00     0.158 C 
BRANCH  12  13
HETATM   13  C14 UNL     1      27.363   0.496  52.708  1.00  0.00    -0.040 A 
HETATM   14  C15 UNL     1      26.593  -0.565  52.278  1.00  0.00     0.011 A 
HETATM   15  C16 UNL     1      27.051  -1.848  52.509  1.00  0.00     0.037 A 
HETATM   16  C17 UNL     1      28.255  -2.130  53.157  1.00  0.00     0.065 A 
HETATM   17  C18 UNL     1      29.019  -1.042  53.585  1.00  0.00     0.037 A 
HETATM   18  C19 UNL     1      28.563   0.258  53.356  1.00  0.00     0.011 A 
BRANCH  16  19
HETATM   19  O1  UNL     1      28.718  -3.396  53.391  1.00  0.00    -0.361 OA
HETATM   20  H18 UNL     1      28.099  -4.144  53.687  1.00  0.00     0.217 HD
ENDBRANCH  16  19
ENDBRANCH  12  13
ENDBRANCH  10  12
ENDBRANCH   7  10
BRANCH   1  21
HETATM   21  N1  UNL     1      22.295   6.176  51.553  1.00  0.00    -0.350 N 
HETATM   22  H8  UNL     1      21.691   6.926  52.004  1.00  0.00     0.166 HD
BRANCH  21  23
HETATM   23  C6  UNL     1      23.473   6.362  50.776  1.00  0.00     0.090 C 
HETATM   24  C5  UNL     1      24.581   6.998  51.120  1.00  0.00     0.017 C 
BRANCH  24  25
HETATM   25  C4  UNL     1      25.690   7.089  50.190  1.00  0.00     0.001 C 
HETATM   26  C3  UNL     1      25.916   6.101  49.340  1.00  0.00    -0.001 C 
BRANCH  26  27
HETATM   27  C2  UNL     1      27.023   6.168  48.396  1.00  0.00    -0.010 C 
HETATM   28  C1  UNL     1      28.063   5.343  48.484  1.00  0.00     0.011 C 
ENDBRANCH  26  27
ENDBRANCH  24  25
ENDBRANCH  21  23
ENDBRANCH   1  21
TORSDOF 8
ENDMDL
MODEL 2
REMARK VINA RESULT:      -8.4      2.016      2.635
REMARK  8 active torsions:
REMARK  status: ('A' for Active; 'I' for Inactive)
REMARK    1  A    between atoms: C2_2  and  C3_3 
REMARK    2  A    between atoms: C4_4  and  C5_5 
REMARK    3  A    between atoms: C6_6  and  N1_7 
REMARK    4  A    between atoms: N1_7  and  C7_8 
REMARK    5  A    between atoms: C12_14  and  N3_15 
REMARK    6  A    between atoms: N3_15  and  C13_16 
REMARK    7  A    between atoms: C13_16  and  C14_17 
REMARK    8  A    between atoms: C17_20  and  O1_21 
ROOT
HETATM    1  C7  UNL     1      21.763   3.385  52.376  1.00  0.00     0.133 A 
HETATM    2  N2  UNL     1      20.506   3.410  52.077  1.00  0.00    -0.267 NA
HETATM    3  C8  UNL     1      19.929   2.079  52.085  1.00  0.00     0.190 A 
HETATM    4  C9  UNL     1      21.066   1.201  52.448  1.00  0.00    -0.024 A 
HETATM    5  C10 UNL     1      21.155  -0.158  52.616  1.00  0.00     0.012 A 
HETATM    6  C11 UNL     1      22.379  -0.695  52.963  1.00  0.00     0.030 A 
HETATM    7  C12 UNL     1      23.524   0.057  53.151  1.00  0.00     0.029 A 
HETATM    8  C20 UNL     1      23.409   1.424  52.976  1.00  0.00     0.045 A 
HETATM    9  C21 UNL     1      22.202   1.997  52.630  1.00  0.00     0.020 A 
ENDROOT
BRANCH   7  10
HETATM   10  N3  UNL     1      24.766  -0.565  53.511  1.00  0.00    -0.386 N 
HETATM   11  H13 UNL     1      24.775  -1.120  54.395  1.00  0.00     0.160 HD
BRANCH  10  12
HETATM   12  C13 UNL     1      25.857  -0.333  52.580  1.00  0.00     0.158 C 
BRANCH  12  13
HETATM   13  C14 UNL     1      26.961   0.437  53.156  1.00  0.00    -0.040 A 
HETATM   14  C15 UNL     1      27.746  -0.198  54.097  1.00  0.00     0.011 A 
HETATM   15  C16 UNL     1      28.797   0.501  54.659  1.00  0.00     0.037 A 
HETATM   16  C17 UNL     1      29.109   1.820  54.327  1.00  0.00     0.065 A 
HETATM   17  C18 UNL     1      28.303   2.445  53.373  1.00  0.00     0.037 A 
HETATM   18  C19 UNL     1      27.239   1.746  52.800  1.00  0.00     0.011 A 
BRANCH  16  19
HETATM   19  O1  UNL     1      30.147   2.522  54.877  1.00  0.00    -0.361 OA
HETATM   20  H18 UNL     1      30.816   2.082  55.501  1.00  0.00     0.217 HD
ENDBRANCH  16  19
ENDBRANCH  12  13
ENDBRANCH  10  12
ENDBRANCH   7  10
BRANCH   1  21
HETATM   21  N1  UNL     1      22.617   4.546  52.452  1.00  0.00    -0.350 N 
HETATM   22  H8  UNL     1      22.385   5.235  53.228  1.00  0.00     0.166 HD
BRANCH  21  23
HETATM   23  C6  UNL     1      23.663   4.642  51.492  1.00  0.00     0.090 C 
HETATM   24  C5  UNL     1      23.619   4.329  50.206  1.00  0.00     0.017 C 
BRANCH  24  25
HETATM   25  C4  UNL     1      24.794   4.494  49.373  1.00  0.00     0.001 C 
HETATM   26  C3  UNL     1      25.977   4.109  49.823  1.00  0.00    -0.001 C 
BRANCH  26  27
HETATM   27  C2  UNL     1      27.172   4.264  49.005  1.00  0.00    -0.010 C 
HETATM   28  C1  UNL     1      27.576   5.460  48.583  1.00  0.00     0.011 C 
ENDBRANCH  26  27
ENDBRANCH  24  25
ENDBRANCH  21  23
ENDBRANCH   1  21
TORSDOF 8
ENDMDL
MODEL 3
REMARK VINA RESULT:      -8.2      2.821      3.796
REMARK  8 active torsions:
REMARK  status: ('A' for Active; 'I' for Inactive)
REMARK    1  A    between atoms: C2_2  and  C3_3 
REMARK    2  A    between atoms: C4_4  and  C5_5 
REMARK    3  A    between atoms: C6_6  and  N1_7 
REMARK    4  A    between atoms: N1_7  and  C7_8 
REMARK    5  A    between atoms: C12_14  and  N3_15 
REMARK    6  A    between atoms: N3_15  and  C13_16 
REMARK    7  A    between atoms: C13_16  and  C14_17 
REMARK    8  A    between atoms: C17_20  and  O1_21 
ROOT
HETATM    1  C7  UNL     1      20.703   0.312  51.270  1.00  0.00     0.133 A 
HETATM    2  N2  UNL     1      19.450   0.238  51.579  1.00  0.00    -0.267 NA
HETATM    3  C8  UNL     1      19.262  -0.227  52.940  1.00  0.00     0.190 A 
HETATM    4  C9  UNL     1      20.643  -0.434  53.438  1.00  0.00    -0.024 A 
HETATM    5  C10 UNL     1      21.123  -0.862  54.650  1.00  0.00     0.012 A 
HETATM    6  C11 UNL     1      22.490  -0.954  54.816  1.00  0.00     0.030 A 
HETATM    7  C12 UNL     1      23.408  -0.639  53.830  1.00  0.00     0.029 A 
HETATM    8  C20 UNL     1      22.899  -0.209  52.619  1.00  0.00     0.045 A 
HETATM    9  C21 UNL     1      21.538  -0.104  52.415  1.00  0.00     0.020 A 
ENDROOT
BRANCH   7  10
HETATM   10  N3  UNL     1      24.818  -0.758  54.069  1.00  0.00    -0.386 N 
HETATM   11  H13 UNL     1      25.107  -1.124  55.003  1.00  0.00     0.160 HD
BRANCH  10  12
HETATM   12  C13 UNL     1      25.661  -0.345  52.959  1.00  0.00     0.158 C 
BRANCH  12  13
HETATM   13  C14 UNL     1      26.829   0.436  53.374  1.00  0.00    -0.040 A 
HETATM   14  C15 UNL     1      27.680  -0.145  54.291  1.00  0.00     0.011 A 
HETATM   15  C16 UNL     1      28.791   0.566  54.702  1.00  0.00     0.037 A 
HETATM   16  C17 UNL     1      29.101   1.845  54.239  1.00  0.00     0.065 A 
HETATM   17  C18 UNL     1      28.227   2.416  53.310  1.00  0.00     0.037 A 
HETATM   18  C19 UNL     1      27.101   1.705  52.890  1.00  0.00     0.011 A 
BRANCH  16  19
HETATM   19  O1  UNL     1      30.198   2.558  54.639  1.00  0.00    -0.361 OA
HETATM   20  H18 UNL     1      30.448   3.441  54.205  1.00  0.00     0.217 HD
ENDBRANCH  16  19
ENDBRANCH  12  13
ENDBRANCH  10  12
ENDBRANCH   7  10
BRANCH   1  21
HETATM   21  N1  UNL     1      21.214   0.739  49.990  1.00  0.00    -0.350 N 
HETATM   22  H8  UNL     1      20.763   0.283  49.142  1.00  0.00     0.166 HD
BRANCH  21  23
HETATM   23  C6  UNL     1      22.254   1.710  50.001  1.00  0.00     0.090 C 
HETATM   24  C5  UNL     1      22.151   3.009  50.233  1.00  0.00     0.017 C 
BRANCH  24  25
HETATM   25  C4  UNL     1      23.330   3.853  50.203  1.00  0.00     0.001 C 
HETATM   26  C3  UNL     1      24.529   3.302  50.109  1.00  0.00    -0.001 C 
BRANCH  26  27
HETATM   27  C2  UNL     1      25.728   4.127  50.076  1.00  0.00    -0.010 C 
HETATM   28  C1  UNL     1      26.826   3.734  49.435  1.00  0.00     0.011 C 
ENDBRANCH  26  27
ENDBRANCH  24  25
ENDBRANCH  21  23
ENDBRANCH   1  21
TORSDOF 8
ENDMDL
MODEL 4
REMARK VINA RESULT:      -8.2      2.301      5.485
REMARK  8 active torsions:
REMARK  status: ('A' for Active; 'I' for Inactive)
REMARK    1  A    between atoms: C2_2  and  C3_3 
REMARK    2  A    between atoms: C4_4  and  C5_5 
REMARK    3  A    between atoms: C6_6  and  N1_7 
REMARK    4  A    between atoms: N1_7  and  C7_8 
REMARK    5  A    between atoms: C12_14  and  N3_15 
REMARK    6  A    between atoms: N3_15  and  C13_16 
REMARK    7  A    between atoms: C13_16  and  C14_17 
REMARK    8  A    between atoms: C17_20  and  O1_21 
ROOT
HETATM    1  C7  UNL     1      25.067   4.650  50.227  1.00  0.00     0.133 A 
HETATM    2  N2  UNL     1      25.273   5.925  50.254  1.00  0.00    -0.267 NA
HETATM    3  C8  UNL     1      24.105   6.645  50.723  1.00  0.00     0.190 A 
HETATM    4  C9  UNL     1      23.113   5.576  50.991  1.00  0.00    -0.024 A 
HETATM    5  C10 UNL     1      21.822   5.622  51.452  1.00  0.00     0.012 A 
HETATM    6  C11 UNL     1      21.138   4.431  51.601  1.00  0.00     0.030 A 
HETATM    7  C12 UNL     1      21.680   3.191  51.312  1.00  0.00     0.029 A 
HETATM    8  C20 UNL     1      22.982   3.173  50.848  1.00  0.00     0.045 A 
HETATM    9  C21 UNL     1      23.697   4.342  50.687  1.00  0.00     0.020 A 
ENDROOT
BRANCH   7  10
HETATM   10  N3  UNL     1      20.913   1.991  51.489  1.00  0.00    -0.386 N 
HETATM   11  H13 UNL     1      19.909   2.109  51.749  1.00  0.00     0.160 HD
BRANCH  10  12
HETATM   12  C13 UNL     1      21.653   0.759  51.277  1.00  0.00     0.158 C 
BRANCH  12  13
HETATM   13  C14 UNL     1      22.010   0.073  52.521  1.00  0.00    -0.040 A 
HETATM   14  C15 UNL     1      23.346   0.055  52.867  1.00  0.00     0.011 A 
HETATM   15  C16 UNL     1      23.716  -0.584  54.035  1.00  0.00     0.037 A 
HETATM   16  C17 UNL     1      22.808  -1.214  54.888  1.00  0.00     0.065 A 
HETATM   17  C18 UNL     1      21.461  -1.184  54.520  1.00  0.00     0.037 A 
HETATM   18  C19 UNL     1      21.079  -0.541  53.341  1.00  0.00     0.011 A 
BRANCH  16  19
HETATM   19  O1  UNL     1      23.163  -1.849  56.046  1.00  0.00    -0.361 OA
HETATM   20  H18 UNL     1      23.680  -1.373  56.779  1.00  0.00     0.217 HD
ENDBRANCH  16  19
ENDBRANCH  12  13
ENDBRANCH  10  12
ENDBRANCH   7  10
BRANCH   1  21
HETATM   21  N1  UNL     1      26.035   3.665  49.806  1.00  0.00    -0.350 N 
HETATM   22  H8  UNL     1      26.196   3.601  48.757  1.00  0.00     0.166 HD
BRANCH  21  23
HETATM   23  C6  UNL     1      26.660   2.896  50.828  1.00  0.00     0.090 C 
HETATM   24  C5  UNL     1      26.314   1.698  51.271  1.00  0.00     0.017 C 
BRANCH  24  25
HETATM   25  C4  UNL     1      27.076   1.062  52.327  1.00  0.00     0.001 C 
HETATM   26  C3  UNL     1      27.124  -0.258  52.398  1.00  0.00    -0.001 C 
BRANCH  26  27
HETATM   27  C2  UNL     1      27.882  -0.922  53.450  1.00  0.00    -0.010 C 
HETATM   28  C1  UNL     1      29.210  -0.991  53.412  1.00  0.00     0.011 C 
ENDBRANCH  26  27
ENDBRANCH  24  25
ENDBRANCH  21  23
ENDBRANCH   1  21
TORSDOF 8
ENDMDL
MODEL 5
REMARK VINA RESULT:      -8.0      2.490      5.160
REMARK  8 active torsions:
REMARK  status: ('A' for Active; 'I' for Inactive)
REMARK    1  A    between atoms: C2_2  and  C3_3 
REMARK    2  A    between atoms: C4_4  and  C5_5 
REMARK    3  A    between atoms: C6_6  and  N1_7 
REMARK    4  A    between atoms: N1_7  and  C7_8 
REMARK    5  A    between atoms: C12_14  and  N3_15 
REMARK    6  A    between atoms: N3_15  and  C13_16 
REMARK    7  A    between atoms: C13_16  and  C14_17 
REMARK    8  A    between atoms: C17_20  and  O1_21 
ROOT
HETATM    1  C7  UNL     1      21.714   1.596  50.092  1.00  0.00     0.133 A 
HETATM    2  N2  UNL     1      21.381   2.030  48.920  1.00  0.00    -0.267 NA
HETATM    3  C8  UNL     1      22.422   2.858  48.342  1.00  0.00     0.190 A 
HETATM    4  C9  UNL     1      23.484   2.866  49.376  1.00  0.00    -0.024 A 
HETATM    5  C10 UNL     1      24.715   3.471  49.417  1.00  0.00     0.012 A 
HETATM    6  C11 UNL     1      25.495   3.288  50.541  1.00  0.00     0.030 A 
HETATM    7  C12 UNL     1      25.109   2.530  51.632  1.00  0.00     0.029 A 
HETATM    8  C20 UNL     1      23.865   1.931  51.566  1.00  0.00     0.045 A 
HETATM    9  C21 UNL     1      23.057   2.090  50.459  1.00  0.00     0.020 A 
ENDROOT
BRANCH   7  10
HETATM   10  N3  UNL     1      25.970   2.382  52.771  1.00  0.00    -0.386 N 
HETATM   11  H13 UNL     1      25.536   2.524  53.710  1.00  0.00     0.160 HD
BRANCH  10  12
HETATM   12  C13 UNL     1      27.348   2.049  52.454  1.00  0.00     0.158 C 
BRANCH  12  13
HETATM   13  C14 UNL     1      27.684   0.647  52.714  1.00  0.00    -0.040 A 
HETATM   14  C15 UNL     1      26.774  -0.304  52.298  1.00  0.00     0.011 A 
HETATM   15  C16 UNL     1      27.062  -1.636  52.528  1.00  0.00     0.037 A 
HETATM   16  C17 UNL     1      28.227  -2.073  53.160  1.00  0.00     0.065 A 
HETATM   17  C18 UNL     1      29.134  -1.095  53.572  1.00  0.00     0.037 A 
HETATM   18  C19 UNL     1      28.852   0.253  53.345  1.00  0.00     0.011 A 
BRANCH  16  19
HETATM   19  O1  UNL     1      28.522  -3.389  53.392  1.00  0.00    -0.361 OA
HETATM   20  H18 UNL     1      28.075  -3.912  54.140  1.00  0.00     0.217 HD
ENDBRANCH  16  19
ENDBRANCH  12  13
ENDBRANCH  10  12
ENDBRANCH   7  10
BRANCH   1  21
HETATM   21  N1  UNL     1      20.892   0.749  50.923  1.00  0.00    -0.350 N 
HETATM   22  H8  UNL     1      19.947   0.485  50.513  1.00  0.00     0.166 HD
BRANCH  21  23
HETATM   23  C6  UNL     1      21.427   0.367  52.185  1.00  0.00     0.090 C 
HETATM   24  C5  UNL     1      20.770   0.126  53.308  1.00  0.00     0.017 C 
BRANCH  24  25
HETATM   25  C4  UNL     1      21.488  -0.257  54.508  1.00  0.00     0.001 C 
HETATM   26  C3  UNL     1      22.361  -1.249  54.461  1.00  0.00    -0.001 C 
BRANCH  26  27
HETATM   27  C2  UNL     1      23.096  -1.652  55.652  1.00  0.00    -0.010 C 
HETATM   28  C1  UNL     1      24.359  -1.282  55.850  1.00  0.00     0.011 C 
ENDBRANCH  26  27
ENDBRANCH  24  25
ENDBRANCH  21  23
ENDBRANCH   1  21
TORSDOF 8
ENDMDL
MODEL 6
REMARK VINA RESULT:      -7.9      3.472      6.506
REMARK  8 active torsions:
REMARK  status: ('A' for Active; 'I' for Inactive)
REMARK    1  A    between atoms: C2_2  and  C3_3 
REMARK    2  A    between atoms: C4_4  and  C5_5 
REMARK    3  A    between atoms: C6_6  and  N1_7 
REMARK    4  A    between atoms: N1_7  and  C7_8 
REMARK    5  A    between atoms: C12_14  and  N3_15 
REMARK    6  A    between atoms: N3_15  and  C13_16 
REMARK    7  A    between atoms: C13_16  and  C14_17 
REMARK    8  A    between atoms: C17_20  and  O1_21 
ROOT
HETATM    1  C7  UNL     1      25.098  -0.614  54.354  1.00  0.00     0.133 A 
HETATM    2  N2  UNL     1      24.958  -1.247  55.472  1.00  0.00    -0.267 NA
HETATM    3  C8  UNL     1      23.563  -1.528  55.755  1.00  0.00     0.190 A 
HETATM    4  C9  UNL     1      22.842  -0.948  54.596  1.00  0.00    -0.024 A 
HETATM    5  C10 UNL     1      21.508  -0.895  54.283  1.00  0.00     0.012 A 
HETATM    6  C11 UNL     1      21.136  -0.275  53.107  1.00  0.00     0.030 A 
HETATM    7  C12 UNL     1      22.033   0.297  52.222  1.00  0.00     0.029 A 
HETATM    8  C20 UNL     1      23.372   0.230  52.560  1.00  0.00     0.045 A 
HETATM    9  C21 UNL     1      23.782  -0.383  53.727  1.00  0.00     0.020 A 
ENDROOT
BRANCH   7  10
HETATM   10  N3  UNL     1      21.579   0.927  51.015  1.00  0.00    -0.386 N 
HETATM   11  H13 UNL     1      20.590   0.745  50.733  1.00  0.00     0.160 HD
BRANCH  10  12
HETATM   12  C13 UNL     1      22.575   1.744  50.342  1.00  0.00     0.158 C 
BRANCH  12  13
HETATM   13  C14 UNL     1      22.402   3.180  50.571  1.00  0.00    -0.040 A 
HETATM   14  C15 UNL     1      22.841   3.680  51.780  1.00  0.00     0.011 A 
HETATM   15  C16 UNL     1      22.693   5.032  52.026  1.00  0.00     0.037 A 
HETATM   16  C17 UNL     1      22.121   5.922  51.116  1.00  0.00     0.065 A 
HETATM   17  C18 UNL     1      21.684   5.396  49.899  1.00  0.00     0.037 A 
HETATM   18  C19 UNL     1      21.829   4.031  49.641  1.00  0.00     0.011 A 
BRANCH  16  19
HETATM   19  O1  UNL     1      21.970   7.262  51.350  1.00  0.00    -0.361 OA
HETATM   20  H18 UNL     1      22.733   7.917  51.213  1.00  0.00     0.217 HD
ENDBRANCH  16  19
ENDBRANCH  12  13
ENDBRANCH  10  12
ENDBRANCH   7  10
BRANCH   1  21
HETATM   21  N1  UNL     1      26.361  -0.191  53.798  1.00  0.00    -0.350 N 
HETATM   22  H8  UNL     1      27.177  -0.855  53.959  1.00  0.00     0.166 HD
BRANCH  21  23
HETATM   23  C6  UNL     1      26.379   1.051  53.104  1.00  0.00     0.090 C 
HETATM   24  C5  UNL     1      26.728   1.276  51.847  1.00  0.00     0.017 C 
BRANCH  24  25
HETATM   25  C4  UNL     1      26.682   2.619  51.305  1.00  0.00     0.001 C 
HETATM   26  C3  UNL     1      26.133   2.831  50.120  1.00  0.00    -0.001 C 
BRANCH  26  27
HETATM   27  C2  UNL     1      26.075   4.172  49.554  1.00  0.00    -0.010 C 
HETATM   28  C1  UNL     1      27.107   4.695  48.898  1.00  0.00     0.011 C 
ENDBRANCH  26  27
ENDBRANCH  24  25
ENDBRANCH  21  23
ENDBRANCH   1  21
TORSDOF 8
ENDMDL
MODEL 7
REMARK VINA RESULT:      -7.9      3.688      6.201
REMARK  8 active torsions:
REMARK  status: ('A' for Active; 'I' for Inactive)
REMARK    1  A    between atoms: C2_2  and  C3_3 
REMARK    2  A    between atoms: C4_4  and  C5_5 
REMARK    3  A    between atoms: C6_6  and  N1_7 
REMARK    4  A    between atoms: N1_7  and  C7_8 
REMARK    5  A    between atoms: C12_14  and  N3_15 
REMARK    6  A    between atoms: N3_15  and  C13_16 
REMARK    7  A    between atoms: C13_16  and  C14_17 
REMARK    8  A    between atoms: C17_20  and  O1_21 
ROOT
HETATM    1  C7  UNL     1      26.459   2.128  51.714  1.00  0.00     0.133 A 
HETATM    2  N2  UNL     1      27.650   2.364  52.157  1.00  0.00    -0.267 NA
HETATM    3  C8  UNL     1      27.934   1.603  53.358  1.00  0.00     0.190 A 
HETATM    4  C9  UNL     1      26.689   0.834  53.594  1.00  0.00    -0.024 A 
HETATM    5  C10 UNL     1      26.340  -0.063  54.571  1.00  0.00     0.012 A 
HETATM    6  C11 UNL     1      25.080  -0.626  54.521  1.00  0.00     0.030 A 
HETATM    7  C12 UNL     1      24.146  -0.339  53.541  1.00  0.00     0.029 A 
HETATM    8  C20 UNL     1      24.523   0.568  52.568  1.00  0.00     0.045 A 
HETATM    9  C21 UNL     1      25.773   1.151  52.584  1.00  0.00     0.020 A 
ENDROOT
BRANCH   7  10
HETATM   10  N3  UNL     1      22.853  -0.961  53.549  1.00  0.00    -0.386 N 
HETATM   11  H13 UNL     1      22.809  -1.958  53.242  1.00  0.00     0.160 HD
BRANCH  10  12
HETATM   12  C13 UNL     1      21.767  -0.102  53.989  1.00  0.00     0.158 C 
BRANCH  12  13
HETATM   13  C14 UNL     1      20.610  -0.119  53.090  1.00  0.00    -0.040 A 
HETATM   14  C15 UNL     1      20.754   0.510  51.870  1.00  0.00     0.011 A 
HETATM   15  C16 UNL     1      19.681   0.511  50.999  1.00  0.00     0.037 A 
HETATM   16  C17 UNL     1      18.455  -0.091  51.287  1.00  0.00     0.065 A 
HETATM   17  C18 UNL     1      18.331  -0.722  52.527  1.00  0.00     0.037 A 
HETATM   18  C19 UNL     1      19.409  -0.728  53.413  1.00  0.00     0.011 A 
BRANCH  16  19
HETATM   19  O1  UNL     1      17.387  -0.096  50.432  1.00  0.00    -0.361 OA
HETATM   20  H18 UNL     1      16.495  -0.505  50.695  1.00  0.00     0.217 HD
ENDBRANCH  16  19
ENDBRANCH  12  13
ENDBRANCH  10  12
ENDBRANCH   7  10
BRANCH   1  21
HETATM   21  N1  UNL     1      25.881   2.731  50.537  1.00  0.00    -0.350 N 
HETATM   22  H8  UNL     1      24.923   2.363  50.259  1.00  0.00     0.166 HD
BRANCH  21  23
HETATM   23  C6  UNL     1      26.645   3.740  49.886  1.00  0.00     0.090 C 
HETATM   24  C5  UNL     1      26.202   4.751  49.155  1.00  0.00     0.017 C 
BRANCH  24  25
HETATM   25  C4  UNL     1      27.136   5.689  48.564  1.00  0.00     0.001 C 
HETATM   26  C3  UNL     1      28.399   5.337  48.392  1.00  0.00    -0.001 C 
BRANCH  26  27
HETATM   27  C2  UNL     1      29.356   6.261  47.800  1.00  0.00    -0.010 C 
HETATM   28  C1  UNL     1      29.443   7.526  48.203  1.00  0.00     0.011 C 
ENDBRANCH  26  27
ENDBRANCH  24  25
ENDBRANCH  21  23
ENDBRANCH   1  21
TORSDOF 8
ENDMDL
MODEL 8
REMARK VINA RESULT:      -7.8      3.678      6.451
REMARK  8 active torsions:
REMARK  status: ('A' for Active; 'I' for Inactive)
REMARK    1  A    between atoms: C2_2  and  C3_3 
REMARK    2  A    between atoms: C4_4  and  C5_5 
REMARK    3  A    between atoms: C6_6  and  N1_7 
REMARK    4  A    between atoms: N1_7  and  C7_8 
REMARK    5  A    between atoms: C12_14  and  N3_15 
REMARK    6  A    between atoms: N3_15  and  C13_16 
REMARK    7  A    between atoms: C13_16  and  C14_17 
REMARK    8  A    between atoms: C17_20  and  O1_21 
ROOT
HETATM    1  C7  UNL     1      27.176   2.355  52.146  1.00  0.00     0.133 A 
HETATM    2  N2  UNL     1      28.305   2.502  52.757  1.00  0.00    -0.267 NA
HETATM    3  C8  UNL     1      28.412   1.619  53.902  1.00  0.00     0.190 A 
HETATM    4  C9  UNL     1      27.127   0.880  53.902  1.00  0.00    -0.024 A 
HETATM    5  C10 UNL     1      26.631  -0.092  54.733  1.00  0.00     0.012 A 
HETATM    6  C11 UNL     1      25.375  -0.599  54.469  1.00  0.00     0.030 A 
HETATM    7  C12 UNL     1      24.583  -0.184  53.413  1.00  0.00     0.029 A 
HETATM    8  C20 UNL     1      25.105   0.797  52.590  1.00  0.00     0.045 A 
HETATM    9  C21 UNL     1      26.358   1.327  52.821  1.00  0.00     0.020 A 
ENDROOT
BRANCH   7  10
HETATM   10  N3  UNL     1      23.284  -0.753  53.196  1.00  0.00    -0.386 N 
HETATM   11  H13 UNL     1      23.254  -1.727  52.822  1.00  0.00     0.160 HD
BRANCH  10  12
HETATM   12  C13 UNL     1      22.172   0.120  53.532  1.00  0.00     0.158 C 
BRANCH  12  13
HETATM   13  C14 UNL     1      21.256   0.355  52.413  1.00  0.00    -0.040 A 
HETATM   14  C15 UNL     1      19.905   0.330  52.692  1.00  0.00     0.011 A 
HETATM   15  C16 UNL     1      19.015   0.548  51.657  1.00  0.00     0.037 A 
HETATM   16  C17 UNL     1      19.409   0.793  50.341  1.00  0.00     0.065 A 
HETATM   17  C18 UNL     1      20.781   0.814  50.080  1.00  0.00     0.037 A 
HETATM   18  C19 UNL     1      21.688   0.594  51.119  1.00  0.00     0.011 A 
BRANCH  16  19
HETATM   19  O1  UNL     1      18.537   1.010  49.310  1.00  0.00    -0.361 OA
HETATM   20  H18 UNL     1      17.897   0.288  48.991  1.00  0.00     0.217 HD
ENDBRANCH  16  19
ENDBRANCH  12  13
ENDBRANCH  10  12
ENDBRANCH   7  10
BRANCH   1  21
HETATM   21  N1  UNL     1      26.769   3.090  50.972  1.00  0.00    -0.350 N 
HETATM   22  H8  UNL     1      27.548   3.325  50.287  1.00  0.00     0.166 HD
BRANCH  21  23
HETATM   23  C6  UNL     1      25.389   3.418  50.860  1.00  0.00     0.090 C 
HETATM   24  C5  UNL     1      24.613   3.318  49.792  1.00  0.00     0.017 C 
BRANCH  24  25
HETATM   25  C4  UNL     1      23.217   3.701  49.864  1.00  0.00     0.001 C 
HETATM   26  C3  UNL     1      22.718   4.151  51.004  1.00  0.00    -0.001 C 
BRANCH  26  27
HETATM   27  C2  UNL     1      21.319   4.542  51.102  1.00  0.00    -0.010 C 
HETATM   28  C1  UNL     1      20.504   3.991  51.997  1.00  0.00     0.011 C 
ENDBRANCH  26  27
ENDBRANCH  24  25
ENDBRANCH  21  23
ENDBRANCH   1  21
TORSDOF 8
ENDMDL
MODEL 9
REMARK VINA RESULT:      -7.8      3.377      6.897
REMARK  8 active torsions:
REMARK  status: ('A' for Active; 'I' for Inactive)
REMARK    1  A    between atoms: C2_2  and  C3_3 
REMARK    2  A    between atoms: C4_4  and  C5_5 
REMARK    3  A    between atoms: C6_6  and  N1_7 
REMARK    4  A    between atoms: N1_7  and  C7_8 
REMARK    5  A    between atoms: C12_14  and  N3_15 
REMARK    6  A    between atoms: N3_15  and  C13_16 
REMARK    7  A    between atoms: C13_16  and  C14_17 
REMARK    8  A    between atoms: C17_20  and  O1_21 
ROOT
HETATM    1  C7  UNL     1      22.834   0.384  52.498  1.00  0.00     0.133 A 
HETATM    2  N2  UNL     1      21.698  -0.138  52.168  1.00  0.00    -0.267 NA
HETATM    3  C8  UNL     1      21.200   0.411  50.921  1.00  0.00     0.190 A 
HETATM    4  C9  UNL     1      22.243   1.386  50.522  1.00  0.00    -0.024 A 
HETATM    5  C10 UNL     1      22.348   2.219  49.437  1.00  0.00     0.012 A 
HETATM    6  C11 UNL     1      23.462   3.029  49.340  1.00  0.00     0.030 A 
HETATM    7  C12 UNL     1      24.483   3.049  50.273  1.00  0.00     0.029 A 
HETATM    8  C20 UNL     1      24.354   2.200  51.356  1.00  0.00     0.045 A 
HETATM    9  C21 UNL     1      23.255   1.376  51.488  1.00  0.00     0.020 A 
ENDROOT
BRANCH   7  10
HETATM   10  N3  UNL     1      25.615   3.915  50.111  1.00  0.00    -0.386 N 
HETATM   11  H13 UNL     1      26.471   3.679  50.661  1.00  0.00     0.160 HD
BRANCH  10  12
HETATM   12  C13 UNL     1      25.411   5.020  49.189  1.00  0.00     0.158 C 
BRANCH  12  13
HETATM   13  C14 UNL     1      26.659   5.585  48.671  1.00  0.00    -0.040 A 
HETATM   14  C15 UNL     1      26.609   6.875  48.184  1.00  0.00     0.011 A 
HETATM   15  C16 UNL     1      27.770   7.438  47.689  1.00  0.00     0.037 A 
HETATM   16  C17 UNL     1      28.995   6.770  47.655  1.00  0.00     0.065 A 
HETATM   17  C18 UNL     1      29.024   5.466  48.154  1.00  0.00     0.037 A 
HETATM   18  C19 UNL     1      27.856   4.889  48.655  1.00  0.00     0.011 A 
BRANCH  16  19
HETATM   19  O1  UNL     1      30.150   7.318  47.168  1.00  0.00    -0.361 OA
HETATM   20  H18 UNL     1      30.197   8.288  46.872  1.00  0.00     0.217 HD
ENDBRANCH  16  19
ENDBRANCH  12  13
ENDBRANCH  10  12
ENDBRANCH   7  10
BRANCH   1  21
HETATM   21  N1  UNL     1      23.584   0.046  53.684  1.00  0.00    -0.350 N 
HETATM   22  H8  UNL     1      23.003  -0.146  54.554  1.00  0.00     0.166 HD
BRANCH  21  23
HETATM   23  C6  UNL     1      25.002   0.008  53.563  1.00  0.00     0.090 C 
HETATM   24  C5  UNL     1      25.752  -0.977  53.097  1.00  0.00     0.017 C 
BRANCH  24  25
HETATM   25  C4  UNL     1      27.194  -0.837  53.048  1.00  0.00     0.001 C 
HETATM   26  C3  UNL     1      27.815  -0.115  53.966  1.00  0.00    -0.001 C 
BRANCH  26  27
HETATM   27  C2  UNL     1      29.263   0.040  53.939  1.00  0.00    -0.010 C 
HETATM   28  C1  UNL     1      30.064  -0.965  53.596  1.00  0.00     0.011 C 
ENDBRANCH  26  27
ENDBRANCH  24  25
ENDBRANCH  21  23
ENDBRANCH   1  21
TORSDOF 8
ENDMDL
