MODEL 1
REMARK VINA RESULT:      -8.0      0.000      0.000
REMARK  5 active torsions:
REMARK  status: ('A' for Active; 'I' for Inactive)
REMARK    1  A    between atoms: C2_2  and  C20_25 
REMARK    2  A    between atoms: C7_7  and  C9_9 
REMARK    3  A    between atoms: C11_12  and  N2_14 
REMARK    4  A    between atoms: C12_16  and  C13_17 
REMARK    5  A    between atoms: C16_20  and  O1_21 
ROOT
HETATM    1  N2  UNL     1      23.898   2.996  51.110  1.00  0.00    -0.240 N 
HETATM    2  N3  UNL     1      25.156   2.374  51.052  1.00  0.00    -0.174 NA
HETATM    3  C12 UNL     1      25.480   2.160  52.316  1.00  0.00     0.067 C 
HETATM    4  C19 UNL     1      24.410   2.654  53.265  1.00  0.00     0.090 C 
HETATM    5  C20 UNL     1      23.610   3.570  52.361  1.00  0.00     0.126 C 
ENDROOT
BRANCH   3   6
HETATM    6  C13 UNL     1      26.737   1.517  52.762  1.00  0.00    -0.010 A 
HETATM    7  C14 UNL     1      26.930   0.179  52.539  1.00  0.00     0.016 A 
HETATM    8  C15 UNL     1      28.089  -0.454  52.944  1.00  0.00     0.037 A 
HETATM    9  C16 UNL     1      29.037   0.378  53.592  1.00  0.00     0.065 A 
HETATM   10  C17 UNL     1      28.923   1.720  53.852  1.00  0.00     0.037 A 
HETATM   11  C18 UNL     1      27.709   2.267  53.400  1.00  0.00     0.016 A 
BRANCH   9  12
HETATM   12  O1  UNL     1      30.193  -0.284  53.990  1.00  0.00    -0.361 OA
HETATM   13  H12 UNL     1      31.054  -0.266  53.501  1.00  0.00     0.217 HD
ENDBRANCH   9  12
ENDBRANCH   3   6
BRANCH   1  14
HETATM   14  C11 UNL     1      23.426   2.732  49.775  1.00  0.00     0.190 A 
HETATM   15  S1  UNL     1      22.874   2.428  48.071  1.00  0.00    -0.020 SA
HETATM   16  C10 UNL     1      21.297   1.331  48.441  1.00  0.00     0.091 A 
HETATM   17  N1  UNL     1      22.537   2.124  49.811  1.00  0.00    -0.265 N 
HETATM   18  C9  UNL     1      21.548   1.448  49.832  1.00  0.00     0.042 A 
BRANCH  18  19
HETATM   19  C7  UNL     1      21.377   1.273  51.255  1.00  0.00     0.018 A 
HETATM   20  C6  UNL     1      20.538   2.301  51.719  1.00  0.00    -0.015 A 
HETATM   21  C5  UNL     1      20.295   2.085  53.068  1.00  0.00    -0.003 A 
HETATM   22  C4  UNL     1      20.803   1.024  53.833  1.00  0.00     0.003 A 
HETATM   23  C3  UNL     1      21.612   0.033  53.388  1.00  0.00    -0.068 A 
HETATM   24  C2  UNL     1      22.483  -1.087  52.995  1.00  0.00     0.037 A 
HETATM   25  C8  UNL     1      21.824   0.234  52.133  1.00  0.00     0.086 A 
HETATM   26  C1  UNL     1      23.932  -0.845  53.367  1.00  0.00     0.017 C 
ENDBRANCH  18  19
ENDBRANCH   1  14
TORSDOF 5
ENDMDL
MODEL 2
REMARK VINA RESULT:      -7.9      2.100      3.882
REMARK  5 active torsions:
REMARK  status: ('A' for Active; 'I' for Inactive)
REMARK    1  A    between atoms: C2_2  and  C20_25 
REMARK    2  A    between atoms: C7_7  and  C9_9 
REMARK    3  A    between atoms: C11_12  and  N2_14 
REMARK    4  A    between atoms: C12_16  and  C13_17 
REMARK    5  A    between atoms: C16_20  and  O1_21 
ROOT
HETATM    1  N2  UNL     1      23.289   2.449  51.247  1.00  0.00    -0.240 N 
HETATM    2  N3  UNL     1      24.498   1.742  51.140  1.00  0.00    -0.174 NA
HETATM    3  C12 UNL     1      24.987   1.732  52.368  1.00  0.00     0.067 C 
HETATM    4  C19 UNL     1      24.085   2.457  53.342  1.00  0.00     0.090 C 
HETATM    5  C20 UNL     1      23.206   3.252  52.397  1.00  0.00     0.126 C 
ENDROOT
BRANCH   3   6
HETATM    6  C13 UNL     1      26.265   1.093  52.757  1.00  0.00    -0.010 A 
HETATM    7  C14 UNL     1      26.398  -0.268  52.669  1.00  0.00     0.016 A 
HETATM    8  C15 UNL     1      27.574  -0.897  53.025  1.00  0.00     0.037 A 
HETATM    9  C16 UNL     1      28.607  -0.037  53.476  1.00  0.00     0.065 A 
HETATM   10  C17 UNL     1      28.558   1.328  53.593  1.00  0.00     0.037 A 
HETATM   11  C18 UNL     1      27.319   1.869  53.206  1.00  0.00     0.016 A 
BRANCH   9  12
HETATM   12  O1  UNL     1      29.779  -0.696  53.829  1.00  0.00    -0.361 OA
HETATM   13  H12 UNL     1      29.873  -1.677  53.918  1.00  0.00     0.217 HD
ENDBRANCH   9  12
ENDBRANCH   3   6
BRANCH   1  14
HETATM   14  C11 UNL     1      22.622   1.987  50.057  1.00  0.00     0.190 A 
HETATM   15  S1  UNL     1      21.765   1.358  48.582  1.00  0.00    -0.020 SA
HETATM   16  C10 UNL     1      22.111   2.845  47.360  1.00  0.00     0.091 A 
HETATM   17  N1  UNL     1      22.727   2.714  49.268  1.00  0.00    -0.265 N 
HETATM   18  C9  UNL     1      22.832   3.512  48.381  1.00  0.00     0.042 A 
BRANCH  18  19
HETATM   19  C7  UNL     1      23.610   4.537  49.038  1.00  0.00     0.018 A 
HETATM   20  C6  UNL     1      22.741   5.588  49.379  1.00  0.00    -0.015 A 
HETATM   21  C5  UNL     1      23.465   6.534  50.091  1.00  0.00    -0.003 A 
HETATM   22  C4  UNL     1      24.828   6.451  50.411  1.00  0.00     0.003 A 
HETATM   23  C3  UNL     1      25.668   5.440  50.083  1.00  0.00    -0.068 A 
HETATM   24  C2  UNL     1      26.651   4.387  49.781  1.00  0.00     0.037 A 
HETATM   25  C8  UNL     1      24.987   4.561  49.432  1.00  0.00     0.086 A 
HETATM   26  C1  UNL     1      27.513   4.732  48.583  1.00  0.00     0.017 C 
ENDBRANCH  18  19
ENDBRANCH   1  14
TORSDOF 5
ENDMDL
MODEL 3
REMARK VINA RESULT:      -7.8      2.700      4.605
REMARK  5 active torsions:
REMARK  status: ('A' for Active; 'I' for Inactive)
REMARK    1  A    between atoms: C2_2  and  C20_25 
REMARK    2  A    between atoms: C7_7  and  C9_9 
REMARK    3  A    between atoms: C11_12  and  N2_14 
REMARK    4  A    between atoms: C12_16  and  C13_17 
REMARK    5  A    between atoms: C16_20  and  O1_21 
ROOT
HETATM    1  N2  UNL     1      22.393   3.424  50.443  1.00  0.00    -0.240 N 
HETATM    2  N3  UNL     1      23.386   2.430  50.408  1.00  0.00    -0.174 NA
HETATM    3  C12 UNL     1      23.640   2.167  51.679  1.00  0.00     0.067 C 
HETATM    4  C19 UNL     1      22.796   3.011  52.609  1.00  0.00     0.090 C 
HETATM    5  C20 UNL     1      22.320   4.103  51.672  1.00  0.00     0.126 C 
ENDROOT
BRANCH   3   6
HETATM    6  C13 UNL     1      24.631   1.172  52.148  1.00  0.00    -0.010 A 
HETATM    7  C14 UNL     1      25.909   1.205  51.656  1.00  0.00     0.016 A 
HETATM    8  C15 UNL     1      26.858   0.291  52.070  1.00  0.00     0.037 A 
HETATM    9  C16 UNL     1      26.409  -0.659  53.021  1.00  0.00     0.065 A 
HETATM   10  C17 UNL     1      25.153  -0.760  53.563  1.00  0.00     0.037 A 
HETATM   11  C18 UNL     1      24.264   0.215  53.078  1.00  0.00     0.016 A 
BRANCH   9  12
HETATM   12  O1  UNL     1      27.383  -1.567  53.419  1.00  0.00    -0.361 OA
HETATM   13  H12 UNL     1      27.346  -2.114  54.243  1.00  0.00     0.217 HD
ENDBRANCH   9  12
ENDBRANCH   3   6
BRANCH   1  14
HETATM   14  C11 UNL     1      21.846   3.278  49.119  1.00  0.00     0.190 A 
HETATM   15  S1  UNL     1      21.123   3.053  47.467  1.00  0.00    -0.020 SA
HETATM   16  C10 UNL     1      22.044   4.495  46.521  1.00  0.00     0.091 A 
HETATM   17  N1  UNL     1      22.268   4.020  48.461  1.00  0.00    -0.265 N 
HETATM   18  C9  UNL     1      22.726   4.838  47.716  1.00  0.00     0.042 A 
BRANCH  18  19
HETATM   19  C7  UNL     1      23.616   5.542  48.609  1.00  0.00     0.018 A 
HETATM   20  C6  UNL     1      22.979   6.730  49.008  1.00  0.00    -0.015 A 
HETATM   21  C5  UNL     1      23.790   7.364  49.937  1.00  0.00    -0.003 A 
HETATM   22  C4  UNL     1      25.031   6.898  50.396  1.00  0.00     0.003 A 
HETATM   23  C3  UNL     1      25.647   5.754  50.013  1.00  0.00    -0.068 A 
HETATM   24  C2  UNL     1      26.387   4.530  49.666  1.00  0.00     0.037 A 
HETATM   25  C8  UNL     1      24.884   5.165  49.159  1.00  0.00     0.086 A 
HETATM   26  C1  UNL     1      27.477   4.787  48.644  1.00  0.00     0.017 C 
ENDBRANCH  18  19
ENDBRANCH   1  14
TORSDOF 5
ENDMDL
MODEL 4
REMARK VINA RESULT:      -7.7      3.835      6.516
REMARK  5 active torsions:
REMARK  status: ('A' for Active; 'I' for Inactive)
REMARK    1  A    between atoms: C2_2  and  C20_25 
REMARK    2  A    between atoms: C7_7  and  C9_9 
REMARK    3  A    between atoms: C11_12  and  N2_14 
REMARK    4  A    between atoms: C12_16  and  C13_17 
REMARK    5  A    between atoms: C16_20  and  O1_21 
ROOT
HETATM    1  N2  UNL     1      20.957   3.325  49.318  1.00  0.00    -0.240 N 
HETATM    2  N3  UNL     1      20.000   2.833  50.222  1.00  0.00    -0.174 NA
HETATM    3  C12 UNL     1      20.415   1.612  50.514  1.00  0.00     0.067 C 
HETATM    4  C19 UNL     1      21.692   1.260  49.784  1.00  0.00     0.090 C 
HETATM    5  C20 UNL     1      21.717   2.317  48.699  1.00  0.00     0.126 C 
ENDROOT
BRANCH   3   6
HETATM    6  C13 UNL     1      19.720   0.689  51.441  1.00  0.00    -0.010 A 
HETATM    7  C14 UNL     1      20.345   0.285  52.591  1.00  0.00     0.016 A 
HETATM    8  C15 UNL     1      19.728  -0.577  53.476  1.00  0.00     0.037 A 
HETATM    9  C16 UNL     1      18.426  -0.995  53.103  1.00  0.00     0.065 A 
HETATM   10  C17 UNL     1      17.730  -0.638  51.977  1.00  0.00     0.037 A 
HETATM   11  C18 UNL     1      18.445   0.240  51.144  1.00  0.00     0.016 A 
BRANCH   9  12
HETATM   12  O1  UNL     1      17.828  -1.862  54.010  1.00  0.00    -0.361 OA
HETATM   13  H12 UNL     1      17.993  -2.837  54.057  1.00  0.00     0.217 HD
ENDBRANCH   9  12
ENDBRANCH   3   6
BRANCH   1  14
HETATM   14  C11 UNL     1      20.727   4.740  49.455  1.00  0.00     0.190 A 
HETATM   15  S1  UNL     1      20.391   6.520  49.596  1.00  0.00    -0.020 SA
HETATM   16  C10 UNL     1      21.867   7.027  50.775  1.00  0.00     0.091 A 
HETATM   17  N1  UNL     1      21.479   5.177  50.092  1.00  0.00    -0.265 N 
HETATM   18  C9  UNL     1      22.306   5.679  50.797  1.00  0.00     0.042 A 
BRANCH  18  19
HETATM   19  C7  UNL     1      23.110   4.524  51.127  1.00  0.00     0.018 A 
HETATM   20  C6  UNL     1      22.620   3.985  52.329  1.00  0.00    -0.015 A 
HETATM   21  C5  UNL     1      23.328   2.824  52.602  1.00  0.00    -0.003 A 
HETATM   22  C4  UNL     1      24.355   2.286  51.812  1.00  0.00     0.003 A 
HETATM   23  C3  UNL     1      24.829   2.804  50.654  1.00  0.00    -0.068 A 
HETATM   24  C2  UNL     1      25.402   3.286  49.386  1.00  0.00     0.037 A 
HETATM   25  C8  UNL     1      24.160   3.876  50.401  1.00  0.00     0.086 A 
HETATM   26  C1  UNL     1      26.700   4.041  49.593  1.00  0.00     0.017 C 
ENDBRANCH  18  19
ENDBRANCH   1  14
TORSDOF 5
ENDMDL
MODEL 5
REMARK VINA RESULT:      -7.6      2.241      3.675
REMARK  5 active torsions:
REMARK  status: ('A' for Active; 'I' for Inactive)
REMARK    1  A    between atoms: C2_2  and  C20_25 
REMARK    2  A    between atoms: C7_7  and  C9_9 
REMARK    3  A    between atoms: C11_12  and  N2_14 
REMARK    4  A    between atoms: C12_16  and  C13_17 
REMARK    5  A    between atoms: C16_20  and  O1_21 
ROOT
HETATM    1  N2  UNL     1      22.638   1.495  52.733  1.00  0.00    -0.240 N 
HETATM    2  N3  UNL     1      23.596   0.468  52.768  1.00  0.00    -0.174 NA
HETATM    3  C12 UNL     1      24.742   1.089  52.988  1.00  0.00     0.067 C 
HETATM    4  C19 UNL     1      24.561   2.587  53.103  1.00  0.00     0.090 C 
HETATM    5  C20 UNL     1      23.186   2.768  52.491  1.00  0.00     0.126 C 
ENDROOT
BRANCH   3   6
HETATM    6  C13 UNL     1      26.054   0.412  53.106  1.00  0.00    -0.010 A 
HETATM    7  C14 UNL     1      26.183  -0.891  52.701  1.00  0.00     0.016 A 
HETATM    8  C15 UNL     1      27.390  -1.554  52.799  1.00  0.00     0.037 A 
HETATM    9  C16 UNL     1      28.456  -0.793  53.341  1.00  0.00     0.065 A 
HETATM   10  C17 UNL     1      28.412   0.510  53.768  1.00  0.00     0.037 A 
HETATM   11  C18 UNL     1      27.141   1.093  53.625  1.00  0.00     0.016 A 
BRANCH   9  12
HETATM   12  O1  UNL     1      29.658  -1.484  53.429  1.00  0.00    -0.361 OA
HETATM   13  H12 UNL     1      30.120  -1.920  52.670  1.00  0.00     0.217 HD
ENDBRANCH   9  12
ENDBRANCH   3   6
BRANCH   1  14
HETATM   14  C11 UNL     1      21.444   0.735  52.997  1.00  0.00     0.190 A 
HETATM   15  S1  UNL     1      19.958  -0.239  53.380  1.00  0.00    -0.020 SA
HETATM   16  C10 UNL     1      18.944   0.075  51.737  1.00  0.00     0.091 A 
HETATM   17  N1  UNL     1      20.767   0.807  52.161  1.00  0.00    -0.265 N 
HETATM   18  C9  UNL     1      20.003   0.877  51.242  1.00  0.00     0.042 A 
BRANCH  18  19
HETATM   19  C7  UNL     1      20.749   1.725  50.341  1.00  0.00     0.018 A 
HETATM   20  C6  UNL     1      21.512   0.896  49.499  1.00  0.00    -0.015 A 
HETATM   21  C5  UNL     1      22.159   1.700  48.572  1.00  0.00    -0.003 A 
HETATM   22  C4  UNL     1      22.066   3.098  48.493  1.00  0.00     0.003 A 
HETATM   23  C3  UNL     1      21.332   3.898  49.303  1.00  0.00    -0.068 A 
HETATM   24  C2  UNL     1      20.561   4.845  50.125  1.00  0.00     0.037 A 
HETATM   25  C8  UNL     1      20.726   3.144  50.154  1.00  0.00     0.086 A 
HETATM   26  C1  UNL     1      21.413   5.508  51.189  1.00  0.00     0.017 C 
ENDBRANCH  18  19
ENDBRANCH   1  14
TORSDOF 5
ENDMDL
MODEL 6
REMARK VINA RESULT:      -7.5      3.583      6.633
REMARK  5 active torsions:
REMARK  status: ('A' for Active; 'I' for Inactive)
REMARK    1  A    between atoms: C2_2  and  C20_25 
REMARK    2  A    between atoms: C7_7  and  C9_9 
REMARK    3  A    between atoms: C11_12  and  N2_14 
REMARK    4  A    between atoms: C12_16  and  C13_17 
REMARK    5  A    between atoms: C16_20  and  O1_21 
ROOT
HETATM    1  N2  UNL     1      22.926   3.073  52.498  1.00  0.00    -0.240 N 
HETATM    2  N3  UNL     1      22.256   1.877  52.806  1.00  0.00    -0.174 NA
HETATM    3  C12 UNL     1      21.045   2.033  52.298  1.00  0.00     0.067 C 
HETATM    4  C19 UNL     1      20.884   3.380  51.627  1.00  0.00     0.090 C 
HETATM    5  C20 UNL     1      22.062   4.141  52.200  1.00  0.00     0.126 C 
ENDROOT
BRANCH   3   6
HETATM    6  C13 UNL     1      19.966   1.022  52.374  1.00  0.00    -0.010 A 
HETATM    7  C14 UNL     1      18.880   1.125  51.546  1.00  0.00     0.016 A 
HETATM    8  C15 UNL     1      17.855   0.201  51.591  1.00  0.00     0.037 A 
HETATM    9  C16 UNL     1      18.019  -0.837  52.542  1.00  0.00     0.065 A 
HETATM   10  C17 UNL     1      19.071  -1.014  53.404  1.00  0.00     0.037 A 
HETATM   11  C18 UNL     1      20.059  -0.022  53.278  1.00  0.00     0.016 A 
BRANCH   9  12
HETATM   12  O1  UNL     1      16.973  -1.752  52.568  1.00  0.00    -0.361 OA
HETATM   13  H12 UNL     1      16.542  -2.144  51.767  1.00  0.00     0.217 HD
ENDBRANCH   9  12
ENDBRANCH   3   6
BRANCH   1  14
HETATM   14  C11 UNL     1      24.291   2.633  52.617  1.00  0.00     0.190 A 
HETATM   15  S1  UNL     1      26.006   2.064  52.819  1.00  0.00    -0.020 SA
HETATM   16  C10 UNL     1      26.665   2.399  51.008  1.00  0.00     0.091 A 
HETATM   17  N1  UNL     1      24.804   2.760  51.677  1.00  0.00    -0.265 N 
HETATM   18  C9  UNL     1      25.388   2.892  50.640  1.00  0.00     0.042 A 
BRANCH  18  19
HETATM   19  C7  UNL     1      24.341   3.450  49.815  1.00  0.00     0.018 A 
HETATM   20  C6  UNL     1      24.415   4.851  49.910  1.00  0.00    -0.015 A 
HETATM   21  C5  UNL     1      23.472   5.393  49.049  1.00  0.00    -0.003 A 
HETATM   22  C4  UNL     1      22.597   4.666  48.229  1.00  0.00     0.003 A 
HETATM   23  C3  UNL     1      22.523   3.316  48.136  1.00  0.00    -0.068 A 
HETATM   24  C2  UNL     1      22.376   1.862  47.962  1.00  0.00     0.037 A 
HETATM   25  C8  UNL     1      23.409   2.820  48.930  1.00  0.00     0.086 A 
HETATM   26  C1  UNL     1      21.218   1.302  48.763  1.00  0.00     0.017 C 
ENDBRANCH  18  19
ENDBRANCH   1  14
TORSDOF 5
ENDMDL
MODEL 7
REMARK VINA RESULT:      -7.4      8.851     11.332
REMARK  5 active torsions:
REMARK  status: ('A' for Active; 'I' for Inactive)
REMARK    1  A    between atoms: C2_2  and  C20_25 
REMARK    2  A    between atoms: C7_7  and  C9_9 
REMARK    3  A    between atoms: C11_12  and  N2_14 
REMARK    4  A    between atoms: C12_16  and  C13_17 
REMARK    5  A    between atoms: C16_20  and  O1_21 
ROOT
HETATM    1  N2  UNL     1      32.621   6.652  46.346  1.00  0.00    -0.240 N 
HETATM    2  N3  UNL     1      31.272   6.263  46.294  1.00  0.00    -0.174 NA
HETATM    3  C12 UNL     1      30.774   6.633  47.462  1.00  0.00     0.067 C 
HETATM    4  C19 UNL     1      31.817   7.290  48.338  1.00  0.00     0.090 C 
HETATM    5  C20 UNL     1      33.097   6.858  47.653  1.00  0.00     0.126 C 
ENDROOT
BRANCH   3   6
HETATM    6  C13 UNL     1      29.366   6.430  47.875  1.00  0.00    -0.010 A 
HETATM    7  C14 UNL     1      28.944   5.183  48.254  1.00  0.00     0.016 A 
HETATM    8  C15 UNL     1      27.638   4.957  48.643  1.00  0.00     0.037 A 
HETATM    9  C16 UNL     1      26.794   6.096  48.617  1.00  0.00     0.065 A 
HETATM   10  C17 UNL     1      27.136   7.374  48.255  1.00  0.00     0.037 A 
HETATM   11  C18 UNL     1      28.485   7.497  47.877  1.00  0.00     0.016 A 
BRANCH   9  12
HETATM   12  O1  UNL     1      25.487   5.841  49.012  1.00  0.00    -0.361 OA
HETATM   13  H12 UNL     1      24.951   5.058  48.729  1.00  0.00     0.217 HD
ENDBRANCH   9  12
ENDBRANCH   3   6
BRANCH   1  14
HETATM   14  C11 UNL     1      32.927   6.684  44.940  1.00  0.00     0.190 A 
HETATM   15  S1  UNL     1      33.297   6.778  43.163  1.00  0.00    -0.020 SA
HETATM   16  C10 UNL     1      34.019   4.980  42.896  1.00  0.00     0.091 A 
HETATM   17  N1  UNL     1      33.343   5.739  44.630  1.00  0.00    -0.265 N 
HETATM   18  C9  UNL     1      33.807   4.696  44.268  1.00  0.00     0.042 A 
BRANCH  18  19
HETATM   19  C7  UNL     1      33.794   3.956  45.509  1.00  0.00     0.018 A 
HETATM   20  C6  UNL     1      35.054   4.102  46.113  1.00  0.00    -0.015 A 
HETATM   21  C5  UNL     1      35.018   3.470  47.348  1.00  0.00    -0.003 A 
HETATM   22  C4  UNL     1      33.912   2.801  47.894  1.00  0.00     0.003 A 
HETATM   23  C3  UNL     1      32.697   2.658  47.312  1.00  0.00    -0.068 A 
HETATM   24  C2  UNL     1      31.344   2.460  46.766  1.00  0.00     0.037 A 
HETATM   25  C8  UNL     1      32.735   3.257  46.172  1.00  0.00     0.086 A 
HETATM   26  C1  UNL     1      31.173   1.090  46.139  1.00  0.00     0.017 C 
ENDBRANCH  18  19
ENDBRANCH   1  14
TORSDOF 5
ENDMDL
MODEL 8
REMARK VINA RESULT:      -7.4      3.471      6.384
REMARK  5 active torsions:
REMARK  status: ('A' for Active; 'I' for Inactive)
REMARK    1  A    between atoms: C2_2  and  C20_25 
REMARK    2  A    between atoms: C7_7  and  C9_9 
REMARK    3  A    between atoms: C11_12  and  N2_14 
REMARK    4  A    between atoms: C12_16  and  C13_17 
REMARK    5  A    between atoms: C16_20  and  O1_21 
ROOT
HETATM    1  N2  UNL     1      21.839   3.529  49.927  1.00  0.00    -0.240 N 
HETATM    2  N3  UNL     1      20.780   3.072  50.730  1.00  0.00    -0.174 NA
HETATM    3  C12 UNL     1      21.021   1.782  50.895  1.00  0.00     0.067 C 
HETATM    4  C19 UNL     1      22.281   1.347  50.181  1.00  0.00     0.090 C 
HETATM    5  C20 UNL     1      22.498   2.504  49.227  1.00  0.00     0.126 C 
ENDROOT
BRANCH   3   6
HETATM    6  C13 UNL     1      20.165   0.864  51.680  1.00  0.00    -0.010 A 
HETATM    7  C14 UNL     1      18.941   0.491  51.190  1.00  0.00     0.016 A 
HETATM    8  C15 UNL     1      18.116  -0.362  51.896  1.00  0.00     0.037 A 
HETATM    9  C16 UNL     1      18.631  -0.808  53.140  1.00  0.00     0.065 A 
HETATM   10  C17 UNL     1      19.840  -0.485  53.701  1.00  0.00     0.037 A 
HETATM   11  C18 UNL     1      20.602   0.386  52.903  1.00  0.00     0.016 A 
BRANCH   9  12
HETATM   12  O1  UNL     1      17.781  -1.663  53.830  1.00  0.00    -0.361 OA
HETATM   13  H12 UNL     1      17.097  -1.377  54.486  1.00  0.00     0.217 HD
ENDBRANCH   9  12
ENDBRANCH   3   6
BRANCH   1  14
HETATM   14  C11 UNL     1      21.783   4.939  50.217  1.00  0.00     0.190 A 
HETATM   15  S1  UNL     1      21.657   6.717  50.571  1.00  0.00    -0.020 SA
HETATM   16  C10 UNL     1      23.508   7.065  51.098  1.00  0.00     0.091 A 
HETATM   17  N1  UNL     1      22.753   5.292  50.527  1.00  0.00    -0.265 N 
HETATM   18  C9  UNL     1      23.823   5.701  50.875  1.00  0.00     0.042 A 
BRANCH  18  19
HETATM   19  C7  UNL     1      24.607   4.489  50.800  1.00  0.00     0.018 A 
HETATM   20  C6  UNL     1      25.227   4.453  49.539  1.00  0.00    -0.015 A 
HETATM   21  C5  UNL     1      26.054   3.339  49.496  1.00  0.00    -0.003 A 
HETATM   22  C4  UNL     1      26.234   2.412  50.533  1.00  0.00     0.003 A 
HETATM   23  C3  UNL     1      25.637   2.445  51.749  1.00  0.00    -0.068 A 
HETATM   24  C2  UNL     1      25.045   2.402  53.096  1.00  0.00     0.037 A 
HETATM   25  C8  UNL     1      24.880   3.487  51.786  1.00  0.00     0.086 A 
HETATM   26  C1  UNL     1      23.874   1.443  53.178  1.00  0.00     0.017 C 
ENDBRANCH  18  19
ENDBRANCH   1  14
TORSDOF 5
ENDMDL
MODEL 9
REMARK VINA RESULT:      -7.3      1.894      3.143
REMARK  5 active torsions:
REMARK  status: ('A' for Active; 'I' for Inactive)
REMARK    1  A    between atoms: C2_2  and  C20_25 
REMARK    2  A    between atoms: C7_7  and  C9_9 
REMARK    3  A    between atoms: C11_12  and  N2_14 
REMARK    4  A    between atoms: C12_16  and  C13_17 
REMARK    5  A    between atoms: C16_20  and  O1_21 
ROOT
HETATM    1  N2  UNL     1      22.726   4.027  50.808  1.00  0.00    -0.240 N 
HETATM    2  N3  UNL     1      23.807   3.130  50.777  1.00  0.00    -0.174 NA
HETATM    3  C12 UNL     1      23.687   2.426  51.890  1.00  0.00     0.067 C 
HETATM    4  C19 UNL     1      22.489   2.859  52.706  1.00  0.00     0.090 C 
HETATM    5  C20 UNL     1      22.182   4.210  52.092  1.00  0.00     0.126 C 
ENDROOT
BRANCH   3   6
HETATM    6  C13 UNL     1      24.610   1.343  52.301  1.00  0.00    -0.010 A 
HETATM    7  C14 UNL     1      24.189   0.398  53.198  1.00  0.00     0.016 A 
HETATM    8  C15 UNL     1      25.023  -0.625  53.605  1.00  0.00     0.037 A 
HETATM    9  C16 UNL     1      26.319  -0.613  53.030  1.00  0.00     0.065 A 
HETATM   10  C17 UNL     1      26.817   0.292  52.127  1.00  0.00     0.037 A 
HETATM   11  C18 UNL     1      25.890   1.290  51.779  1.00  0.00     0.016 A 
BRANCH   9  12
HETATM   12  O1  UNL     1      27.138  -1.651  53.457  1.00  0.00    -0.361 OA
HETATM   13  H12 UNL     1      28.061  -1.813  53.139  1.00  0.00     0.217 HD
ENDBRANCH   9  12
ENDBRANCH   3   6
BRANCH   1  14
HETATM   14  C11 UNL     1      22.642   4.367  49.411  1.00  0.00     0.190 A 
HETATM   15  S1  UNL     1      22.575   4.834  47.656  1.00  0.00    -0.020 SA
HETATM   16  C10 UNL     1      21.269   3.520  47.030  1.00  0.00     0.091 A 
HETATM   17  N1  UNL     1      21.942   3.716  48.914  1.00  0.00    -0.265 N 
HETATM   18  C9  UNL     1      21.167   3.001  48.345  1.00  0.00     0.042 A 
BRANCH  18  19
HETATM   19  C7  UNL     1      20.730   2.162  49.437  1.00  0.00     0.018 A 
HETATM   20  C6  UNL     1      21.521   1.000  49.433  1.00  0.00    -0.015 A 
HETATM   21  C5  UNL     1      21.168   0.233  50.534  1.00  0.00    -0.003 A 
HETATM   22  C4  UNL     1      20.189   0.564  51.483  1.00  0.00     0.003 A 
HETATM   23  C3  UNL     1      19.425   1.683  51.488  1.00  0.00    -0.068 A 
HETATM   24  C2  UNL     1      18.558   2.868  51.583  1.00  0.00     0.037 A 
HETATM   25  C8  UNL     1      19.766   2.395  50.470  1.00  0.00     0.086 A 
HETATM   26  C1  UNL     1      17.166   2.607  51.043  1.00  0.00     0.017 C 
ENDBRANCH  18  19
ENDBRANCH   1  14
TORSDOF 5
ENDMDL
