MODEL 1
REMARK VINA RESULT:      -8.1      0.000      0.000
REMARK  7 active torsions:
REMARK  status: ('A' for Active; 'I' for Inactive)
REMARK    1  A    between atoms: C2_2  and  C3_3 
REMARK       I    between atoms: C3_3  and  N1_5 
REMARK    2  A    between atoms: N1_5  and  C4_6 
REMARK    3  A    between atoms: C8_10  and  O2_11 
REMARK    4  A    between atoms: O2_11  and  C9_12 
REMARK    5  A    between atoms: C9_12  and  C10_13 
REMARK    6  A    between atoms: C12_16  and  N3_17 
REMARK    7  A    between atoms: C18_26  and  C19_27 
ROOT
HETATM    1  C10 UNL     1      23.155   4.378  51.129  1.00  0.00     0.060 A 
HETATM    2  C11 UNL     1      23.414   5.236  50.080  1.00  0.00     0.133 A 
HETATM    3  N2  UNL     1      23.604   5.996  48.866  1.00  0.00    -0.220 N 
HETATM    4  C12 UNL     1      23.003   5.803  47.773  1.00  0.00     0.140 A 
HETATM    5  C13 UNL     1      23.797   6.948  47.263  1.00  0.00     0.166 A 
HETATM    6  N4  UNL     1      24.357   7.093  48.380  1.00  0.00    -0.264 N 
HETATM    7  C14 UNL     1      25.326   8.030  48.783  1.00  0.00     0.140 C 
HETATM    8  C15 UNL     1      26.079   7.960  49.904  1.00  0.00     0.019 C 
HETATM    9  C16 UNL     1      27.077   9.008  50.233  1.00  0.00     0.069 C 
HETATM   10  N5  UNL     1      25.680   6.782  50.545  1.00  0.00    -0.380 N 
HETATM   11  C17 UNL     1      24.407   6.978  51.214  1.00  0.00     0.224 C 
HETATM   12  N6  UNL     1      23.792   5.644  51.356  1.00  0.00    -0.214 NA
HETATM   13  H17 UNL     1      26.523   6.264  50.239  1.00  0.00     0.160 HD
ENDROOT
BRANCH   1  14
HETATM   14  C9  UNL     1      22.588   3.066  51.529  1.00  0.00     0.230 C 
BRANCH  14  15
HETATM   15  O2  UNL     1      23.529   2.068  51.327  1.00  0.00    -0.345 OA
BRANCH  15  16
HETATM   16  C8  UNL     1      23.801   1.115  52.264  1.00  0.00     0.081 A 
HETATM   17  C7  UNL     1      23.009   0.462  53.157  1.00  0.00     0.038 A 
HETATM   18  C6  UNL     1      23.456  -0.487  54.042  1.00  0.00     0.005 A 
HETATM   19  C5  UNL     1      24.783  -0.849  54.080  1.00  0.00     0.030 A 
HETATM   20  C4  UNL     1      25.606  -0.219  53.203  1.00  0.00     0.048 A 
HETATM   21  C18 UNL     1      25.140   0.727  52.326  1.00  0.00     0.023 A 
BRANCH  20  22
HETATM   22  N1  UNL     1      27.003  -0.556  53.198  1.00  0.00    -0.323 N 
HETATM   23  C3  UNL     1      27.753   0.066  54.231  1.00  0.00     0.244 C 
HETATM   24  O1  UNL     1      27.022   0.807  54.961  1.00  0.00    -0.268 OA
HETATM   25  H4  UNL     1      27.488  -1.199  52.520  1.00  0.00     0.169 HD
BRANCH  23  26
HETATM   26  C2  UNL     1      29.167  -0.121  54.425  1.00  0.00     0.064 C 
HETATM   27  C1  UNL     1      29.952  -0.716  53.546  1.00  0.00     0.017 C 
ENDBRANCH  23  26
ENDBRANCH  20  22
BRANCH  21  28
HETATM   28  C19 UNL     1      26.136   1.309  51.452  1.00  0.00     0.006 C 
HETATM   29  C20 UNL     1      26.733   2.469  51.624  1.00  0.00     0.012 C 
ENDBRANCH  21  28
ENDBRANCH  15  16
ENDBRANCH  14  15
ENDBRANCH   1  14
BRANCH   4  30
HETATM   30  N3  UNL     1      22.070   5.109  46.951  1.00  0.00    -0.383 N 
HETATM   31  H10 UNL     1      22.697   5.087  46.115  1.00  0.00     0.157 HD
HETATM   32  H11 UNL     1      21.130   4.850  47.371  1.00  0.00     0.157 HD
ENDBRANCH   4  30
TORSDOF 7
ENDMDL
MODEL 2
REMARK VINA RESULT:      -8.0      1.374      2.949
REMARK  7 active torsions:
REMARK  status: ('A' for Active; 'I' for Inactive)
REMARK    1  A    between atoms: C2_2  and  C3_3 
REMARK       I    between atoms: C3_3  and  N1_5 
REMARK    2  A    between atoms: N1_5  and  C4_6 
REMARK    3  A    between atoms: C8_10  and  O2_11 
REMARK    4  A    between atoms: O2_11  and  C9_12 
REMARK    5  A    between atoms: C9_12  and  C10_13 
REMARK    6  A    between atoms: C12_16  and  N3_17 
REMARK    7  A    between atoms: C18_26  and  C19_27 
ROOT
HETATM    1  C10 UNL     1      22.423   2.801  51.052  1.00  0.00     0.060 A 
HETATM    2  C11 UNL     1      22.859   4.015  50.563  1.00  0.00     0.133 A 
HETATM    3  N2  UNL     1      23.317   5.347  50.239  1.00  0.00    -0.220 N 
HETATM    4  C12 UNL     1      23.844   6.162  51.047  1.00  0.00     0.140 A 
HETATM    5  C13 UNL     1      23.939   7.079  49.883  1.00  0.00     0.166 A 
HETATM    6  N4  UNL     1      23.414   6.220  49.129  1.00  0.00    -0.264 N 
HETATM    7  C14 UNL     1      23.119   6.294  47.755  1.00  0.00     0.140 C 
HETATM    8  C15 UNL     1      22.314   5.450  47.070  1.00  0.00     0.019 C 
HETATM    9  C16 UNL     1      22.071   5.621  45.617  1.00  0.00     0.069 C 
HETATM   10  N5  UNL     1      21.864   4.520  48.014  1.00  0.00    -0.380 N 
HETATM   11  C17 UNL     1      22.906   3.553  48.307  1.00  0.00     0.224 C 
HETATM   12  N6  UNL     1      22.610   3.001  49.643  1.00  0.00    -0.214 NA
HETATM   13  H17 UNL     1      20.930   4.963  48.087  1.00  0.00     0.160 HD
ENDROOT
BRANCH   1  14
HETATM   14  C9  UNL     1      22.064   2.024  52.265  1.00  0.00     0.230 C 
BRANCH  14  15
HETATM   15  O2  UNL     1      22.581   0.741  52.169  1.00  0.00    -0.345 OA
BRANCH  15  16
HETATM   16  C8  UNL     1      23.098   0.076  53.242  1.00  0.00     0.081 A 
HETATM   17  C7  UNL     1      22.517  -0.458  54.351  1.00  0.00     0.038 A 
HETATM   18  C6  UNL     1      23.201  -1.106  55.349  1.00  0.00     0.005 A 
HETATM   19  C5  UNL     1      24.566  -1.261  55.286  1.00  0.00     0.030 A 
HETATM   20  C4  UNL     1      25.183  -0.741  54.193  1.00  0.00     0.048 A 
HETATM   21  C18 UNL     1      24.482  -0.096  53.206  1.00  0.00     0.023 A 
BRANCH  20  22
HETATM   22  N1  UNL     1      26.609  -0.872  54.074  1.00  0.00    -0.323 N 
HETATM   23  C3  UNL     1      27.342   0.136  54.754  1.00  0.00     0.244 C 
HETATM   24  O1  UNL     1      26.574   0.962  55.338  1.00  0.00    -0.268 OA
HETATM   25  H4  UNL     1      27.125  -1.623  53.547  1.00  0.00     0.169 HD
BRANCH  23  26
HETATM   26  C2  UNL     1      28.780   0.210  54.776  1.00  0.00     0.064 C 
HETATM   27  C1  UNL     1      29.538  -0.010  53.718  1.00  0.00     0.017 C 
ENDBRANCH  23  26
ENDBRANCH  20  22
BRANCH  21  28
HETATM   28  C19 UNL     1      25.277   0.402  52.104  1.00  0.00     0.006 C 
HETATM   29  C20 UNL     1      25.724   1.631  51.966  1.00  0.00     0.012 C 
ENDBRANCH  21  28
ENDBRANCH  15  16
ENDBRANCH  14  15
ENDBRANCH   1  14
BRANCH   4  30
HETATM   30  N3  UNL     1      24.310   6.536  52.339  1.00  0.00    -0.383 N 
HETATM   31  H10 UNL     1      23.812   7.454  52.344  1.00  0.00     0.157 HD
HETATM   32  H11 UNL     1      24.946   5.860  52.855  1.00  0.00     0.157 HD
ENDBRANCH   4  30
TORSDOF 7
ENDMDL
MODEL 3
REMARK VINA RESULT:      -7.8      2.469      7.587
REMARK  7 active torsions:
REMARK  status: ('A' for Active; 'I' for Inactive)
REMARK    1  A    between atoms: C2_2  and  C3_3 
REMARK       I    between atoms: C3_3  and  N1_5 
REMARK    2  A    between atoms: N1_5  and  C4_6 
REMARK    3  A    between atoms: C8_10  and  O2_11 
REMARK    4  A    between atoms: O2_11  and  C9_12 
REMARK    5  A    between atoms: C9_12  and  C10_13 
REMARK    6  A    between atoms: C12_16  and  N3_17 
REMARK    7  A    between atoms: C18_26  and  C19_27 
ROOT
HETATM    1  C10 UNL     1      24.150   2.127  51.102  1.00  0.00     0.060 A 
HETATM    2  C11 UNL     1      24.490   1.272  52.130  1.00  0.00     0.133 A 
HETATM    3  N2  UNL     1      24.651   0.363  53.241  1.00  0.00    -0.220 N 
HETATM    4  C12 UNL     1      23.748  -0.370  53.732  1.00  0.00     0.140 A 
HETATM    5  C13 UNL     1      24.797  -0.839  54.672  1.00  0.00     0.166 A 
HETATM    6  N4  UNL     1      25.653  -0.089  54.135  1.00  0.00    -0.264 N 
HETATM    7  C14 UNL     1      27.012   0.089  54.449  1.00  0.00     0.140 C 
HETATM    8  C15 UNL     1      27.801   1.100  54.017  1.00  0.00     0.019 C 
HETATM    9  C16 UNL     1      29.228   1.192  54.413  1.00  0.00     0.069 C 
HETATM   10  N5  UNL     1      26.976   1.894  53.213  1.00  0.00    -0.380 N 
HETATM   11  C17 UNL     1      26.783   1.270  51.916  1.00  0.00     0.224 C 
HETATM   12  N6  UNL     1      25.524   1.809  51.368  1.00  0.00    -0.214 NA
HETATM   13  H17 UNL     1      26.864   2.618  53.944  1.00  0.00     0.160 HD
ENDROOT
BRANCH   1  14
HETATM   14  C9  UNL     1      23.040   2.797  50.379  1.00  0.00     0.230 C 
BRANCH  14  15
HETATM   15  O2  UNL     1      23.541   3.837  49.611  1.00  0.00    -0.345 OA
BRANCH  15  16
HETATM   16  C8  UNL     1      23.476   5.140  50.009  1.00  0.00     0.081 A 
HETATM   17  C7  UNL     1      22.425   5.972  50.243  1.00  0.00     0.038 A 
HETATM   18  C6  UNL     1      22.543   7.278  50.647  1.00  0.00     0.005 A 
HETATM   19  C5  UNL     1      23.780   7.847  50.846  1.00  0.00     0.030 A 
HETATM   20  C4  UNL     1      24.855   7.048  50.622  1.00  0.00     0.048 A 
HETATM   21  C18 UNL     1      24.716   5.744  50.219  1.00  0.00     0.023 A 
BRANCH  20  22
HETATM   22  N1  UNL     1      26.173   7.589  50.815  1.00  0.00    -0.323 N 
HETATM   23  C3  UNL     1      26.607   8.443  49.766  1.00  0.00     0.244 C 
HETATM   24  O1  UNL     1      25.726   8.555  48.857  1.00  0.00    -0.268 OA
HETATM   25  H4  UNL     1      26.808   7.409  51.634  1.00  0.00     0.169 HD
BRANCH  23  26
HETATM   26  C2  UNL     1      27.888   9.098  49.739  1.00  0.00     0.064 C 
HETATM   27  C1  UNL     1      28.775   8.930  48.777  1.00  0.00     0.017 C 
ENDBRANCH  23  26
ENDBRANCH  20  22
BRANCH  21  28
HETATM   28  C19 UNL     1      25.953   5.019  50.024  1.00  0.00     0.006 C 
HETATM   29  C20 UNL     1      26.602   4.890  48.887  1.00  0.00     0.012 C 
ENDBRANCH  21  28
ENDBRANCH  15  16
ENDBRANCH  14  15
ENDBRANCH   1  14
BRANCH   4  30
HETATM   30  N3  UNL     1      22.416  -0.869  53.782  1.00  0.00    -0.383 N 
HETATM   31  H10 UNL     1      22.669  -1.725  54.323  1.00  0.00     0.157 HD
HETATM   32  H11 UNL     1      21.651  -0.298  53.315  1.00  0.00     0.157 HD
ENDBRANCH   4  30
TORSDOF 7
ENDMDL
MODEL 4
REMARK VINA RESULT:      -7.7      1.933      2.800
REMARK  7 active torsions:
REMARK  status: ('A' for Active; 'I' for Inactive)
REMARK    1  A    between atoms: C2_2  and  C3_3 
REMARK       I    between atoms: C3_3  and  N1_5 
REMARK    2  A    between atoms: N1_5  and  C4_6 
REMARK    3  A    between atoms: C8_10  and  O2_11 
REMARK    4  A    between atoms: O2_11  and  C9_12 
REMARK    5  A    between atoms: C9_12  and  C10_13 
REMARK    6  A    between atoms: C12_16  and  N3_17 
REMARK    7  A    between atoms: C18_26  and  C19_27 
ROOT
HETATM    1  C10 UNL     1      22.402   5.041  51.428  1.00  0.00     0.060 A 
HETATM    2  C11 UNL     1      22.877   6.182  50.815  1.00  0.00     0.133 A 
HETATM    3  N2  UNL     1      23.538   7.350  50.280  1.00  0.00    -0.220 N 
HETATM    4  C12 UNL     1      24.779   7.580  50.324  1.00  0.00     0.140 A 
HETATM    5  C13 UNL     1      24.457   8.836  49.600  1.00  0.00     0.166 A 
HETATM    6  N4  UNL     1      23.232   8.546  49.586  1.00  0.00    -0.264 N 
HETATM    7  C14 UNL     1      22.148   9.262  49.047  1.00  0.00     0.140 C 
HETATM    8  C15 UNL     1      20.840   9.030  49.301  1.00  0.00     0.019 C 
HETATM    9  C16 UNL     1      19.773   9.851  48.677  1.00  0.00     0.069 C 
HETATM   10  N5  UNL     1      20.821   7.951  50.191  1.00  0.00    -0.380 N 
HETATM   11  C17 UNL     1      21.073   6.709  49.483  1.00  0.00     0.224 C 
HETATM   12  N6  UNL     1      21.598   5.752  50.476  1.00  0.00    -0.214 NA
HETATM   13  H17 UNL     1      20.623   8.555  51.009  1.00  0.00     0.160 HD
ENDROOT
BRANCH   1  14
HETATM   14  C9  UNL     1      22.696   3.957  52.399  1.00  0.00     0.230 C 
BRANCH  14  15
HETATM   15  O2  UNL     1      23.656   3.105  51.873  1.00  0.00    -0.345 OA
BRANCH  15  16
HETATM   16  C8  UNL     1      23.912   1.873  52.399  1.00  0.00     0.081 A 
HETATM   17  C7  UNL     1      23.098   0.923  52.934  1.00  0.00     0.038 A 
HETATM   18  C6  UNL     1      23.532  -0.284  53.425  1.00  0.00     0.005 A 
HETATM   19  C5  UNL     1      24.867  -0.617  53.405  1.00  0.00     0.030 A 
HETATM   20  C4  UNL     1      25.711   0.307  52.878  1.00  0.00     0.048 A 
HETATM   21  C18 UNL     1      25.258   1.508  52.392  1.00  0.00     0.023 A 
BRANCH  20  22
HETATM   22  N1  UNL     1      27.117   0.014  52.831  1.00  0.00    -0.323 N 
HETATM   23  C3  UNL     1      27.800   0.255  54.053  1.00  0.00     0.244 C 
HETATM   24  O1  UNL     1      27.015   0.688  54.952  1.00  0.00    -0.268 OA
HETATM   25  H4  UNL     1      27.652  -0.349  52.001  1.00  0.00     0.169 HD
BRANCH  23  26
HETATM   26  C2  UNL     1      29.210   0.035  54.244  1.00  0.00     0.064 C 
HETATM   27  C1  UNL     1      29.913  -0.841  53.550  1.00  0.00     0.017 C 
ENDBRANCH  23  26
ENDBRANCH  20  22
BRANCH  21  28
HETATM   28  C19 UNL     1      26.277   2.387  51.861  1.00  0.00     0.006 C 
HETATM   29  C20 UNL     1      26.479   2.659  50.590  1.00  0.00     0.012 C 
ENDBRANCH  21  28
ENDBRANCH  15  16
ENDBRANCH  14  15
ENDBRANCH   1  14
BRANCH   4  30
HETATM   30  N3  UNL     1      26.113   7.241  50.684  1.00  0.00    -0.383 N 
HETATM   31  H10 UNL     1      26.019   7.570  51.670  1.00  0.00     0.157 HD
HETATM   32  H11 UNL     1      26.737   6.809  49.940  1.00  0.00     0.157 HD
ENDBRANCH   4  30
TORSDOF 7
ENDMDL
MODEL 5
REMARK VINA RESULT:      -7.7      3.828      7.892
REMARK  7 active torsions:
REMARK  status: ('A' for Active; 'I' for Inactive)
REMARK    1  A    between atoms: C2_2  and  C3_3 
REMARK       I    between atoms: C3_3  and  N1_5 
REMARK    2  A    between atoms: N1_5  and  C4_6 
REMARK    3  A    between atoms: C8_10  and  O2_11 
REMARK    4  A    between atoms: O2_11  and  C9_12 
REMARK    5  A    between atoms: C9_12  and  C10_13 
REMARK    6  A    between atoms: C12_16  and  N3_17 
REMARK    7  A    between atoms: C18_26  and  C19_27 
ROOT
HETATM    1  C10 UNL     1      23.469  -0.570  53.816  1.00  0.00     0.060 A 
HETATM    2  C11 UNL     1      24.451   0.213  53.246  1.00  0.00     0.133 A 
HETATM    3  N2  UNL     1      25.341   1.088  52.517  1.00  0.00    -0.220 N 
HETATM    4  C12 UNL     1      24.989   2.000  51.719  1.00  0.00     0.140 A 
HETATM    5  C13 UNL     1      26.442   2.258  51.551  1.00  0.00     0.166 A 
HETATM    6  N4  UNL     1      26.726   1.338  52.361  1.00  0.00    -0.264 N 
HETATM    7  C14 UNL     1      27.985   0.889  52.800  1.00  0.00     0.140 C 
HETATM    8  C15 UNL     1      28.230  -0.270  53.454  1.00  0.00     0.019 C 
HETATM    9  C16 UNL     1      29.602  -0.648  53.872  1.00  0.00     0.069 C 
HETATM   10  N5  UNL     1      26.983  -0.890  53.586  1.00  0.00    -0.380 N 
HETATM   11  C17 UNL     1      26.217  -0.262  54.647  1.00  0.00     0.224 C 
HETATM   12  N6  UNL     1      24.795  -0.538  54.366  1.00  0.00    -0.214 NA
HETATM   13  H17 UNL     1      27.173  -1.564  52.823  1.00  0.00     0.160 HD
ENDROOT
BRANCH   1  14
HETATM   14  C9  UNL     1      22.053  -1.008  53.743  1.00  0.00     0.230 C 
BRANCH  14  15
HETATM   15  O2  UNL     1      21.278   0.003  53.195  1.00  0.00    -0.345 OA
BRANCH  15  16
HETATM   16  C8  UNL     1      20.003  -0.205  52.758  1.00  0.00     0.081 A 
HETATM   17  C7  UNL     1      18.945  -0.861  53.309  1.00  0.00     0.038 A 
HETATM   18  C6  UNL     1      17.710  -0.973  52.721  1.00  0.00     0.005 A 
HETATM   19  C5  UNL     1      17.458  -0.408  51.492  1.00  0.00     0.030 A 
HETATM   20  C4  UNL     1      18.489   0.256  50.910  1.00  0.00     0.048 A 
HETATM   21  C18 UNL     1      19.717   0.358  51.514  1.00  0.00     0.023 A 
BRANCH  20  22
HETATM   22  N1  UNL     1      18.284   0.867  49.626  1.00  0.00    -0.323 N 
HETATM   23  C3  UNL     1      17.659   2.142  49.684  1.00  0.00     0.244 C 
HETATM   24  O1  UNL     1      17.406   2.486  50.881  1.00  0.00    -0.268 OA
HETATM   25  H4  UNL     1      18.548   0.462  48.692  1.00  0.00     0.169 HD
BRANCH  23  26
HETATM   26  C2  UNL     1      17.352   2.942  48.528  1.00  0.00     0.064 C 
HETATM   27  C1  UNL     1      18.269   3.440  47.721  1.00  0.00     0.017 C 
ENDBRANCH  23  26
ENDBRANCH  20  22
BRANCH  21  28
HETATM   28  C19 UNL     1      20.715   1.097  50.772  1.00  0.00     0.006 C 
HETATM   29  C20 UNL     1      21.505   0.609  49.840  1.00  0.00     0.012 C 
ENDBRANCH  21  28
ENDBRANCH  15  16
ENDBRANCH  14  15
ENDBRANCH   1  14
BRANCH   4  30
HETATM   30  N3  UNL     1      24.006   2.763  51.029  1.00  0.00    -0.383 N 
HETATM   31  H10 UNL     1      24.514   3.669  51.136  1.00  0.00     0.157 HD
HETATM   32  H11 UNL     1      23.151   2.255  50.656  1.00  0.00     0.157 HD
ENDBRANCH   4  30
TORSDOF 7
ENDMDL
MODEL 6
REMARK VINA RESULT:      -7.5      2.666      8.620
REMARK  7 active torsions:
REMARK  status: ('A' for Active; 'I' for Inactive)
REMARK    1  A    between atoms: C2_2  and  C3_3 
REMARK       I    between atoms: C3_3  and  N1_5 
REMARK    2  A    between atoms: N1_5  and  C4_6 
REMARK    3  A    between atoms: C8_10  and  O2_11 
REMARK    4  A    between atoms: O2_11  and  C9_12 
REMARK    5  A    between atoms: C9_12  and  C10_13 
REMARK    6  A    between atoms: C12_16  and  N3_17 
REMARK    7  A    between atoms: C18_26  and  C19_27 
ROOT
HETATM    1  C10 UNL     1      25.544   2.087  51.553  1.00  0.00     0.060 A 
HETATM    2  C11 UNL     1      25.152   1.202  52.537  1.00  0.00     0.133 A 
HETATM    3  N2  UNL     1      24.930   0.214  53.567  1.00  0.00    -0.220 N 
HETATM    4  C12 UNL     1      25.825  -0.331  54.272  1.00  0.00     0.140 A 
HETATM    5  C13 UNL     1      24.709  -1.064  54.921  1.00  0.00     0.166 A 
HETATM    6  N4  UNL     1      23.866  -0.482  54.190  1.00  0.00    -0.264 N 
HETATM    7  C14 UNL     1      22.466  -0.615  54.157  1.00  0.00     0.140 C 
HETATM    8  C15 UNL     1      21.650  -0.170  53.174  1.00  0.00     0.019 C 
HETATM    9  C16 UNL     1      20.181  -0.365  53.240  1.00  0.00     0.069 C 
HETATM   10  N5  UNL     1      22.495   0.432  52.235  1.00  0.00    -0.380 N 
HETATM   11  C17 UNL     1      22.919   1.739  52.702  1.00  0.00     0.224 C 
HETATM   12  N6  UNL     1      24.183   2.050  52.008  1.00  0.00    -0.214 NA
HETATM   13  H17 UNL     1      22.439  -0.373  51.585  1.00  0.00     0.160 HD
ENDROOT
BRANCH   1  14
HETATM   14  C9  UNL     1      26.672   2.579  50.724  1.00  0.00     0.230 C 
BRANCH  14  15
HETATM   15  O2  UNL     1      26.180   3.229  49.602  1.00  0.00    -0.345 OA
BRANCH  15  16
HETATM   16  C8  UNL     1      26.650   4.442  49.192  1.00  0.00     0.081 A 
HETATM   17  C7  UNL     1      27.823   4.819  48.616  1.00  0.00     0.038 A 
HETATM   18  C6  UNL     1      28.135   6.107  48.260  1.00  0.00     0.005 A 
HETATM   19  C5  UNL     1      27.245   7.135  48.474  1.00  0.00     0.030 A 
HETATM   20  C4  UNL     1      26.062   6.798  49.048  1.00  0.00     0.048 A 
HETATM   21  C18 UNL     1      25.769   5.504  49.396  1.00  0.00     0.023 A 
BRANCH  20  22
HETATM   22  N1  UNL     1      25.093   7.831  49.296  1.00  0.00    -0.323 N 
HETATM   23  C3  UNL     1      24.326   8.190  48.156  1.00  0.00     0.244 C 
HETATM   24  O1  UNL     1      24.659   7.513  47.133  1.00  0.00    -0.268 OA
HETATM   25  H4  UNL     1      24.918   8.316  50.212  1.00  0.00     0.169 HD
BRANCH  23  26
HETATM   26  C2  UNL     1      23.299   9.198  48.162  1.00  0.00     0.064 C 
HETATM   27  C1  UNL     1      22.235   9.152  48.942  1.00  0.00     0.017 C 
ENDBRANCH  23  26
ENDBRANCH  20  22
BRANCH  21  28
HETATM   28  C19 UNL     1      24.468   5.302  49.996  1.00  0.00     0.006 C 
HETATM   29  C20 UNL     1      23.413   4.788  49.403  1.00  0.00     0.012 C 
ENDBRANCH  21  28
ENDBRANCH  15  16
ENDBRANCH  14  15
ENDBRANCH   1  14
BRANCH   4  30
HETATM   30  N3  UNL     1      27.180  -0.525  54.663  1.00  0.00    -0.383 N 
HETATM   31  H10 UNL     1      27.462   0.463  54.475  1.00  0.00     0.157 HD
HETATM   32  H11 UNL     1      27.472  -1.493  54.989  1.00  0.00     0.157 HD
ENDBRANCH   4  30
TORSDOF 7
ENDMDL
MODEL 7
REMARK VINA RESULT:      -7.5      3.246      5.167
REMARK  7 active torsions:
REMARK  status: ('A' for Active; 'I' for Inactive)
REMARK    1  A    between atoms: C2_2  and  C3_3 
REMARK       I    between atoms: C3_3  and  N1_5 
REMARK    2  A    between atoms: N1_5  and  C4_6 
REMARK    3  A    between atoms: C8_10  and  O2_11 
REMARK    4  A    between atoms: O2_11  and  C9_12 
REMARK    5  A    between atoms: C9_12  and  C10_13 
REMARK    6  A    between atoms: C12_16  and  N3_17 
REMARK    7  A    between atoms: C18_26  and  C19_27 
ROOT
HETATM    1  C10 UNL     1      27.156   4.662  48.954  1.00  0.00     0.060 A 
HETATM    2  C11 UNL     1      28.249   5.403  48.552  1.00  0.00     0.133 A 
HETATM    3  N2  UNL     1      29.496   6.009  48.148  1.00  0.00    -0.220 N 
HETATM    4  C12 UNL     1      30.518   5.392  47.736  1.00  0.00     0.140 A 
HETATM    5  C13 UNL     1      31.136   6.735  47.602  1.00  0.00     0.166 A 
HETATM    6  N4  UNL     1      30.085   7.290  48.014  1.00  0.00    -0.264 N 
HETATM    7  C14 UNL     1      29.808   8.656  48.202  1.00  0.00     0.140 C 
HETATM    8  C15 UNL     1      28.767   9.166  48.899  1.00  0.00     0.019 C 
HETATM    9  C16 UNL     1      28.569  10.630  49.036  1.00  0.00     0.069 C 
HETATM   10  N5  UNL     1      28.057   8.055  49.369  1.00  0.00    -0.380 N 
HETATM   11  C17 UNL     1      27.269   7.471  48.299  1.00  0.00     0.224 C 
HETATM   12  N6  UNL     1      27.029   6.063  48.667  1.00  0.00    -0.214 NA
HETATM   13  H17 UNL     1      28.432   8.151  50.329  1.00  0.00     0.160 HD
ENDROOT
BRANCH   1  14
HETATM   14  C9  UNL     1      26.665   3.322  49.362  1.00  0.00     0.230 C 
BRANCH  14  15
HETATM   15  O2  UNL     1      25.697   3.458  50.346  1.00  0.00    -0.345 OA
BRANCH  15  16
HETATM   16  C8  UNL     1      24.485   2.837  50.274  1.00  0.00     0.081 A 
HETATM   17  C7  UNL     1      23.445   2.963  49.406  1.00  0.00     0.038 A 
HETATM   18  C6  UNL     1      22.279   2.244  49.482  1.00  0.00     0.005 A 
HETATM   19  C5  UNL     1      22.084   1.316  50.479  1.00  0.00     0.030 A 
HETATM   20  C4  UNL     1      23.100   1.161  51.366  1.00  0.00     0.048 A 
HETATM   21  C18 UNL     1      24.259   1.890  51.273  1.00  0.00     0.023 A 
BRANCH  20  22
HETATM   22  N1  UNL     1      22.952   0.206  52.430  1.00  0.00    -0.323 N 
HETATM   23  C3  UNL     1      21.938   0.536  53.368  1.00  0.00     0.244 C 
HETATM   24  O1  UNL     1      21.359   1.627  53.069  1.00  0.00    -0.268 OA
HETATM   25  H4  UNL     1      23.511  -0.676  52.559  1.00  0.00     0.169 HD
BRANCH  23  26
HETATM   26  C2  UNL     1      21.609  -0.269  54.514  1.00  0.00     0.064 C 
HETATM   27  C1  UNL     1      21.083  -1.477  54.432  1.00  0.00     0.017 C 
ENDBRANCH  23  26
ENDBRANCH  20  22
BRANCH  21  28
HETATM   28  C19 UNL     1      25.250   1.612  52.289  1.00  0.00     0.006 C 
HETATM   29  C20 UNL     1      26.277   0.798  52.167  1.00  0.00     0.012 C 
ENDBRANCH  21  28
ENDBRANCH  15  16
ENDBRANCH  14  15
ENDBRANCH   1  14
BRANCH   4  30
HETATM   30  N3  UNL     1      31.222   4.203  47.397  1.00  0.00    -0.383 N 
HETATM   31  H10 UNL     1      31.520   4.548  46.458  1.00  0.00     0.157 HD
HETATM   32  H11 UNL     1      31.238   3.412  48.107  1.00  0.00     0.157 HD
ENDBRANCH   4  30
TORSDOF 7
ENDMDL
MODEL 8
REMARK VINA RESULT:      -7.5      2.822      9.005
REMARK  7 active torsions:
REMARK  status: ('A' for Active; 'I' for Inactive)
REMARK    1  A    between atoms: C2_2  and  C3_3 
REMARK       I    between atoms: C3_3  and  N1_5 
REMARK    2  A    between atoms: N1_5  and  C4_6 
REMARK    3  A    between atoms: C8_10  and  O2_11 
REMARK    4  A    between atoms: O2_11  and  C9_12 
REMARK    5  A    between atoms: C9_12  and  C10_13 
REMARK    6  A    between atoms: C12_16  and  N3_17 
REMARK    7  A    between atoms: C18_26  and  C19_27 
ROOT
HETATM    1  C10 UNL     1      26.089   2.346  50.950  1.00  0.00     0.060 A 
HETATM    2  C11 UNL     1      26.417   1.655  52.099  1.00  0.00     0.133 A 
HETATM    3  N2  UNL     1      26.947   0.938  53.236  1.00  0.00    -0.220 N 
HETATM    4  C12 UNL     1      28.157   0.913  53.593  1.00  0.00     0.140 A 
HETATM    5  C13 UNL     1      27.695   0.039  54.700  1.00  0.00     0.166 A 
HETATM    6  N4  UNL     1      26.506   0.108  54.295  1.00  0.00    -0.264 N 
HETATM    7  C14 UNL     1      25.344  -0.482  54.823  1.00  0.00     0.140 C 
HETATM    8  C15 UNL     1      24.152  -0.591  54.191  1.00  0.00     0.019 C 
HETATM    9  C16 UNL     1      22.986  -1.237  54.843  1.00  0.00     0.069 C 
HETATM   10  N5  UNL     1      24.342   0.002  52.938  1.00  0.00    -0.380 N 
HETATM   11  C17 UNL     1      24.333   1.448  53.059  1.00  0.00     0.224 C 
HETATM   12  N6  UNL     1      25.077   1.976  51.899  1.00  0.00    -0.214 NA
HETATM   13  H17 UNL     1      24.408  -0.911  52.453  1.00  0.00     0.160 HD
ENDROOT
BRANCH   1  14
HETATM   14  C9  UNL     1      26.601   2.959  49.699  1.00  0.00     0.230 C 
BRANCH  14  15
HETATM   15  O2  UNL     1      26.262   4.304  49.665  1.00  0.00    -0.345 OA
BRANCH  15  16
HETATM   16  C8  UNL     1      26.973   5.221  48.948  1.00  0.00     0.081 A 
HETATM   17  C7  UNL     1      28.269   5.251  48.535  1.00  0.00     0.038 A 
HETATM   18  C6  UNL     1      28.829   6.271  47.807  1.00  0.00     0.005 A 
HETATM   19  C5  UNL     1      28.084   7.367  47.438  1.00  0.00     0.030 A 
HETATM   20  C4  UNL     1      26.784   7.374  47.832  1.00  0.00     0.048 A 
HETATM   21  C18 UNL     1      26.243   6.344  48.559  1.00  0.00     0.023 A 
BRANCH  20  22
HETATM   22  N1  UNL     1      25.958   8.495  47.474  1.00  0.00    -0.323 N 
HETATM   23  C3  UNL     1      26.193   9.659  48.252  1.00  0.00     0.244 C 
HETATM   24  O1  UNL     1      27.102   9.469  49.119  1.00  0.00    -0.268 OA
HETATM   25  H4  UNL     1      25.228   8.516  46.717  1.00  0.00     0.169 HD
BRANCH  23  26
HETATM   26  C2  UNL     1      25.487  10.901  48.076  1.00  0.00     0.064 C 
HETATM   27  C1  UNL     1      26.068  12.085  48.131  1.00  0.00     0.017 C 
ENDBRANCH  23  26
ENDBRANCH  20  22
BRANCH  21  28
HETATM   28  C19 UNL     1      24.846   6.494  48.903  1.00  0.00     0.006 C 
HETATM   29  C20 UNL     1      23.823   6.084  48.184  1.00  0.00     0.012 C 
ENDBRANCH  21  28
ENDBRANCH  15  16
ENDBRANCH  14  15
ENDBRANCH   1  14
BRANCH   4  30
HETATM   30  N3  UNL     1      29.524   1.281  53.446  1.00  0.00    -0.383 N 
HETATM   31  H10 UNL     1      29.893   0.398  53.864  1.00  0.00     0.157 HD
HETATM   32  H11 UNL     1      29.744   2.225  53.012  1.00  0.00     0.157 HD
ENDBRANCH   4  30
TORSDOF 7
ENDMDL
MODEL 9
REMARK VINA RESULT:      -7.4      2.845      8.290
REMARK  7 active torsions:
REMARK  status: ('A' for Active; 'I' for Inactive)
REMARK    1  A    between atoms: C2_2  and  C3_3 
REMARK       I    between atoms: C3_3  and  N1_5 
REMARK    2  A    between atoms: N1_5  and  C4_6 
REMARK    3  A    between atoms: C8_10  and  O2_11 
REMARK    4  A    between atoms: O2_11  and  C9_12 
REMARK    5  A    between atoms: C9_12  and  C10_13 
REMARK    6  A    between atoms: C12_16  and  N3_17 
REMARK    7  A    between atoms: C18_26  and  C19_27 
ROOT
HETATM    1  C10 UNL     1      23.357   2.846  50.365  1.00  0.00     0.060 A 
HETATM    2  C11 UNL     1      23.981   2.165  51.390  1.00  0.00     0.133 A 
HETATM    3  N2  UNL     1      24.805   1.508  52.378  1.00  0.00    -0.220 N 
HETATM    4  C12 UNL     1      26.025   1.744  52.596  1.00  0.00     0.140 A 
HETATM    5  C13 UNL     1      25.924   0.700  53.646  1.00  0.00     0.166 A 
HETATM    6  N4  UNL     1      24.707   0.515  53.384  1.00  0.00    -0.264 N 
HETATM    7  C14 UNL     1      23.789  -0.375  53.969  1.00  0.00     0.140 C 
HETATM    8  C15 UNL     1      22.581  -0.715  53.463  1.00  0.00     0.019 C 
HETATM    9  C16 UNL     1      21.689  -1.670  54.165  1.00  0.00     0.069 C 
HETATM   10  N5  UNL     1      22.465   0.003  52.268  1.00  0.00    -0.380 N 
HETATM   11  C17 UNL     1      22.144   1.392  52.544  1.00  0.00     0.224 C 
HETATM   12  N6  UNL     1      22.589   2.172  51.373  1.00  0.00    -0.214 NA
HETATM   13  H17 UNL     1      22.672  -0.826  51.684  1.00  0.00     0.160 HD
ENDROOT
BRANCH   1  14
HETATM   14  C9  UNL     1      23.547   3.661  49.139  1.00  0.00     0.230 C 
BRANCH  14  15
HETATM   15  O2  UNL     1      24.124   4.877  49.470  1.00  0.00    -0.345 OA
BRANCH  15  16
HETATM   16  C8  UNL     1      25.394   5.212  49.102  1.00  0.00     0.081 A 
HETATM   17  C7  UNL     1      26.553   4.499  49.076  1.00  0.00     0.038 A 
HETATM   18  C6  UNL     1      27.764   5.001  48.668  1.00  0.00     0.005 A 
HETATM   19  C5  UNL     1      27.882   6.305  48.245  1.00  0.00     0.030 A 
HETATM   20  C4  UNL     1      26.746   7.049  48.258  1.00  0.00     0.048 A 
HETATM   21  C18 UNL     1      25.545   6.528  48.669  1.00  0.00     0.023 A 
BRANCH  20  22
HETATM   22  N1  UNL     1      26.809   8.419  47.827  1.00  0.00    -0.323 N 
HETATM   23  C3  UNL     1      27.276   9.318  48.823  1.00  0.00     0.244 C 
HETATM   24  O1  UNL     1      27.546   8.717  49.909  1.00  0.00    -0.268 OA
HETATM   25  H4  UNL     1      26.549   8.787  46.877  1.00  0.00     0.169 HD
BRANCH  23  26
HETATM   26  C2  UNL     1      27.423  10.735  48.622  1.00  0.00     0.064 C 
HETATM   27  C1  UNL     1      26.459  11.512  48.165  1.00  0.00     0.017 C 
ENDBRANCH  23  26
ENDBRANCH  20  22
BRANCH  21  28
HETATM   28  C19 UNL     1      24.424   7.442  48.624  1.00  0.00     0.006 C 
HETATM   29  C20 UNL     1      23.930   8.113  49.643  1.00  0.00     0.012 C 
ENDBRANCH  21  28
ENDBRANCH  15  16
ENDBRANCH  14  15
ENDBRANCH   1  14
BRANCH   4  30
HETATM   30  N3  UNL     1      27.242   2.438  52.341  1.00  0.00    -0.383 N 
HETATM   31  H10 UNL     1      27.508   1.840  51.527  1.00  0.00     0.157 HD
HETATM   32  H11 UNL     1      27.492   3.255  52.972  1.00  0.00     0.157 HD
ENDBRANCH   4  30
TORSDOF 7
ENDMDL
