MODEL 1
REMARK VINA RESULT:      -8.6      0.000      0.000
REMARK  4 active torsions:
REMARK  status: ('A' for Active; 'I' for Inactive)
REMARK       I    between atoms: N2_12  and  C11_13 
REMARK    1  A    between atoms: C11_13  and  C12_15 
REMARK    2  A    between atoms: C12_15  and  N3_16 
REMARK    3  A    between atoms: N3_16  and  C13_17 
REMARK    4  A    between atoms: C18_22  and  O2_23 
ROOT
HETATM    1  C12 UNL     1      23.409   5.443  49.458  1.00  0.00     0.213 A 
HETATM    2  C20 UNL     1      21.998   5.794  49.173  1.00  0.00     0.041 A 
HETATM    3  C21 UNL     1      21.471   6.717  50.008  1.00  0.00     0.090 A 
HETATM    4  N4  UNL     1      22.500   7.086  50.953  1.00  0.00    -0.335 N 
HETATM    5  C22 UNL     1      23.685   6.326  50.636  1.00  0.00     0.263 A 
HETATM    6  O3  UNL     1      24.579   6.676  51.488  1.00  0.00    -0.269 OA
HETATM    7  H26 UNL     1      22.091   7.792  51.593  1.00  0.00     0.168 HD
ENDROOT
BRANCH   1   8
HETATM    8  C11 UNL     1      23.557   4.058  49.939  1.00  0.00     0.262 C 
HETATM    9  N2  UNL     1      23.264   3.346  51.118  1.00  0.00    -0.338 N 
HETATM   10  C10 UNL     1      22.635   3.714  52.396  1.00  0.00     0.153 C 
HETATM   11  C23 UNL     1      23.628   1.945  51.258  1.00  0.00     0.130 C 
HETATM   12  C9  UNL     1      23.722   3.945  53.390  1.00  0.00    -0.008 C 
HETATM   13  C8  UNL     1      24.516   2.878  53.378  1.00  0.00     0.019 C 
HETATM   14  C7  UNL     1      24.380   1.649  52.537  1.00  0.00     0.218 C 
HETATM   15  C2  UNL     1      25.748   1.226  52.163  1.00  0.00    -0.041 C 
HETATM   16  N1  UNL     1      23.650   0.664  53.265  1.00  0.00     0.103 N 
HETATM   17  C1  UNL     1      26.476   1.728  51.174  1.00  0.00     0.017 C 
HETATM   18  C3  UNL     1      26.559   0.174  52.810  1.00  0.00     0.014 C 
HETATM   19  C4  UNL     1      26.825  -1.009  51.935  1.00  0.00     0.015 C 
HETATM   20  C5  UNL     1      25.819  -0.187  54.093  1.00  0.00     0.039 C 
HETATM   21  C6  UNL     1      24.390  -0.453  53.731  1.00  0.00     0.272 C 
HETATM   22  H11 UNL     1      23.102   1.140  54.010  1.00  0.00     0.317 HD
HETATM   23  C24 UNL     1      22.368   1.073  51.162  1.00  0.00     0.036 C 
HETATM   24  O1  UNL     1      24.090   3.388  49.002  1.00  0.00    -0.270 OA
ENDBRANCH   1   8
BRANCH   1  25
HETATM   25  N3  UNL     1      24.336   5.726  48.429  1.00  0.00    -0.359 N 
HETATM   26  H16 UNL     1      24.041   5.408  47.461  1.00  0.00     0.161 HD
BRANCH  25  27
HETATM   27  C13 UNL     1      25.574   6.326  48.250  1.00  0.00     0.063 A 
HETATM   28  C14 UNL     1      26.670   5.578  48.521  1.00  0.00     0.032 A 
HETATM   29  C15 UNL     1      28.078   5.614  48.536  1.00  0.00     0.002 A 
HETATM   30  C16 UNL     1      28.275   7.002  48.079  1.00  0.00     0.003 A 
HETATM   31  C17 UNL     1      27.258   7.963  47.738  1.00  0.00     0.039 A 
HETATM   32  C18 UNL     1      25.907   7.588  47.836  1.00  0.00     0.094 A 
BRANCH  32  33
HETATM   33  O2  UNL     1      24.804   8.368  47.553  1.00  0.00    -0.354 OA
HETATM   34  C19 UNL     1      24.446   9.330  48.527  1.00  0.00     0.210 C 
ENDBRANCH  32  33
ENDBRANCH  25  27
ENDBRANCH   1  25
TORSDOF 4
ENDMDL
MODEL 2
REMARK VINA RESULT:      -8.5      2.014      2.704
REMARK  4 active torsions:
REMARK  status: ('A' for Active; 'I' for Inactive)
REMARK       I    between atoms: N2_12  and  C11_13 
REMARK    1  A    between atoms: C11_13  and  C12_15 
REMARK    2  A    between atoms: C12_15  and  N3_16 
REMARK    3  A    between atoms: N3_16  and  C13_17 
REMARK    4  A    between atoms: C18_22  and  O2_23 
ROOT
HETATM    1  C12 UNL     1      23.840   5.142  49.258  1.00  0.00     0.213 A 
HETATM    2  C20 UNL     1      23.375   5.497  47.897  1.00  0.00     0.041 A 
HETATM    3  C21 UNL     1      22.506   6.531  47.855  1.00  0.00     0.090 A 
HETATM    4  N4  UNL     1      22.300   6.982  49.212  1.00  0.00    -0.335 N 
HETATM    5  C22 UNL     1      23.103   6.154  50.079  1.00  0.00     0.263 A 
HETATM    6  O3  UNL     1      22.902   6.579  51.275  1.00  0.00    -0.269 OA
HETATM    7  H26 UNL     1      21.631   7.773  49.176  1.00  0.00     0.168 HD
ENDROOT
BRANCH   1   8
HETATM    8  C11 UNL     1      23.350   3.822  49.693  1.00  0.00     0.262 C 
HETATM    9  N2  UNL     1      22.108   3.253  50.032  1.00  0.00    -0.338 N 
HETATM   10  C10 UNL     1      20.729   3.766  50.063  1.00  0.00     0.153 C 
HETATM   11  C23 UNL     1      22.015   1.878  50.496  1.00  0.00     0.130 C 
HETATM   12  C9  UNL     1      20.402   4.112  51.475  1.00  0.00    -0.008 C 
HETATM   13  C8  UNL     1      20.682   3.052  52.228  1.00  0.00     0.019 C 
HETATM   14  C7  UNL     1      21.225   1.733  51.779  1.00  0.00     0.218 C 
HETATM   15  C2  UNL     1      22.161   1.270  52.829  1.00  0.00    -0.041 C 
HETATM   16  N1  UNL     1      20.142   0.839  51.537  1.00  0.00     0.103 N 
HETATM   17  C1  UNL     1      23.422   1.654  52.974  1.00  0.00     0.017 C 
HETATM   18  C3  UNL     1      21.874   0.301  53.907  1.00  0.00     0.014 C 
HETATM   19  C4  UNL     1      22.644  -0.976  53.793  1.00  0.00     0.015 C 
HETATM   20  C5  UNL     1      20.364   0.092  53.883  1.00  0.00     0.039 C 
HETATM   21  C6  UNL     1      19.973  -0.215  52.470  1.00  0.00     0.272 C 
HETATM   22  H11 UNL     1      19.279   1.398  51.380  1.00  0.00     0.317 HD
HETATM   23  C24 UNL     1      21.410   1.000  49.392  1.00  0.00     0.036 C 
HETATM   24  O1  UNL     1      24.353   3.048  49.756  1.00  0.00    -0.270 OA
ENDBRANCH   1   8
BRANCH   1  25
HETATM   25  N3  UNL     1      25.229   5.269  49.488  1.00  0.00    -0.359 N 
HETATM   26  H16 UNL     1      25.595   4.737  50.330  1.00  0.00     0.161 HD
BRANCH  25  27
HETATM   27  C13 UNL     1      26.344   5.888  48.942  1.00  0.00     0.063 A 
HETATM   28  C14 UNL     1      27.425   5.111  48.693  1.00  0.00     0.032 A 
HETATM   29  C15 UNL     1      28.741   5.144  48.191  1.00  0.00     0.002 A 
HETATM   30  C16 UNL     1      28.826   6.581  47.874  1.00  0.00     0.003 A 
HETATM   31  C17 UNL     1      27.805   7.580  48.057  1.00  0.00     0.039 A 
HETATM   32  C18 UNL     1      26.566   7.195  48.598  1.00  0.00     0.094 A 
BRANCH  32  33
HETATM   33  O2  UNL     1      25.477   8.006  48.843  1.00  0.00    -0.354 OA
HETATM   34  C19 UNL     1      25.587   8.897  49.937  1.00  0.00     0.210 C 
ENDBRANCH  32  33
ENDBRANCH  25  27
ENDBRANCH   1  25
TORSDOF 4
ENDMDL
MODEL 3
REMARK VINA RESULT:      -8.5      2.710      7.616
REMARK  4 active torsions:
REMARK  status: ('A' for Active; 'I' for Inactive)
REMARK       I    between atoms: N2_12  and  C11_13 
REMARK    1  A    between atoms: C11_13  and  C12_15 
REMARK    2  A    between atoms: C12_15  and  N3_16 
REMARK    3  A    between atoms: N3_16  and  C13_17 
REMARK    4  A    between atoms: C18_22  and  O2_23 
ROOT
HETATM    1  C12 UNL     1      24.862   1.915  51.672  1.00  0.00     0.213 A 
HETATM    2  C20 UNL     1      26.260   1.504  51.400  1.00  0.00     0.041 A 
HETATM    3  C21 UNL     1      27.161   1.960  52.298  1.00  0.00     0.090 A 
HETATM    4  N4  UNL     1      26.441   2.736  53.282  1.00  0.00    -0.335 N 
HETATM    5  C22 UNL     1      25.044   2.720  52.922  1.00  0.00     0.263 A 
HETATM    6  O3  UNL     1      24.431   3.413  53.812  1.00  0.00    -0.269 OA
HETATM    7  H26 UNL     1      27.137   3.087  53.967  1.00  0.00     0.168 HD
ENDROOT
BRANCH   1   8
HETATM    8  C11 UNL     1      24.344   2.847  50.654  1.00  0.00     0.262 C 
HETATM    9  N2  UNL     1      23.238   3.708  50.523  1.00  0.00    -0.338 N 
HETATM   10  C10 UNL     1      22.116   4.062  51.407  1.00  0.00     0.153 C 
HETATM   11  C23 UNL     1      23.010   4.454  49.296  1.00  0.00     0.130 C 
HETATM   12  C9  UNL     1      20.928   3.270  50.975  1.00  0.00    -0.008 C 
HETATM   13  C8  UNL     1      20.767   3.460  49.668  1.00  0.00     0.019 C 
HETATM   14  C7  UNL     1      21.602   4.305  48.760  1.00  0.00     0.218 C 
HETATM   15  C2  UNL     1      21.691   3.593  47.465  1.00  0.00    -0.041 C 
HETATM   16  N1  UNL     1      21.022   5.603  48.665  1.00  0.00     0.103 N 
HETATM   17  C1  UNL     1      22.521   2.599  47.177  1.00  0.00     0.017 C 
HETATM   18  C3  UNL     1      20.881   3.848  46.256  1.00  0.00     0.014 C 
HETATM   19  C4  UNL     1      21.671   4.374  45.100  1.00  0.00     0.015 C 
HETATM   20  C5  UNL     1      19.767   4.791  46.697  1.00  0.00     0.039 C 
HETATM   21  C6  UNL     1      20.403   5.930  47.432  1.00  0.00     0.272 C 
HETATM   22  H11 UNL     1      20.407   5.753  49.492  1.00  0.00     0.317 HD
HETATM   23  C24 UNL     1      23.344   5.935  49.523  1.00  0.00     0.036 C 
HETATM   24  O1  UNL     1      25.147   2.818  49.672  1.00  0.00    -0.270 OA
ENDBRANCH   1   8
BRANCH   1  25
HETATM   25  N3  UNL     1      23.946   0.866  51.915  1.00  0.00    -0.359 N 
HETATM   26  H16 UNL     1      23.644   0.327  51.053  1.00  0.00     0.161 HD
BRANCH  25  27
HETATM   27  C13 UNL     1      23.277   0.264  52.970  1.00  0.00     0.063 A 
HETATM   28  C14 UNL     1      21.959   0.541  53.106  1.00  0.00     0.032 A 
HETATM   29  C15 UNL     1      20.830   0.267  53.904  1.00  0.00     0.002 A 
HETATM   30  C16 UNL     1      21.457  -0.642  54.880  1.00  0.00     0.003 A 
HETATM   31  C17 UNL     1      22.833  -1.068  54.921  1.00  0.00     0.039 A 
HETATM   32  C18 UNL     1      23.722  -0.592  53.943  1.00  0.00     0.094 A 
BRANCH  32  33
HETATM   33  O2  UNL     1      25.064  -0.889  53.822  1.00  0.00    -0.354 OA
HETATM   34  C19 UNL     1      25.913  -0.395  54.840  1.00  0.00     0.210 C 
ENDBRANCH  32  33
ENDBRANCH  25  27
ENDBRANCH   1  25
TORSDOF 4
ENDMDL
MODEL 4
REMARK VINA RESULT:      -8.2      3.060      6.502
REMARK  4 active torsions:
REMARK  status: ('A' for Active; 'I' for Inactive)
REMARK       I    between atoms: N2_12  and  C11_13 
REMARK    1  A    between atoms: C11_13  and  C12_15 
REMARK    2  A    between atoms: C12_15  and  N3_16 
REMARK    3  A    between atoms: N3_16  and  C13_17 
REMARK    4  A    between atoms: C18_22  and  O2_23 
ROOT
HETATM    1  C12 UNL     1      24.660   2.659  51.728  1.00  0.00     0.213 A 
HETATM    2  C20 UNL     1      25.592   2.954  50.615  1.00  0.00     0.041 A 
HETATM    3  C21 UNL     1      25.715   4.268  50.323  1.00  0.00     0.090 A 
HETATM    4  N4  UNL     1      24.862   4.998  51.233  1.00  0.00    -0.335 N 
HETATM    5  C22 UNL     1      24.215   4.041  52.096  1.00  0.00     0.263 A 
HETATM    6  O3  UNL     1      23.467   4.716  52.892  1.00  0.00    -0.269 OA
HETATM    7  H26 UNL     1      24.958   6.005  51.004  1.00  0.00     0.168 HD
ENDROOT
BRANCH   1   8
HETATM    8  C11 UNL     1      23.454   1.944  51.275  1.00  0.00     0.262 C 
HETATM    9  N2  UNL     1      22.325   2.237  50.487  1.00  0.00    -0.338 N 
HETATM   10  C10 UNL     1      21.890   3.428  49.739  1.00  0.00     0.153 C 
HETATM   11  C23 UNL     1      21.263   1.261  50.305  1.00  0.00     0.130 C 
HETATM   12  C9  UNL     1      20.886   4.149  50.572  1.00  0.00    -0.008 C 
HETATM   13  C8  UNL     1      19.953   3.272  50.932  1.00  0.00     0.019 C 
HETATM   14  C7  UNL     1      19.885   1.819  50.586  1.00  0.00     0.218 C 
HETATM   15  C2  UNL     1      19.352   1.115  51.774  1.00  0.00    -0.041 C 
HETATM   16  N1  UNL     1      19.090   1.655  49.413  1.00  0.00     0.103 N 
HETATM   17  C1  UNL     1      20.049   0.749  52.841  1.00  0.00     0.017 C 
HETATM   18  C3  UNL     1      17.955   0.688  51.998  1.00  0.00     0.014 C 
HETATM   19  C4  UNL     1      17.776  -0.796  52.042  1.00  0.00     0.015 C 
HETATM   20  C5  UNL     1      17.137   1.356  50.899  1.00  0.00     0.039 C 
HETATM   21  C6  UNL     1      17.813   1.067  49.594  1.00  0.00     0.272 C 
HETATM   22  H11 UNL     1      19.063   2.561  48.901  1.00  0.00     0.317 HD
HETATM   23  C24 UNL     1      21.330   0.685  48.884  1.00  0.00     0.036 C 
HETATM   24  O1  UNL     1      23.510   0.769  51.752  1.00  0.00    -0.270 OA
ENDBRANCH   1   8
BRANCH   1  25
HETATM   25  N3  UNL     1      25.229   2.030  52.860  1.00  0.00    -0.359 N 
HETATM   26  H16 UNL     1      24.562   1.877  53.670  1.00  0.00     0.161 HD
BRANCH  25  27
HETATM   27  C13 UNL     1      26.440   1.506  53.286  1.00  0.00     0.063 A 
HETATM   28  C14 UNL     1      27.487   2.360  53.378  1.00  0.00     0.032 A 
HETATM   29  C15 UNL     1      28.853   2.431  53.717  1.00  0.00     0.002 A 
HETATM   30  C16 UNL     1      29.073   1.016  54.068  1.00  0.00     0.003 A 
HETATM   31  C17 UNL     1      28.107  -0.053  54.042  1.00  0.00     0.039 A 
HETATM   32  C18 UNL     1      26.790   0.230  53.643  1.00  0.00     0.094 A 
BRANCH  32  33
HETATM   33  O2  UNL     1      25.737  -0.657  53.558  1.00  0.00    -0.354 OA
HETATM   34  C19 UNL     1      24.989  -0.863  54.740  1.00  0.00     0.210 C 
ENDBRANCH  32  33
ENDBRANCH  25  27
ENDBRANCH   1  25
TORSDOF 4
ENDMDL
MODEL 5
REMARK VINA RESULT:      -8.1      2.260      7.131
REMARK  4 active torsions:
REMARK  status: ('A' for Active; 'I' for Inactive)
REMARK       I    between atoms: N2_12  and  C11_13 
REMARK    1  A    between atoms: C11_13  and  C12_15 
REMARK    2  A    between atoms: C12_15  and  N3_16 
REMARK    3  A    between atoms: N3_16  and  C13_17 
REMARK    4  A    between atoms: C18_22  and  O2_23 
ROOT
HETATM    1  C12 UNL     1      21.463   3.120  50.075  1.00  0.00     0.213 A 
HETATM    2  C20 UNL     1      20.241   3.901  49.772  1.00  0.00     0.041 A 
HETATM    3  C21 UNL     1      19.388   3.295  48.916  1.00  0.00     0.090 A 
HETATM    4  N4  UNL     1      19.964   2.020  48.557  1.00  0.00    -0.335 N 
HETATM    5  C22 UNL     1      21.223   1.892  49.251  1.00  0.00     0.263 A 
HETATM    6  O3  UNL     1      21.710   0.753  48.915  1.00  0.00    -0.269 OA
HETATM    7  H26 UNL     1      19.308   1.559  47.899  1.00  0.00     0.168 HD
ENDROOT
BRANCH   1   8
HETATM    8  C11 UNL     1      22.680   3.749  49.533  1.00  0.00     0.262 C 
HETATM    9  N2  UNL     1      23.778   4.464  50.046  1.00  0.00    -0.338 N 
HETATM   10  C10 UNL     1      24.185   4.865  51.402  1.00  0.00     0.153 C 
HETATM   11  C23 UNL     1      24.797   5.009  49.163  1.00  0.00     0.130 C 
HETATM   12  C9  UNL     1      23.795   6.291  51.593  1.00  0.00    -0.008 C 
HETATM   13  C8  UNL     1      24.286   6.987  50.571  1.00  0.00     0.019 C 
HETATM   14  C7  UNL     1      25.089   6.471  49.420  1.00  0.00     0.218 C 
HETATM   15  C2  UNL     1      24.663   7.228  48.221  1.00  0.00    -0.041 C 
HETATM   16  N1  UNL     1      26.476   6.603  49.722  1.00  0.00     0.103 N 
HETATM   17  C1  UNL     1      23.590   6.981  47.483  1.00  0.00     0.017 C 
HETATM   18  C3  UNL     1      25.345   8.394  47.621  1.00  0.00     0.014 C 
HETATM   19  C4  UNL     1      25.908   8.131  46.260  1.00  0.00     0.015 C 
HETATM   20  C5  UNL     1      26.403   8.820  48.632  1.00  0.00     0.039 C 
HETATM   21  C6  UNL     1      27.186   7.600  49.008  1.00  0.00     0.272 C 
HETATM   22  H11 UNL     1      26.585   6.673  50.755  1.00  0.00     0.317 HD
HETATM   23  C24 UNL     1      26.081   4.176  49.282  1.00  0.00     0.036 C 
HETATM   24  O1  UNL     1      22.675   3.560  48.278  1.00  0.00    -0.270 OA
ENDBRANCH   1   8
BRANCH   1  25
HETATM   25  N3  UNL     1      21.640   2.752  51.429  1.00  0.00    -0.359 N 
HETATM   26  H16 UNL     1      21.549   3.547  52.124  1.00  0.00     0.161 HD
BRANCH  25  27
HETATM   27  C13 UNL     1      21.899   1.628  52.199  1.00  0.00     0.063 A 
HETATM   28  C14 UNL     1      20.898   1.175  52.990  1.00  0.00     0.032 A 
HETATM   29  C15 UNL     1      20.570   0.171  53.923  1.00  0.00     0.002 A 
HETATM   30  C16 UNL     1      21.855  -0.551  53.940  1.00  0.00     0.003 A 
HETATM   31  C17 UNL     1      23.042  -0.244  53.183  1.00  0.00     0.039 A 
HETATM   32  C18 UNL     1      23.028   0.862  52.315  1.00  0.00     0.094 A 
BRANCH  32  33
HETATM   33  O2  UNL     1      24.062   1.305  51.517  1.00  0.00    -0.354 OA
HETATM   34  C19 UNL     1      25.362   1.227  52.067  1.00  0.00     0.210 C 
ENDBRANCH  32  33
ENDBRANCH  25  27
ENDBRANCH   1  25
TORSDOF 4
ENDMDL
MODEL 6
REMARK VINA RESULT:      -8.1      1.874      7.104
REMARK  4 active torsions:
REMARK  status: ('A' for Active; 'I' for Inactive)
REMARK       I    between atoms: N2_12  and  C11_13 
REMARK    1  A    between atoms: C11_13  and  C12_15 
REMARK    2  A    between atoms: C12_15  and  N3_16 
REMARK    3  A    between atoms: N3_16  and  C13_17 
REMARK    4  A    between atoms: C18_22  and  O2_23 
ROOT
HETATM    1  C12 UNL     1      22.415   3.141  51.949  1.00  0.00     0.213 A 
HETATM    2  C20 UNL     1      21.063   3.205  52.552  1.00  0.00     0.041 A 
HETATM    3  C21 UNL     1      20.120   2.502  51.884  1.00  0.00     0.090 A 
HETATM    4  N4  UNL     1      20.762   1.883  50.748  1.00  0.00    -0.335 N 
HETATM    5  C22 UNL     1      22.156   2.256  50.770  1.00  0.00     0.263 A 
HETATM    6  O3  UNL     1      22.699   1.691  49.752  1.00  0.00    -0.269 OA
HETATM    7  H26 UNL     1      20.036   1.347  50.237  1.00  0.00     0.168 HD
ENDROOT
BRANCH   1   8
HETATM    8  C11 UNL     1      22.848   4.440  51.403  1.00  0.00     0.262 C 
HETATM    9  N2  UNL     1      22.467   5.282  50.341  1.00  0.00    -0.338 N 
HETATM   10  C10 UNL     1      21.412   5.212  49.318  1.00  0.00     0.153 C 
HETATM   11  C23 UNL     1      23.198   6.506  50.055  1.00  0.00     0.130 C 
HETATM   12  C9  UNL     1      22.033   4.719  48.055  1.00  0.00    -0.008 C 
HETATM   13  C8  UNL     1      23.092   5.482  47.798  1.00  0.00     0.019 C 
HETATM   14  C7  UNL     1      23.601   6.635  48.602  1.00  0.00     0.218 C 
HETATM   15  C2  UNL     1      25.079   6.586  48.543  1.00  0.00    -0.041 C 
HETATM   16  N1  UNL     1      23.043   7.844  48.092  1.00  0.00     0.103 N 
HETATM   17  C1  UNL     1      25.865   5.819  49.288  1.00  0.00     0.017 C 
HETATM   18  C3  UNL     1      25.957   7.373  47.652  1.00  0.00     0.014 C 
HETATM   19  C4  UNL     1      26.825   8.355  48.373  1.00  0.00     0.015 C 
HETATM   20  C5  UNL     1      25.031   8.028  46.634  1.00  0.00     0.039 C 
HETATM   21  C6  UNL     1      23.930   8.702  47.393  1.00  0.00     0.272 C 
HETATM   22  H11 UNL     1      22.181   7.611  47.557  1.00  0.00     0.317 HD
HETATM   23  C24 UNL     1      22.364   7.719  50.492  1.00  0.00     0.036 C 
HETATM   24  O1  UNL     1      23.813   4.848  52.119  1.00  0.00    -0.270 OA
ENDBRANCH   1   8
BRANCH   1  25
HETATM   25  N3  UNL     1      23.424   2.568  52.757  1.00  0.00    -0.359 N 
HETATM   26  H16 UNL     1      23.590   3.058  53.682  1.00  0.00     0.161 HD
BRANCH  25  27
HETATM   27  C13 UNL     1      24.317   1.507  52.747  1.00  0.00     0.063 A 
HETATM   28  C14 UNL     1      25.519   1.714  52.159  1.00  0.00     0.032 A 
HETATM   29  C15 UNL     1      26.744   1.087  51.854  1.00  0.00     0.002 A 
HETATM   30  C16 UNL     1      26.468  -0.241  52.431  1.00  0.00     0.003 A 
HETATM   31  C17 UNL     1      25.266  -0.674  53.096  1.00  0.00     0.039 A 
HETATM   32  C18 UNL     1      24.202   0.233  53.238  1.00  0.00     0.094 A 
BRANCH  32  33
HETATM   33  O2  UNL     1      22.984  -0.001  53.842  1.00  0.00    -0.354 OA
HETATM   34  C19 UNL     1      22.067  -0.801  53.122  1.00  0.00     0.210 C 
ENDBRANCH  32  33
ENDBRANCH  25  27
ENDBRANCH   1  25
TORSDOF 4
ENDMDL
MODEL 7
REMARK VINA RESULT:      -8.1      5.919      9.750
REMARK  4 active torsions:
REMARK  status: ('A' for Active; 'I' for Inactive)
REMARK       I    between atoms: N2_12  and  C11_13 
REMARK    1  A    between atoms: C11_13  and  C12_15 
REMARK    2  A    between atoms: C12_15  and  N3_16 
REMARK    3  A    between atoms: N3_16  and  C13_17 
REMARK    4  A    between atoms: C18_22  and  O2_23 
ROOT
HETATM    1  C12 UNL     1      32.687   7.985  46.205  1.00  0.00     0.213 A 
HETATM    2  C20 UNL     1      33.104   8.913  45.128  1.00  0.00     0.041 A 
HETATM    3  C21 UNL     1      34.222   9.622  45.402  1.00  0.00     0.090 A 
HETATM    4  N4  UNL     1      34.676   9.228  46.716  1.00  0.00    -0.335 N 
HETATM    5  C22 UNL     1      33.760   8.233  47.220  1.00  0.00     0.263 A 
HETATM    6  O3  UNL     1      34.189   7.901  48.384  1.00  0.00    -0.269 OA
HETATM    7  H26 UNL     1      35.532   9.775  46.923  1.00  0.00     0.168 HD
ENDROOT
BRANCH   1   8
HETATM    8  C11 UNL     1      31.420   8.392  46.838  1.00  0.00     0.262 C 
HETATM    9  N2  UNL     1      30.593   7.916  47.873  1.00  0.00    -0.338 N 
HETATM   10  C10 UNL     1      30.685   6.780  48.805  1.00  0.00     0.153 C 
HETATM   11  C23 UNL     1      29.333   8.569  48.187  1.00  0.00     0.130 C 
HETATM   12  C9  UNL     1      29.819   5.687  48.277  1.00  0.00    -0.008 C 
HETATM   13  C8  UNL     1      28.614   6.199  48.045  1.00  0.00     0.019 C 
HETATM   14  C7  UNL     1      28.166   7.609  48.262  1.00  0.00     0.218 C 
HETATM   15  C2  UNL     1      27.241   7.945  47.155  1.00  0.00    -0.041 C 
HETATM   16  N1  UNL     1      27.580   7.720  49.557  1.00  0.00     0.103 N 
HETATM   17  C1  UNL     1      27.592   8.325  45.934  1.00  0.00     0.017 C 
HETATM   18  C3  UNL     1      25.764   7.921  47.197  1.00  0.00     0.014 C 
HETATM   19  C4  UNL     1      25.134   9.270  47.055  1.00  0.00     0.015 C 
HETATM   20  C5  UNL     1      25.399   7.226  48.503  1.00  0.00     0.039 C 
HETATM   21  C6  UNL     1      26.172   7.889  49.600  1.00  0.00     0.272 C 
HETATM   22  H11 UNL     1      27.922   6.932  50.144  1.00  0.00     0.317 HD
HETATM   23  C24 UNL     1      29.470   9.350  49.502  1.00  0.00     0.036 C 
HETATM   24  O1  UNL     1      31.028   9.448  46.253  1.00  0.00    -0.270 OA
ENDBRANCH   1   8
BRANCH   1  25
HETATM   25  N3  UNL     1      32.668   6.613  45.864  1.00  0.00    -0.359 N 
HETATM   26  H16 UNL     1      31.749   6.262  45.469  1.00  0.00     0.161 HD
BRANCH  25  27
HETATM   27  C13 UNL     1      33.505   5.507  45.865  1.00  0.00     0.063 A 
HETATM   28  C14 UNL     1      33.498   4.725  46.971  1.00  0.00     0.032 A 
HETATM   29  C15 UNL     1      34.073   3.568  47.532  1.00  0.00     0.002 A 
HETATM   30  C16 UNL     1      34.965   3.196  46.419  1.00  0.00     0.003 A 
HETATM   31  C17 UNL     1      35.129   3.880  45.162  1.00  0.00     0.039 A 
HETATM   32  C18 UNL     1      34.377   5.042  44.917  1.00  0.00     0.094 A 
BRANCH  32  33
HETATM   33  O2  UNL     1      34.400   5.823  43.780  1.00  0.00    -0.354 OA
HETATM   34  C19 UNL     1      34.265   5.145  42.546  1.00  0.00     0.210 C 
ENDBRANCH  32  33
ENDBRANCH  25  27
ENDBRANCH   1  25
TORSDOF 4
ENDMDL
MODEL 8
REMARK VINA RESULT:      -8.0      2.710      7.238
REMARK  4 active torsions:
REMARK  status: ('A' for Active; 'I' for Inactive)
REMARK       I    between atoms: N2_12  and  C11_13 
REMARK    1  A    between atoms: C11_13  and  C12_15 
REMARK    2  A    between atoms: C12_15  and  N3_16 
REMARK    3  A    between atoms: N3_16  and  C13_17 
REMARK    4  A    between atoms: C18_22  and  O2_23 
ROOT
HETATM    1  C12 UNL     1      25.261   2.313  51.739  1.00  0.00     0.213 A 
HETATM    2  C20 UNL     1      26.658   2.010  51.346  1.00  0.00     0.041 A 
HETATM    3  C21 UNL     1      27.544   2.038  52.367  1.00  0.00     0.090 A 
HETATM    4  N4  UNL     1      26.812   2.365  53.569  1.00  0.00    -0.335 N 
HETATM    5  C22 UNL     1      25.425   2.533  53.211  1.00  0.00     0.263 A 
HETATM    6  O3  UNL     1      24.801   2.820  54.296  1.00  0.00    -0.269 OA
HETATM    7  H26 UNL     1      27.496   2.387  54.349  1.00  0.00     0.168 HD
ENDROOT
BRANCH   1   8
HETATM    8  C11 UNL     1      24.786   3.591  51.181  1.00  0.00     0.262 C 
HETATM    9  N2  UNL     1      23.862   4.588  51.548  1.00  0.00    -0.338 N 
HETATM   10  C10 UNL     1      22.979   4.776  52.710  1.00  0.00     0.153 C 
HETATM   11  C23 UNL     1      23.600   5.724  50.679  1.00  0.00     0.130 C 
HETATM   12  C9  UNL     1      21.608   4.343  52.316  1.00  0.00    -0.008 C 
HETATM   13  C8  UNL     1      21.290   4.977  51.191  1.00  0.00     0.019 C 
HETATM   14  C7  UNL     1      22.126   5.954  50.428  1.00  0.00     0.218 C 
HETATM   15  C2  UNL     1      21.875   5.709  48.990  1.00  0.00    -0.041 C 
HETATM   16  N1  UNL     1      21.803   7.276  50.852  1.00  0.00     0.103 N 
HETATM   17  C1  UNL     1      22.440   4.765  48.249  1.00  0.00     0.017 C 
HETATM   18  C3  UNL     1      20.955   6.460  48.110  1.00  0.00     0.014 C 
HETATM   19  C4  UNL     1      21.647   7.229  47.029  1.00  0.00     0.015 C 
HETATM   20  C5  UNL     1      20.128   7.344  49.035  1.00  0.00     0.039 C 
HETATM   21  C6  UNL     1      21.079   8.076  49.931  1.00  0.00     0.272 C 
HETATM   22  H11 UNL     1      21.363   7.224  51.794  1.00  0.00     0.317 HD
HETATM   23  C24 UNL     1      24.248   6.985  51.268  1.00  0.00     0.036 C 
HETATM   24  O1  UNL     1      25.408   3.782  50.091  1.00  0.00    -0.270 OA
ENDBRANCH   1   8
BRANCH   1  25
HETATM   25  N3  UNL     1      24.321   1.280  51.518  1.00  0.00    -0.359 N 
HETATM   26  H16 UNL     1      24.740   0.318  51.363  1.00  0.00     0.161 HD
BRANCH  25  27
HETATM   27  C13 UNL     1      22.949   1.092  51.441  1.00  0.00     0.063 A 
HETATM   28  C14 UNL     1      22.348   1.386  50.264  1.00  0.00     0.032 A 
HETATM   29  C15 UNL     1      21.097   1.406  49.615  1.00  0.00     0.002 A 
HETATM   30  C16 UNL     1      20.259   0.917  50.725  1.00  0.00     0.003 A 
HETATM   31  C17 UNL     1      20.687   0.548  52.049  1.00  0.00     0.039 A 
HETATM   32  C18 UNL     1      22.051   0.649  52.376  1.00  0.00     0.094 A 
BRANCH  32  33
HETATM   33  O2  UNL     1      22.642   0.343  53.584  1.00  0.00    -0.354 OA
HETATM   34  C19 UNL     1      21.903  -0.493  54.453  1.00  0.00     0.210 C 
ENDBRANCH  32  33
ENDBRANCH  25  27
ENDBRANCH   1  25
TORSDOF 4
ENDMDL
MODEL 9
REMARK VINA RESULT:      -7.7      2.910      6.665
REMARK  4 active torsions:
REMARK  status: ('A' for Active; 'I' for Inactive)
REMARK       I    between atoms: N2_12  and  C11_13 
REMARK    1  A    between atoms: C11_13  and  C12_15 
REMARK    2  A    between atoms: C12_15  and  N3_16 
REMARK    3  A    between atoms: N3_16  and  C13_17 
REMARK    4  A    between atoms: C18_22  and  O2_23 
ROOT
HETATM    1  C12 UNL     1      25.107   3.173  51.175  1.00  0.00     0.213 A 
HETATM    2  C20 UNL     1      26.111   2.800  50.151  1.00  0.00     0.041 A 
HETATM    3  C21 UNL     1      26.637   3.847  49.477  1.00  0.00     0.090 A 
HETATM    4  N4  UNL     1      26.027   5.050  49.996  1.00  0.00    -0.335 N 
HETATM    5  C22 UNL     1      25.097   4.664  51.029  1.00  0.00     0.263 A 
HETATM    6  O3  UNL     1      24.574   5.750  51.472  1.00  0.00    -0.269 OA
HETATM    7  H26 UNL     1      26.431   5.850  49.474  1.00  0.00     0.168 HD
ENDROOT
BRANCH   1   8
HETATM    8  C11 UNL     1      23.750   2.716  50.825  1.00  0.00     0.262 C 
HETATM    9  N2  UNL     1      22.855   2.894  49.753  1.00  0.00    -0.338 N 
HETATM   10  C10 UNL     1      22.931   3.622  48.476  1.00  0.00     0.153 C 
HETATM   11  C23 UNL     1      21.521   2.316  49.786  1.00  0.00     0.130 C 
HETATM   12  C9  UNL     1      22.215   4.918  48.647  1.00  0.00    -0.008 C 
HETATM   13  C8  UNL     1      21.006   4.653  49.135  1.00  0.00     0.019 C 
HETATM   14  C7  UNL     1      20.430   3.314  49.465  1.00  0.00     0.218 C 
HETATM   15  C2  UNL     1      19.609   3.484  50.685  1.00  0.00    -0.041 C 
HETATM   16  N1  UNL     1      19.700   2.829  48.341  1.00  0.00     0.103 N 
HETATM   17  C1  UNL     1      20.061   3.512  51.932  1.00  0.00     0.017 C 
HETATM   18  C3  UNL     1      18.142   3.655  50.749  1.00  0.00     0.014 C 
HETATM   19  C4  UNL     1      17.430   2.515  51.406  1.00  0.00     0.015 C 
HETATM   20  C5  UNL     1      17.691   3.893  49.313  1.00  0.00     0.039 C 
HETATM   21  C6  UNL     1      18.287   2.811  48.467  1.00  0.00     0.272 C 
HETATM   22  H11 UNL     1      20.036   3.323  47.489  1.00  0.00     0.317 HD
HETATM   23  C24 UNL     1      21.454   1.119  48.827  1.00  0.00     0.036 C 
HETATM   24  O1  UNL     1      23.345   1.976  51.773  1.00  0.00    -0.270 OA
ENDBRANCH   1   8
BRANCH   1  25
HETATM   25  N3  UNL     1      25.430   2.832  52.509  1.00  0.00    -0.359 N 
HETATM   26  H16 UNL     1      24.802   3.263  53.246  1.00  0.00     0.161 HD
BRANCH  25  27
HETATM   27  C13 UNL     1      26.344   2.067  53.218  1.00  0.00     0.063 A 
HETATM   28  C14 UNL     1      27.631   2.487  53.224  1.00  0.00     0.032 A 
HETATM   29  C15 UNL     1      28.914   2.171  53.715  1.00  0.00     0.002 A 
HETATM   30  C16 UNL     1      28.578   0.938  54.450  1.00  0.00     0.003 A 
HETATM   31  C17 UNL     1      27.284   0.317  54.573  1.00  0.00     0.039 A 
HETATM   32  C18 UNL     1      26.180   0.914  53.939  1.00  0.00     0.094 A 
BRANCH  32  33
HETATM   33  O2  UNL     1      24.875   0.467  53.946  1.00  0.00    -0.354 OA
HETATM   34  C19 UNL     1      24.682  -0.912  54.195  1.00  0.00     0.210 C 
ENDBRANCH  32  33
ENDBRANCH  25  27
ENDBRANCH   1  25
TORSDOF 4
ENDMDL
