MODEL 1
REMARK VINA RESULT:      -7.0      0.000      0.000
REMARK  1 active torsions:
REMARK  status: ('A' for Active; 'I' for Inactive)
REMARK    1  A    between atoms: C1_2  and  C2_3 
ROOT
HETATM    1  C2  UNL     1      22.901  -0.402  53.453  1.00  0.00     0.087 C 
HETATM    2  N2  UNL     1      24.133  -0.110  53.518  1.00  0.00    -0.257 NA
HETATM    3  C3  UNL     1      25.027  -0.598  54.554  1.00  0.00     0.421 C 
HETATM    4  N3  UNL     1      26.381  -0.121  54.344  1.00  0.00     0.107 N 
HETATM    5  C4  UNL     1      27.003  -0.669  53.183  1.00  0.00     0.276 C 
HETATM    6  C5  UNL     1      26.601   0.038  51.902  1.00  0.00     0.057 C 
HETATM    7  C6  UNL     1      26.793   1.528  51.976  1.00  0.00     0.113 C 
HETATM    8  C7  UNL     1      27.334   1.832  53.365  1.00  0.00     0.057 C 
HETATM    9  C8  UNL     1      26.385   1.305  54.424  1.00  0.00     0.276 C 
HETATM   10  N4  UNL     1      25.584   2.277  51.737  1.00  0.00    -0.276 N 
HETATM   11  C9  UNL     1      24.661   1.881  50.837  1.00  0.00     0.125 A 
HETATM   12  C10 UNL     1      23.642   2.815  50.859  1.00  0.00     0.002 A 
HETATM   13  C11 UNL     1      23.990   3.767  51.795  1.00  0.00     0.151 A 
HETATM   14  N5  UNL     1      25.173   3.401  52.300  1.00  0.00    -0.184 NA
HETATM   15  C12 UNL     1      22.488   2.652  49.980  1.00  0.00     0.033 C 
HETATM   16  C13 UNL     1      21.904   1.507  50.368  1.00  0.00     0.117 C 
HETATM   17  N6  UNL     1      22.638   0.944  51.447  1.00  0.00    -0.271 NA
HETATM   18  C14 UNL     1      22.141   0.182  52.332  1.00  0.00     0.148 C 
ENDROOT
BRANCH   1  19
HETATM   19  C1  UNL     1      22.208  -1.267  54.407  1.00  0.00     0.139 C 
HETATM   20  N1  UNL     1      21.168  -1.798  54.957  1.00  0.00    -0.310 NA
HETATM   21  H1  UNL     1      20.224  -1.540  54.604  1.00  0.00     0.186 HD
ENDBRANCH   1  19
TORSDOF 1
ENDMDL
MODEL 2
REMARK VINA RESULT:      -6.8      2.213      6.191
REMARK  1 active torsions:
REMARK  status: ('A' for Active; 'I' for Inactive)
REMARK    1  A    between atoms: C1_2  and  C2_3 
ROOT
HETATM    1  C2  UNL     1      22.913   3.643  52.210  1.00  0.00     0.087 C 
HETATM    2  N2  UNL     1      21.812   3.192  51.773  1.00  0.00    -0.257 NA
HETATM    3  C3  UNL     1      20.783   4.017  51.166  1.00  0.00     0.421 C 
HETATM    4  N3  UNL     1      19.654   3.214  50.735  1.00  0.00     0.107 N 
HETATM    5  C4  UNL     1      19.960   2.340  49.651  1.00  0.00     0.276 C 
HETATM    6  C5  UNL     1      20.646   1.061  50.093  1.00  0.00     0.057 C 
HETATM    7  C6  UNL     1      19.895   0.344  51.182  1.00  0.00     0.113 C 
HETATM    8  C7  UNL     1      18.662   1.182  51.487  1.00  0.00     0.057 C 
HETATM    9  C8  UNL     1      19.069   2.590  51.878  1.00  0.00     0.276 C 
HETATM   10  N4  UNL     1      20.670   0.141  52.380  1.00  0.00    -0.276 N 
HETATM   11  C9  UNL     1      21.989  -0.136  52.343  1.00  0.00     0.125 A 
HETATM   12  C10 UNL     1      22.416  -0.268  53.651  1.00  0.00     0.002 A 
HETATM   13  C11 UNL     1      21.315  -0.061  54.455  1.00  0.00     0.151 A 
HETATM   14  N5  UNL     1      20.281   0.184  53.643  1.00  0.00    -0.184 NA
HETATM   15  C12 UNL     1      23.815  -0.573  53.931  1.00  0.00     0.033 C 
HETATM   16  C13 UNL     1      24.510   0.472  53.454  1.00  0.00     0.117 C 
HETATM   17  N6  UNL     1      23.612   1.417  52.888  1.00  0.00    -0.271 NA
HETATM   18  C14 UNL     1      23.844   2.662  52.797  1.00  0.00     0.148 C 
ENDROOT
BRANCH   1  19
HETATM   19  C1  UNL     1      23.302   5.052  52.164  1.00  0.00     0.139 C 
HETATM   20  N1  UNL     1      24.141   6.033  52.218  1.00  0.00    -0.310 NA
HETATM   21  H1  UNL     1      25.146   5.827  52.383  1.00  0.00     0.186 HD
ENDBRANCH   1  19
TORSDOF 1
ENDMDL
MODEL 3
REMARK VINA RESULT:      -6.8      1.071      4.156
REMARK  1 active torsions:
REMARK  status: ('A' for Active; 'I' for Inactive)
REMARK    1  A    between atoms: C1_2  and  C2_3 
ROOT
HETATM    1  C2  UNL     1      23.026  -0.395  53.782  1.00  0.00     0.087 C 
HETATM    2  N2  UNL     1      22.959   0.583  52.978  1.00  0.00    -0.257 NA
HETATM    3  C3  UNL     1      21.776   0.912  52.201  1.00  0.00     0.421 C 
HETATM    4  N3  UNL     1      21.992   2.101  51.399  1.00  0.00     0.107 N 
HETATM    5  C4  UNL     1      22.135   3.291  52.173  1.00  0.00     0.276 C 
HETATM    6  C5  UNL     1      23.533   3.470  52.736  1.00  0.00     0.057 C 
HETATM    7  C6  UNL     1      24.602   3.368  51.682  1.00  0.00     0.113 C 
HETATM    8  C7  UNL     1      23.893   3.099  50.364  1.00  0.00     0.057 C 
HETATM    9  C8  UNL     1      23.046   1.846  50.469  1.00  0.00     0.276 C 
HETATM   10  N4  UNL     1      25.574   2.336  51.946  1.00  0.00    -0.276 N 
HETATM   11  C9  UNL     1      25.997   2.051  53.193  1.00  0.00     0.125 A 
HETATM   12  C10 UNL     1      26.916   1.023  53.089  1.00  0.00     0.002 A 
HETATM   13  C11 UNL     1      27.020   0.713  51.749  1.00  0.00     0.151 A 
HETATM   14  N5  UNL     1      26.190   1.533  51.095  1.00  0.00    -0.184 NA
HETATM   15  C12 UNL     1      27.554   0.494  54.290  1.00  0.00     0.033 C 
HETATM   16  C13 UNL     1      26.556  -0.021  55.026  1.00  0.00     0.117 C 
HETATM   17  N6  UNL     1      25.322   0.162  54.344  1.00  0.00    -0.271 NA
HETATM   18  C14 UNL     1      24.305  -0.583  54.490  1.00  0.00     0.148 C 
ENDROOT
BRANCH   1  19
HETATM   19  C1  UNL     1      21.927  -1.326  54.041  1.00  0.00     0.139 C 
HETATM   20  N1  UNL     1      20.887  -1.755  54.675  1.00  0.00    -0.310 NA
HETATM   21  H1  UNL     1      20.531  -1.209  55.485  1.00  0.00     0.186 HD
ENDBRANCH   1  19
TORSDOF 1
ENDMDL
MODEL 4
REMARK VINA RESULT:      -6.8      2.177      5.808
REMARK  1 active torsions:
REMARK  status: ('A' for Active; 'I' for Inactive)
REMARK    1  A    between atoms: C1_2  and  C2_3 
ROOT
HETATM    1  C2  UNL     1      24.607   2.233  51.193  1.00  0.00     0.087 C 
HETATM    2  N2  UNL     1      23.593   2.404  50.451  1.00  0.00    -0.257 NA
HETATM    3  C3  UNL     1      23.537   3.371  49.369  1.00  0.00     0.421 C 
HETATM    4  N3  UNL     1      22.261   3.312  48.680  1.00  0.00     0.107 N 
HETATM    5  C4  UNL     1      22.062   2.100  47.957  1.00  0.00     0.276 C 
HETATM    6  C5  UNL     1      21.593   0.953  48.834  1.00  0.00     0.057 C 
HETATM    7  C6  UNL     1      20.384   1.308  49.656  1.00  0.00     0.113 C 
HETATM    8  C7  UNL     1      20.037   2.751  49.324  1.00  0.00     0.057 C 
HETATM    9  C8  UNL     1      21.224   3.653  49.601  1.00  0.00     0.276 C 
HETATM   10  N4  UNL     1      20.588   1.156  51.075  1.00  0.00    -0.276 N 
HETATM   11  C9  UNL     1      21.336   0.160  51.590  1.00  0.00     0.125 A 
HETATM   12  C10 UNL     1      21.324   0.308  52.965  1.00  0.00     0.002 A 
HETATM   13  C11 UNL     1      20.551   1.417  53.242  1.00  0.00     0.151 A 
HETATM   14  N5  UNL     1      20.127   1.897  52.068  1.00  0.00    -0.184 NA
HETATM   15  C12 UNL     1      22.056  -0.636  53.803  1.00  0.00     0.033 C 
HETATM   16  C13 UNL     1      23.346  -0.491  53.460  1.00  0.00     0.117 C 
HETATM   17  N6  UNL     1      23.457   0.498  52.446  1.00  0.00    -0.271 NA
HETATM   18  C14 UNL     1      24.491   1.206  52.244  1.00  0.00     0.148 C 
ENDROOT
BRANCH   1  19
HETATM   19  C1  UNL     1      25.858   2.980  51.065  1.00  0.00     0.139 C 
HETATM   20  N1  UNL     1      27.125   3.170  51.225  1.00  0.00    -0.310 NA
HETATM   21  H1  UNL     1      27.685   2.440  51.709  1.00  0.00     0.186 HD
ENDBRANCH   1  19
TORSDOF 1
ENDMDL
MODEL 5
REMARK VINA RESULT:      -6.2      9.853     12.275
REMARK  1 active torsions:
REMARK  status: ('A' for Active; 'I' for Inactive)
REMARK    1  A    between atoms: C1_2  and  C2_3 
ROOT
HETATM    1  C2  UNL     1      32.616   6.307  44.587  1.00  0.00     0.087 C 
HETATM    2  N2  UNL     1      32.020   6.708  45.632  1.00  0.00    -0.257 NA
HETATM    3  C3  UNL     1      31.112   7.841  45.662  1.00  0.00     0.421 C 
HETATM    4  N3  UNL     1      30.561   8.035  46.990  1.00  0.00     0.107 N 
HETATM    5  C4  UNL     1      29.684   6.988  47.400  1.00  0.00     0.276 C 
HETATM    6  C5  UNL     1      30.418   5.770  47.929  1.00  0.00     0.057 C 
HETATM    7  C6  UNL     1      31.408   6.112  49.009  1.00  0.00     0.113 C 
HETATM    8  C7  UNL     1      31.342   7.619  49.203  1.00  0.00     0.057 C 
HETATM    9  C8  UNL     1      31.627   8.329  47.894  1.00  0.00     0.276 C 
HETATM   10  N4  UNL     1      32.757   5.706  48.703  1.00  0.00    -0.276 N 
HETATM   11  C9  UNL     1      33.031   4.563  48.043  1.00  0.00     0.125 A 
HETATM   12  C10 UNL     1      34.406   4.482  47.917  1.00  0.00     0.002 A 
HETATM   13  C11 UNL     1      34.930   5.607  48.520  1.00  0.00     0.151 A 
HETATM   14  N5  UNL     1      33.896   6.318  48.981  1.00  0.00    -0.184 NA
HETATM   15  C12 UNL     1      35.007   3.339  47.238  1.00  0.00     0.033 C 
HETATM   16  C13 UNL     1      34.556   3.399  45.974  1.00  0.00     0.117 C 
HETATM   17  N6  UNL     1      33.700   4.524  45.830  1.00  0.00    -0.271 NA
HETATM   18  C14 UNL     1      33.502   5.139  44.738  1.00  0.00     0.148 C 
ENDROOT
BRANCH   1  19
HETATM   19  C1  UNL     1      32.474   6.926  43.269  1.00  0.00     0.139 C 
HETATM   20  N1  UNL     1      32.079   6.976  42.041  1.00  0.00    -0.310 NA
HETATM   21  H1  UNL     1      31.546   6.173  41.651  1.00  0.00     0.186 HD
ENDBRANCH   1  19
TORSDOF 1
ENDMDL
MODEL 6
REMARK VINA RESULT:      -6.2      1.666      5.223
REMARK  1 active torsions:
REMARK  status: ('A' for Active; 'I' for Inactive)
REMARK    1  A    between atoms: C1_2  and  C2_3 
ROOT
HETATM    1  C2  UNL     1      23.406   3.195  52.478  1.00  0.00     0.087 C 
HETATM    2  N2  UNL     1      22.593   2.255  52.732  1.00  0.00    -0.257 NA
HETATM    3  C3  UNL     1      21.181   2.459  53.008  1.00  0.00     0.421 C 
HETATM    4  N3  UNL     1      20.504   1.195  53.228  1.00  0.00     0.107 N 
HETATM    5  C4  UNL     1      20.427   0.381  52.060  1.00  0.00     0.276 C 
HETATM    6  C5  UNL     1      21.701  -0.398  51.792  1.00  0.00     0.057 C 
HETATM    7  C6  UNL     1      22.159  -1.191  52.985  1.00  0.00     0.113 C 
HETATM    8  C7  UNL     1      21.158  -0.925  54.099  1.00  0.00     0.057 C 
HETATM    9  C8  UNL     1      21.068   0.563  54.378  1.00  0.00     0.276 C 
HETATM   10  N4  UNL     1      23.492  -0.858  53.421  1.00  0.00    -0.276 N 
HETATM   11  C9  UNL     1      24.475  -0.547  52.552  1.00  0.00     0.125 A 
HETATM   12  C10 UNL     1      25.610  -0.283  53.296  1.00  0.00     0.002 A 
HETATM   13  C11 UNL     1      25.268  -0.445  54.622  1.00  0.00     0.151 A 
HETATM   14  N5  UNL     1      23.977  -0.793  54.650  1.00  0.00    -0.184 NA
HETATM   15  C12 UNL     1      26.850   0.086  52.621  1.00  0.00     0.033 C 
HETATM   16  C13 UNL     1      26.583   1.242  51.991  1.00  0.00     0.117 C 
HETATM   17  N6  UNL     1      25.234   1.614  52.238  1.00  0.00    -0.271 NA
HETATM   18  C14 UNL     1      24.805   2.808  52.221  1.00  0.00     0.148 C 
ENDROOT
BRANCH   1  19
HETATM   19  C1  UNL     1      23.039   4.610  52.426  1.00  0.00     0.139 C 
HETATM   20  N1  UNL     1      22.744   5.717  51.831  1.00  0.00    -0.310 NA
HETATM   21  H1  UNL     1      22.723   5.740  50.792  1.00  0.00     0.186 HD
ENDBRANCH   1  19
TORSDOF 1
ENDMDL
MODEL 7
REMARK VINA RESULT:      -6.1      2.286      5.636
REMARK  1 active torsions:
REMARK  status: ('A' for Active; 'I' for Inactive)
REMARK    1  A    between atoms: C1_2  and  C2_3 
ROOT
HETATM    1  C2  UNL     1      22.316   4.817  51.257  1.00  0.00     0.087 C 
HETATM    2  N2  UNL     1      21.664   3.751  51.470  1.00  0.00    -0.257 NA
HETATM    3  C3  UNL     1      20.236   3.715  51.733  1.00  0.00     0.421 C 
HETATM    4  N3  UNL     1      19.769   2.352  51.905  1.00  0.00     0.107 N 
HETATM    5  C4  UNL     1      19.833   1.575  50.710  1.00  0.00     0.276 C 
HETATM    6  C5  UNL     1      21.219   1.021  50.435  1.00  0.00     0.057 C 
HETATM    7  C6  UNL     1      21.789   0.272  51.608  1.00  0.00     0.113 C 
HETATM    8  C7  UNL     1      20.750   0.337  52.717  1.00  0.00     0.057 C 
HETATM    9  C8  UNL     1      20.419   1.781  53.041  1.00  0.00     0.276 C 
HETATM   10  N4  UNL     1      23.048   0.801  52.072  1.00  0.00    -0.276 N 
HETATM   11  C9  UNL     1      23.974   1.295  51.226  1.00  0.00     0.125 A 
HETATM   12  C10 UNL     1      25.046   1.714  51.993  1.00  0.00     0.002 A 
HETATM   13  C11 UNL     1      24.724   1.454  53.309  1.00  0.00     0.151 A 
HETATM   14  N5  UNL     1      23.506   0.902  53.309  1.00  0.00    -0.184 NA
HETATM   15  C12 UNL     1      26.216   2.300  51.346  1.00  0.00     0.033 C 
HETATM   16  C13 UNL     1      25.771   3.418  50.750  1.00  0.00     0.117 C 
HETATM   17  N6  UNL     1      24.377   3.559  50.991  1.00  0.00    -0.271 NA
HETATM   18  C14 UNL     1      23.761   4.669  51.006  1.00  0.00     0.148 C 
ENDROOT
BRANCH   1  19
HETATM   19  C1  UNL     1      21.727   6.155  51.245  1.00  0.00     0.139 C 
HETATM   20  N1  UNL     1      21.753   7.440  51.121  1.00  0.00    -0.310 NA
HETATM   21  H1  UNL     1      22.657   7.906  50.904  1.00  0.00     0.186 HD
ENDBRANCH   1  19
TORSDOF 1
ENDMDL
MODEL 8
REMARK VINA RESULT:      -6.0      2.162      5.027
REMARK  1 active torsions:
REMARK  status: ('A' for Active; 'I' for Inactive)
REMARK    1  A    between atoms: C1_2  and  C2_3 
ROOT
HETATM    1  C2  UNL     1      24.486   2.556  52.170  1.00  0.00     0.087 C 
HETATM    2  N2  UNL     1      23.340   2.013  52.174  1.00  0.00    -0.257 NA
HETATM    3  C3  UNL     1      22.942   0.969  53.101  1.00  0.00     0.421 C 
HETATM    4  N3  UNL     1      21.564   0.572  52.882  1.00  0.00     0.107 N 
HETATM    5  C4  UNL     1      20.620   1.588  53.213  1.00  0.00     0.276 C 
HETATM    6  C5  UNL     1      20.451   2.623  52.116  1.00  0.00     0.057 C 
HETATM    7  C6  UNL     1      20.149   2.008  50.777  1.00  0.00     0.113 C 
HETATM    8  C7  UNL     1      20.125   0.501  50.984  1.00  0.00     0.057 C 
HETATM    9  C8  UNL     1      21.444   0.030  51.566  1.00  0.00     0.276 C 
HETATM   10  N4  UNL     1      21.103   2.357  49.754  1.00  0.00    -0.276 N 
HETATM   11  C9  UNL     1      21.668   3.579  49.687  1.00  0.00     0.125 A 
HETATM   12  C10 UNL     1      22.524   3.574  48.601  1.00  0.00     0.002 A 
HETATM   13  C11 UNL     1      22.447   2.319  48.035  1.00  0.00     0.151 A 
HETATM   14  N5  UNL     1      21.575   1.616  48.765  1.00  0.00    -0.184 NA
HETATM   15  C12 UNL     1      23.286   4.775  48.273  1.00  0.00     0.033 C 
HETATM   16  C13 UNL     1      24.085   4.990  49.330  1.00  0.00     0.117 C 
HETATM   17  N6  UNL     1      23.858   3.982  50.307  1.00  0.00    -0.271 NA
HETATM   18  C14 UNL     1      24.720   3.602  51.158  1.00  0.00     0.148 C 
ENDROOT
BRANCH   1  19
HETATM   19  C1  UNL     1      25.564   2.209  53.096  1.00  0.00     0.139 C 
HETATM   20  N1  UNL     1      26.446   2.460  54.006  1.00  0.00    -0.310 NA
HETATM   21  H1  UNL     1      26.532   3.430  54.369  1.00  0.00     0.186 HD
ENDBRANCH   1  19
TORSDOF 1
ENDMDL
MODEL 9
REMARK VINA RESULT:      -6.0      2.795      4.722
REMARK  1 active torsions:
REMARK  status: ('A' for Active; 'I' for Inactive)
REMARK    1  A    between atoms: C1_2  and  C2_3 
ROOT
HETATM    1  C2  UNL     1      21.060  -0.047  53.557  1.00  0.00     0.087 C 
HETATM    2  N2  UNL     1      21.586   0.853  52.836  1.00  0.00    -0.257 NA
HETATM    3  C3  UNL     1      22.902   1.419  53.079  1.00  0.00     0.421 C 
HETATM    4  N3  UNL     1      23.244   2.402  52.069  1.00  0.00     0.107 N 
HETATM    5  C4  UNL     1      23.438   1.840  50.772  1.00  0.00     0.276 C 
HETATM    6  C5  UNL     1      22.137   1.594  50.031  1.00  0.00     0.057 C 
HETATM    7  C6  UNL     1      21.259   2.814  49.976  1.00  0.00     0.113 C 
HETATM    8  C7  UNL     1      21.996   3.918  50.719  1.00  0.00     0.057 C 
HETATM    9  C8  UNL     1      22.307   3.478  52.136  1.00  0.00     0.276 C 
HETATM   10  N4  UNL     1      19.953   2.610  50.551  1.00  0.00    -0.276 N 
HETATM   11  C9  UNL     1      19.288   1.444  50.427  1.00  0.00     0.125 A 
HETATM   12  C10 UNL     1      18.083   1.588  51.089  1.00  0.00     0.002 A 
HETATM   13  C11 UNL     1      18.058   2.867  51.604  1.00  0.00     0.151 A 
HETATM   14  N5  UNL     1      19.210   3.449  51.253  1.00  0.00    -0.184 NA
HETATM   15  C12 UNL     1      17.138   0.476  51.127  1.00  0.00     0.033 C 
HETATM   16  C13 UNL     1      17.771  -0.506  51.790  1.00  0.00     0.117 C 
HETATM   17  N6  UNL     1      19.068  -0.063  52.167  1.00  0.00    -0.271 NA
HETATM   18  C14 UNL     1      19.715  -0.507  53.164  1.00  0.00     0.148 C 
ENDROOT
BRANCH   1  19
HETATM   19  C1  UNL     1      21.699  -0.642  54.730  1.00  0.00     0.139 C 
HETATM   20  N1  UNL     1      22.313  -1.577  55.375  1.00  0.00    -0.310 NA
HETATM   21  H1  UNL     1      22.538  -2.464  54.883  1.00  0.00     0.186 HD
ENDBRANCH   1  19
TORSDOF 1
ENDMDL
