MODEL 1
REMARK VINA RESULT:      -8.1      0.000      0.000
REMARK  3 active torsions:
REMARK  status: ('A' for Active; 'I' for Inactive)
REMARK    1  A    between atoms: C2_2  and  C3_3 
REMARK    2  A    between atoms: C7_7  and  N1_8 
REMARK    3  A    between atoms: N1_8  and  C8_9 
ROOT
HETATM    1  C8  UNL     1      25.272   0.277  53.224  1.00  0.00     0.143 A 
HETATM    2  N2  UNL     1      25.009   1.581  53.420  1.00  0.00    -0.223 NA
HETATM    3  C9  UNL     1      25.919   2.512  53.729  1.00  0.00     0.236 A 
HETATM    4  N3  UNL     1      27.205   2.097  53.850  1.00  0.00    -0.241 NA
HETATM    5  C10 UNL     1      27.542   0.817  53.669  1.00  0.00     0.072 A 
HETATM    6  C11 UNL     1      26.600  -0.142  53.351  1.00  0.00     0.056 A 
HETATM    7  C12 UNL     1      26.601  -1.444  53.107  1.00  0.00     0.136 C 
HETATM    8  N4  UNL     1      27.612  -2.474  53.070  1.00  0.00    -0.248 NA
HETATM    9  C13 UNL     1      28.922  -2.440  53.030  1.00  0.00     0.251 C 
HETATM   10  O1  UNL     1      29.781  -1.356  53.009  1.00  0.00    -0.341 OA
HETATM   11  C14 UNL     1      29.994  -0.250  53.850  1.00  0.00     0.206 C 
HETATM   12  C15 UNL     1      28.852   0.672  53.843  1.00  0.00     0.032 C 
ENDROOT
BRANCH   1  13
HETATM   13  N1  UNL     1      24.249  -0.666  52.890  1.00  0.00    -0.340 N 
HETATM   14  H7  UNL     1      24.521  -1.556  52.377  1.00  0.00     0.167 HD
BRANCH  13  15
HETATM   15  C7  UNL     1      22.866  -0.527  53.187  1.00  0.00     0.034 A 
HETATM   16  C6  UNL     1      22.329  -0.804  54.417  1.00  0.00     0.029 A 
HETATM   17  C5  UNL     1      20.983  -0.674  54.671  1.00  0.00     0.003 A 
HETATM   18  C4  UNL     1      20.100  -0.265  53.720  1.00  0.00     0.011 A 
HETATM   19  C3  UNL     1      20.608   0.022  52.464  1.00  0.00    -0.035 A 
HETATM   20  C16 UNL     1      21.967  -0.119  52.245  1.00  0.00     0.041 A 
BRANCH  19  21
HETATM   21  C2  UNL     1      19.701   0.455  51.419  1.00  0.00     0.001 C 
HETATM   22  C1  UNL     1      18.452   0.123  51.251  1.00  0.00     0.012 C 
ENDBRANCH  19  21
ENDBRANCH  13  15
ENDBRANCH   1  13
TORSDOF 3
ENDMDL
MODEL 2
REMARK VINA RESULT:      -8.1      2.738      7.240
REMARK  3 active torsions:
REMARK  status: ('A' for Active; 'I' for Inactive)
REMARK    1  A    between atoms: C2_2  and  C3_3 
REMARK    2  A    between atoms: C7_7  and  N1_8 
REMARK    3  A    between atoms: N1_8  and  C8_9 
ROOT
HETATM    1  C8  UNL     1      23.871  -0.117  53.461  1.00  0.00     0.143 A 
HETATM    2  N2  UNL     1      24.186  -0.774  54.591  1.00  0.00    -0.223 NA
HETATM    3  C9  UNL     1      23.307  -1.369  55.405  1.00  0.00     0.236 A 
HETATM    4  N3  UNL     1      21.998  -1.300  55.051  1.00  0.00    -0.241 NA
HETATM    5  C10 UNL     1      21.611  -0.665  53.942  1.00  0.00     0.072 A 
HETATM    6  C11 UNL     1      22.521  -0.050  53.105  1.00  0.00     0.056 A 
HETATM    7  C12 UNL     1      22.471   0.631  51.969  1.00  0.00     0.136 C 
HETATM    8  N4  UNL     1      21.417   1.053  51.078  1.00  0.00    -0.248 NA
HETATM    9  C13 UNL     1      20.159   0.706  50.954  1.00  0.00     0.251 C 
HETATM   10  O1  UNL     1      19.418  -0.215  51.670  1.00  0.00    -0.341 OA
HETATM   11  C14 UNL     1      19.106  -0.387  53.030  1.00  0.00     0.206 C 
HETATM   12  C15 UNL     1      20.289  -0.740  53.824  1.00  0.00     0.032 C 
ENDROOT
BRANCH   1  13
HETATM   13  N1  UNL     1      24.864   0.494  52.631  1.00  0.00    -0.340 N 
HETATM   14  H7  UNL     1      24.598   0.791  51.647  1.00  0.00     0.167 HD
BRANCH  13  15
HETATM   15  C7  UNL     1      26.211   0.753  53.007  1.00  0.00     0.034 A 
HETATM   16  C6  UNL     1      26.691   2.010  53.268  1.00  0.00     0.029 A 
HETATM   17  C5  UNL     1      28.004   2.231  53.615  1.00  0.00     0.003 A 
HETATM   18  C4  UNL     1      28.909   1.221  53.720  1.00  0.00     0.011 A 
HETATM   19  C3  UNL     1      28.458  -0.063  53.461  1.00  0.00    -0.035 A 
HETATM   20  C16 UNL     1      27.131  -0.248  53.116  1.00  0.00     0.041 A 
BRANCH  19  21
HETATM   21  C2  UNL     1      29.391  -1.170  53.555  1.00  0.00     0.001 C 
HETATM   22  C1  UNL     1      29.200  -2.413  53.216  1.00  0.00     0.012 C 
ENDBRANCH  19  21
ENDBRANCH  13  15
ENDBRANCH   1  13
TORSDOF 3
ENDMDL
MODEL 3
REMARK VINA RESULT:      -7.6      3.699      6.278
REMARK  3 active torsions:
REMARK  status: ('A' for Active; 'I' for Inactive)
REMARK    1  A    between atoms: C2_2  and  C3_3 
REMARK    2  A    between atoms: C7_7  and  N1_8 
REMARK    3  A    between atoms: N1_8  and  C8_9 
ROOT
HETATM    1  C8  UNL     1      25.107   1.084  52.059  1.00  0.00     0.143 A 
HETATM    2  N2  UNL     1      26.426   0.851  51.953  1.00  0.00    -0.223 NA
HETATM    3  C9  UNL     1      27.138   0.069  52.773  1.00  0.00     0.236 A 
HETATM    4  N3  UNL     1      26.465  -0.532  53.787  1.00  0.00    -0.241 NA
HETATM    5  C10 UNL     1      25.153  -0.347  53.954  1.00  0.00     0.072 A 
HETATM    6  C11 UNL     1      24.421   0.461  53.107  1.00  0.00     0.056 A 
HETATM    7  C12 UNL     1      23.155   0.836  52.993  1.00  0.00     0.136 C 
HETATM    8  N4  UNL     1      21.942   0.566  53.728  1.00  0.00    -0.248 NA
HETATM    9  C13 UNL     1      21.622  -0.335  54.625  1.00  0.00     0.251 C 
HETATM   10  O1  UNL     1      22.381  -1.354  55.170  1.00  0.00    -0.341 OA
HETATM   11  C14 UNL     1      23.602  -1.411  55.864  1.00  0.00     0.206 C 
HETATM   12  C15 UNL     1      24.737  -1.040  55.010  1.00  0.00     0.032 C 
ENDROOT
BRANCH   1  13
HETATM   13  N1  UNL     1      24.404   1.928  51.142  1.00  0.00    -0.340 N 
HETATM   14  H7  UNL     1      23.492   1.582  50.723  1.00  0.00     0.167 HD
BRANCH  13  15
HETATM   15  C7  UNL     1      24.819   3.223  50.726  1.00  0.00     0.034 A 
HETATM   16  C6  UNL     1      24.146   4.371  51.057  1.00  0.00     0.029 A 
HETATM   17  C5  UNL     1      24.563   5.609  50.627  1.00  0.00     0.003 A 
HETATM   18  C4  UNL     1      25.666   5.776  49.847  1.00  0.00     0.011 A 
HETATM   19  C3  UNL     1      26.369   4.636  49.492  1.00  0.00    -0.035 A 
HETATM   20  C16 UNL     1      25.921   3.407  49.943  1.00  0.00     0.041 A 
BRANCH  19  21
HETATM   21  C2  UNL     1      27.547   4.767  48.657  1.00  0.00     0.001 C 
HETATM   22  C1  UNL     1      28.167   5.858  48.308  1.00  0.00     0.012 C 
ENDBRANCH  19  21
ENDBRANCH  13  15
ENDBRANCH   1  13
TORSDOF 3
ENDMDL
MODEL 4
REMARK VINA RESULT:      -7.6      3.049      7.326
REMARK  3 active torsions:
REMARK  status: ('A' for Active; 'I' for Inactive)
REMARK    1  A    between atoms: C2_2  and  C3_3 
REMARK    2  A    between atoms: C7_7  and  N1_8 
REMARK    3  A    between atoms: N1_8  and  C8_9 
ROOT
HETATM    1  C8  UNL     1      24.305   0.816  52.501  1.00  0.00     0.143 A 
HETATM    2  N2  UNL     1      24.130  -0.212  53.349  1.00  0.00    -0.223 NA
HETATM    3  C9  UNL     1      22.972  -0.537  53.935  1.00  0.00     0.236 A 
HETATM    4  N3  UNL     1      21.897   0.237  53.642  1.00  0.00    -0.241 NA
HETATM    5  C10 UNL     1      21.995   1.274  52.806  1.00  0.00     0.072 A 
HETATM    6  C11 UNL     1      23.192   1.608  52.203  1.00  0.00     0.056 A 
HETATM    7  C12 UNL     1      23.613   2.533  51.354  1.00  0.00     0.136 C 
HETATM    8  N4  UNL     1      22.996   3.640  50.664  1.00  0.00    -0.248 NA
HETATM    9  C13 UNL     1      21.747   3.976  50.449  1.00  0.00     0.251 C 
HETATM   10  O1  UNL     1      20.579   3.344  50.835  1.00  0.00    -0.341 OA
HETATM   11  C14 UNL     1      20.035   2.946  52.068  1.00  0.00     0.206 C 
HETATM   12  C15 UNL     1      20.809   1.864  52.687  1.00  0.00     0.032 C 
ENDROOT
BRANCH   1  13
HETATM   13  N1  UNL     1      25.573   1.105  51.903  1.00  0.00    -0.340 N 
HETATM   14  H7  UNL     1      25.607   1.368  50.875  1.00  0.00     0.167 HD
BRANCH  13  15
HETATM   15  C7  UNL     1      26.828   1.075  52.571  1.00  0.00     0.034 A 
HETATM   16  C6  UNL     1      27.441   2.194  53.072  1.00  0.00     0.029 A 
HETATM   17  C5  UNL     1      28.663   2.136  53.700  1.00  0.00     0.003 A 
HETATM   18  C4  UNL     1      29.343   0.969  53.863  1.00  0.00     0.011 A 
HETATM   19  C3  UNL     1      28.754  -0.182  53.367  1.00  0.00    -0.035 A 
HETATM   20  C16 UNL     1      27.523  -0.087  52.741  1.00  0.00     0.041 A 
BRANCH  19  21
HETATM   21  C2  UNL     1      29.447  -1.448  53.513  1.00  0.00     0.001 C 
HETATM   22  C1  UNL     1      29.018  -2.639  53.206  1.00  0.00     0.012 C 
ENDBRANCH  19  21
ENDBRANCH  13  15
ENDBRANCH   1  13
TORSDOF 3
ENDMDL
MODEL 5
REMARK VINA RESULT:      -7.5      2.778      7.028
REMARK  3 active torsions:
REMARK  status: ('A' for Active; 'I' for Inactive)
REMARK    1  A    between atoms: C2_2  and  C3_3 
REMARK    2  A    between atoms: C7_7  and  N1_8 
REMARK    3  A    between atoms: N1_8  and  C8_9 
ROOT
HETATM    1  C8  UNL     1      24.504   1.580  52.486  1.00  0.00     0.143 A 
HETATM    2  N2  UNL     1      24.967   2.349  51.485  1.00  0.00    -0.223 NA
HETATM    3  C9  UNL     1      24.279   2.680  50.387  1.00  0.00     0.236 A 
HETATM    4  N3  UNL     1      23.014   2.196  50.286  1.00  0.00    -0.241 NA
HETATM    5  C10 UNL     1      22.487   1.427  51.242  1.00  0.00     0.072 A 
HETATM    6  C11 UNL     1      23.201   1.087  52.375  1.00  0.00     0.056 A 
HETATM    7  C12 UNL     1      22.980   0.377  53.471  1.00  0.00     0.136 C 
HETATM    8  N4  UNL     1      21.867  -0.386  53.985  1.00  0.00    -0.248 NA
HETATM    9  C13 UNL     1      20.598  -0.448  53.659  1.00  0.00     0.251 C 
HETATM   10  O1  UNL     1      19.901   0.231  52.676  1.00  0.00    -0.341 OA
HETATM   11  C14 UNL     1      20.031   0.355  51.282  1.00  0.00     0.206 C 
HETATM   12  C15 UNL     1      21.246   1.088  50.907  1.00  0.00     0.032 C 
ENDROOT
BRANCH   1  13
HETATM   13  N1  UNL     1      25.294   1.270  53.638  1.00  0.00    -0.340 N 
HETATM   14  H7  UNL     1      24.803   1.093  54.563  1.00  0.00     0.167 HD
BRANCH  13  15
HETATM   15  C7  UNL     1      26.712   1.171  53.667  1.00  0.00     0.034 A 
HETATM   16  C6  UNL     1      27.540   2.257  53.787  1.00  0.00     0.029 A 
HETATM   17  C5  UNL     1      28.910   2.132  53.797  1.00  0.00     0.003 A 
HETATM   18  C4  UNL     1      29.531   0.926  53.688  1.00  0.00     0.011 A 
HETATM   19  C3  UNL     1      28.725  -0.193  53.563  1.00  0.00    -0.035 A 
HETATM   20  C16 UNL     1      27.351  -0.030  53.558  1.00  0.00     0.041 A 
BRANCH  19  21
HETATM   21  C2  UNL     1      29.345  -1.498  53.437  1.00  0.00     0.001 C 
HETATM   22  C1  UNL     1      28.788  -2.622  53.088  1.00  0.00     0.012 C 
ENDBRANCH  19  21
ENDBRANCH  13  15
ENDBRANCH   1  13
TORSDOF 3
ENDMDL
MODEL 6
REMARK VINA RESULT:      -7.4      4.177      5.848
REMARK  3 active torsions:
REMARK  status: ('A' for Active; 'I' for Inactive)
REMARK    1  A    between atoms: C2_2  and  C3_3 
REMARK    2  A    between atoms: C7_7  and  N1_8 
REMARK    3  A    between atoms: N1_8  and  C8_9 
ROOT
HETATM    1  C8  UNL     1      24.047   3.500  50.997  1.00  0.00     0.143 A 
HETATM    2  N2  UNL     1      22.967   3.998  51.623  1.00  0.00    -0.223 NA
HETATM    3  C9  UNL     1      22.691   5.300  51.764  1.00  0.00     0.236 A 
HETATM    4  N3  UNL     1      23.579   6.177  51.229  1.00  0.00    -0.241 NA
HETATM    5  C10 UNL     1      24.674   5.755  50.593  1.00  0.00     0.072 A 
HETATM    6  C11 UNL     1      24.956   4.410  50.449  1.00  0.00     0.056 A 
HETATM    7  C12 UNL     1      25.914   3.685  49.890  1.00  0.00     0.136 C 
HETATM    8  N4  UNL     1      27.128   3.981  49.168  1.00  0.00    -0.248 NA
HETATM    9  C13 UNL     1      27.588   5.071  48.602  1.00  0.00     0.251 C 
HETATM   10  O1  UNL     1      27.027   6.332  48.517  1.00  0.00    -0.341 OA
HETATM   11  C14 UNL     1      26.569   7.272  49.456  1.00  0.00     0.206 C 
HETATM   12  C15 UNL     1      25.373   6.803  50.166  1.00  0.00     0.032 C 
ENDROOT
BRANCH   1  13
HETATM   13  N1  UNL     1      24.278   2.093  50.877  1.00  0.00    -0.340 N 
HETATM   14  H7  UNL     1      24.244   1.649  49.912  1.00  0.00     0.167 HD
BRANCH  13  15
HETATM   15  C7  UNL     1      24.558   1.205  51.952  1.00  0.00     0.034 A 
HETATM   16  C6  UNL     1      25.829   0.869  52.338  1.00  0.00     0.029 A 
HETATM   17  C5  UNL     1      26.069  -0.005  53.374  1.00  0.00     0.003 A 
HETATM   18  C4  UNL     1      25.064  -0.592  54.077  1.00  0.00     0.011 A 
HETATM   19  C3  UNL     1      23.765  -0.276  53.712  1.00  0.00    -0.035 A 
HETATM   20  C16 UNL     1      23.562   0.607  52.667  1.00  0.00     0.041 A 
BRANCH  19  21
HETATM   21  C2  UNL     1      22.663  -0.885  54.431  1.00  0.00     0.001 C 
HETATM   22  C1  UNL     1      21.435  -0.461  54.528  1.00  0.00     0.012 C 
ENDBRANCH  19  21
ENDBRANCH  13  15
ENDBRANCH   1  13
TORSDOF 3
ENDMDL
MODEL 7
REMARK VINA RESULT:      -7.4      4.616      7.468
REMARK  3 active torsions:
REMARK  status: ('A' for Active; 'I' for Inactive)
REMARK    1  A    between atoms: C2_2  and  C3_3 
REMARK    2  A    between atoms: C7_7  and  N1_8 
REMARK    3  A    between atoms: N1_8  and  C8_9 
ROOT
HETATM    1  C8  UNL     1      25.841   2.571  50.958  1.00  0.00     0.143 A 
HETATM    2  N2  UNL     1      27.064   2.541  51.516  1.00  0.00    -0.223 NA
HETATM    3  C9  UNL     1      27.392   1.850  52.615  1.00  0.00     0.236 A 
HETATM    4  N3  UNL     1      26.405   1.126  53.202  1.00  0.00    -0.241 NA
HETATM    5  C10 UNL     1      25.166   1.108  52.703  1.00  0.00     0.072 A 
HETATM    6  C11 UNL     1      24.831   1.823  51.570  1.00  0.00     0.056 A 
HETATM    7  C12 UNL     1      23.741   2.008  50.839  1.00  0.00     0.136 C 
HETATM    8  N4  UNL     1      22.377   1.539  50.906  1.00  0.00    -0.248 NA
HETATM    9  C13 UNL     1      21.795   0.574  51.576  1.00  0.00     0.251 C 
HETATM   10  O1  UNL     1      22.332  -0.337  52.468  1.00  0.00    -0.341 OA
HETATM   11  C14 UNL     1      23.055  -0.232  53.668  1.00  0.00     0.206 C 
HETATM   12  C15 UNL     1      24.394   0.330  53.456  1.00  0.00     0.032 C 
ENDROOT
BRANCH   1  13
HETATM   13  N1  UNL     1      25.560   3.329  49.777  1.00  0.00    -0.340 N 
HETATM   14  H7  UNL     1      24.917   2.912  49.043  1.00  0.00     0.167 HD
BRANCH  13  15
HETATM   15  C7  UNL     1      26.071   4.623  49.483  1.00  0.00     0.034 A 
HETATM   16  C6  UNL     1      25.422   5.782  49.821  1.00  0.00     0.029 A 
HETATM   17  C5  UNL     1      25.934   7.021  49.510  1.00  0.00     0.003 A 
HETATM   18  C4  UNL     1      27.112   7.175  48.846  1.00  0.00     0.011 A 
HETATM   19  C3  UNL     1      27.793   6.024  48.487  1.00  0.00    -0.035 A 
HETATM   20  C16 UNL     1      27.249   4.795  48.818  1.00  0.00     0.041 A 
BRANCH  19  21
HETATM   21  C2  UNL     1      29.050   6.142  47.773  1.00  0.00     0.001 C 
HETATM   22  C1  UNL     1      30.187   5.571  48.048  1.00  0.00     0.012 C 
ENDBRANCH  19  21
ENDBRANCH  13  15
ENDBRANCH   1  13
TORSDOF 3
ENDMDL
MODEL 8
REMARK VINA RESULT:      -7.4      4.019      7.452
REMARK  3 active torsions:
REMARK  status: ('A' for Active; 'I' for Inactive)
REMARK    1  A    between atoms: C2_2  and  C3_3 
REMARK    2  A    between atoms: C7_7  and  N1_8 
REMARK    3  A    between atoms: N1_8  and  C8_9 
ROOT
HETATM    1  C8  UNL     1      25.847   2.777  51.090  1.00  0.00     0.143 A 
HETATM    2  N2  UNL     1      26.854   3.110  50.265  1.00  0.00    -0.223 NA
HETATM    3  C9  UNL     1      26.802   4.073  49.336  1.00  0.00     0.236 A 
HETATM    4  N3  UNL     1      25.637   4.761  49.230  1.00  0.00    -0.241 NA
HETATM    5  C10 UNL     1      24.594   4.486  50.017  1.00  0.00     0.072 A 
HETATM    6  C11 UNL     1      24.650   3.491  50.974  1.00  0.00     0.056 A 
HETATM    7  C12 UNL     1      23.831   2.989  51.886  1.00  0.00     0.136 C 
HETATM    8  N4  UNL     1      22.473   3.259  52.295  1.00  0.00    -0.248 NA
HETATM    9  C13 UNL     1      21.652   4.256  52.070  1.00  0.00     0.251 C 
HETATM   10  O1  UNL     1      21.842   5.414  51.337  1.00  0.00    -0.341 OA
HETATM   11  C14 UNL     1      22.199   5.690  50.006  1.00  0.00     0.206 C 
HETATM   12  C15 UNL     1      23.583   5.295  49.715  1.00  0.00     0.032 C 
ENDROOT
BRANCH   1  13
HETATM   13  N1  UNL     1      25.972   1.739  52.066  1.00  0.00    -0.340 N 
HETATM   14  H7  UNL     1      25.116   1.159  52.311  1.00  0.00     0.167 HD
BRANCH  13  15
HETATM   15  C7  UNL     1      27.165   1.394  52.760  1.00  0.00     0.034 A 
HETATM   16  C6  UNL     1      27.923   2.305  53.449  1.00  0.00     0.029 A 
HETATM   17  C5  UNL     1      29.081   1.945  54.099  1.00  0.00     0.003 A 
HETATM   18  C4  UNL     1      29.548   0.667  54.100  1.00  0.00     0.011 A 
HETATM   19  C3  UNL     1      28.807  -0.279  53.411  1.00  0.00    -0.035 A 
HETATM   20  C16 UNL     1      27.647   0.118  52.770  1.00  0.00     0.041 A 
BRANCH  19  21
HETATM   21  C2  UNL     1      29.272  -1.652  53.380  1.00  0.00     0.001 C 
HETATM   22  C1  UNL     1      28.607  -2.718  53.034  1.00  0.00     0.012 C 
ENDBRANCH  19  21
ENDBRANCH  13  15
ENDBRANCH   1  13
TORSDOF 3
ENDMDL
MODEL 9
REMARK VINA RESULT:      -7.3      4.298      6.867
REMARK  3 active torsions:
REMARK  status: ('A' for Active; 'I' for Inactive)
REMARK    1  A    between atoms: C2_2  and  C3_3 
REMARK    2  A    between atoms: C7_7  and  N1_8 
REMARK    3  A    between atoms: N1_8  and  C8_9 
ROOT
HETATM    1  C8  UNL     1      25.867   2.357  51.187  1.00  0.00     0.143 A 
HETATM    2  N2  UNL     1      27.125   2.393  51.659  1.00  0.00    -0.223 NA
HETATM    3  C9  UNL     1      27.567   1.715  52.726  1.00  0.00     0.236 A 
HETATM    4  N3  UNL     1      26.665   0.934  53.373  1.00  0.00    -0.241 NA
HETATM    5  C10 UNL     1      25.398   0.849  52.961  1.00  0.00     0.072 A 
HETATM    6  C11 UNL     1      24.945   1.549  51.860  1.00  0.00     0.056 A 
HETATM    7  C12 UNL     1      23.798   1.676  51.209  1.00  0.00     0.136 C 
HETATM    8  N4  UNL     1      22.471   1.131  51.365  1.00  0.00    -0.248 NA
HETATM    9  C13 UNL     1      21.991   0.131  52.065  1.00  0.00     0.251 C 
HETATM   10  O1  UNL     1      22.639  -0.752  52.909  1.00  0.00    -0.341 OA
HETATM   11  C14 UNL     1      23.437  -0.613  54.058  1.00  0.00     0.206 C 
HETATM   12  C15 UNL     1      24.725   0.024  53.758  1.00  0.00     0.032 C 
ENDROOT
BRANCH   1  13
HETATM   13  N1  UNL     1      25.462   3.103  50.036  1.00  0.00    -0.340 N 
HETATM   14  H7  UNL     1      24.662   2.736  49.442  1.00  0.00     0.167 HD
BRANCH  13  15
HETATM   15  C7  UNL     1      26.042   4.324  49.595  1.00  0.00     0.034 A 
HETATM   16  C6  UNL     1      27.211   4.388  48.881  1.00  0.00     0.029 A 
HETATM   17  C5  UNL     1      27.756   5.586  48.481  1.00  0.00     0.003 A 
HETATM   18  C4  UNL     1      27.175   6.782  48.768  1.00  0.00     0.011 A 
HETATM   19  C3  UNL     1      25.993   6.755  49.490  1.00  0.00    -0.035 A 
HETATM   20  C16 UNL     1      25.473   5.532  49.875  1.00  0.00     0.041 A 
BRANCH  19  21
HETATM   21  C2  UNL     1      25.343   8.008  49.824  1.00  0.00     0.001 C 
HETATM   22  C1  UNL     1      24.229   8.186  50.475  1.00  0.00     0.012 C 
ENDBRANCH  19  21
ENDBRANCH  13  15
ENDBRANCH   1  13
TORSDOF 3
ENDMDL
