MODEL 1
REMARK VINA RESULT:      -8.8      0.000      0.000
REMARK  7 active torsions:
REMARK  status: ('A' for Active; 'I' for Inactive)
REMARK    1  A    between atoms: O1_2  and  C2_3 
REMARK    2  A    between atoms: C5_6  and  N1_7 
REMARK       I    between atoms: N1_7  and  C6_8 
REMARK       I    between atoms: C6_8  and  N2_10 
REMARK    3  A    between atoms: N2_10  and  C7_11 
REMARK    4  A    between atoms: C12_16  and  N3_17 
REMARK    5  A    between atoms: N3_17  and  C14_19 
REMARK    6  A    between atoms: C18_25  and  O3_26 
REMARK    7  A    between atoms: C20_28  and  O4_29 
ROOT
HETATM    1  C7  UNL     1      23.813   3.068  49.421  1.00  0.00     0.029 C 
HETATM    2  C8  UNL     1      23.003   2.780  48.384  1.00  0.00     0.044 A 
HETATM    3  C9  UNL     1      21.924   2.310  47.530  1.00  0.00    -0.012 A 
HETATM    4  C10 UNL     1      20.995   2.245  48.462  1.00  0.00    -0.021 A 
HETATM    5  C11 UNL     1      21.914   2.718  49.440  1.00  0.00     0.056 A 
HETATM    6  C12 UNL     1      22.947   2.083  50.191  1.00  0.00     0.141 C 
ENDROOT
BRANCH   6   7
HETATM    7  N3  UNL     1      23.033   2.348  51.588  1.00  0.00    -0.359 N 
HETATM    8  C13 UNL     1      22.924   3.577  52.335  1.00  0.00     0.152 C 
BRANCH   7   9
HETATM    9  C14 UNL     1      23.262   1.256  52.486  1.00  0.00     0.140 A 
HETATM   10  N4  UNL     1      22.131   0.615  52.894  1.00  0.00    -0.224 NA
HETATM   11  C15 UNL     1      22.150  -0.433  53.727  1.00  0.00     0.236 A 
HETATM   12  N5  UNL     1      23.344  -0.882  54.189  1.00  0.00    -0.241 NA
HETATM   13  C16 UNL     1      24.504  -0.299  53.828  1.00  0.00     0.075 A 
HETATM   14  C17 UNL     1      25.748  -0.714  54.268  1.00  0.00     0.072 A 
HETATM   15  C23 UNL     1      24.456   0.778  52.970  1.00  0.00     0.041 A 
HETATM   16  C18 UNL     1      26.871  -0.040  53.833  1.00  0.00     0.103 A 
HETATM   17  C20 UNL     1      26.812   1.040  52.971  1.00  0.00     0.102 A 
HETATM   18  C22 UNL     1      25.571   1.452  52.534  1.00  0.00     0.057 A 
BRANCH  16  19
HETATM   19  O3  UNL     1      28.116  -0.496  54.305  1.00  0.00    -0.353 OA
HETATM   20  C19 UNL     1      28.902  -1.331  53.511  1.00  0.00     0.210 C 
ENDBRANCH  16  19
BRANCH  17  21
HETATM   21  O4  UNL     1      28.022   1.621  52.617  1.00  0.00    -0.353 OA
HETATM   22  C21 UNL     1      28.670   2.530  53.490  1.00  0.00     0.210 C 
ENDBRANCH  17  21
ENDBRANCH   7   9
ENDBRANCH   6   7
BRANCH   1  23
HETATM   23  N2  UNL     1      25.023   3.716  49.758  1.00  0.00    -0.313 N 
HETATM   24  C6  UNL     1      25.235   5.044  49.317  1.00  0.00     0.324 C 
HETATM   25  N1  UNL     1      26.384   5.800  49.579  1.00  0.00    -0.309 N 
HETATM   26  O2  UNL     1      24.299   5.534  48.646  1.00  0.00    -0.247 OA
HETATM   27  H6  UNL     1      27.077   5.265  50.146  1.00  0.00     0.170 HD
HETATM   28  H7  UNL     1      25.752   3.240  50.319  1.00  0.00     0.170 HD
BRANCH  25  29
HETATM   29  C5  UNL     1      26.701   7.126  49.189  1.00  0.00     0.036 A 
HETATM   30  C4  UNL     1      27.305   7.513  48.019  1.00  0.00     0.032 A 
HETATM   31  C3  UNL     1      27.597   8.794  47.672  1.00  0.00     0.039 A 
HETATM   32  C2  UNL     1      27.278   9.821  48.534  1.00  0.00     0.068 A 
HETATM   33  C25 UNL     1      26.670   9.470  49.721  1.00  0.00     0.039 A 
HETATM   34  C24 UNL     1      26.397   8.153  50.021  1.00  0.00     0.032 A 
BRANCH  32  35
HETATM   35  O1  UNL     1      27.510  11.172  48.325  1.00  0.00    -0.356 OA
HETATM   36  C1  UNL     1      28.679  11.799  48.824  1.00  0.00     0.210 C 
ENDBRANCH  32  35
ENDBRANCH  25  29
ENDBRANCH   1  23
TORSDOF 7
ENDMDL
MODEL 2
REMARK VINA RESULT:      -8.7      4.347      7.577
REMARK  7 active torsions:
REMARK  status: ('A' for Active; 'I' for Inactive)
REMARK    1  A    between atoms: O1_2  and  C2_3 
REMARK    2  A    between atoms: C5_6  and  N1_7 
REMARK       I    between atoms: N1_7  and  C6_8 
REMARK       I    between atoms: C6_8  and  N2_10 
REMARK    3  A    between atoms: N2_10  and  C7_11 
REMARK    4  A    between atoms: C12_16  and  N3_17 
REMARK    5  A    between atoms: N3_17  and  C14_19 
REMARK    6  A    between atoms: C18_25  and  O3_26 
REMARK    7  A    between atoms: C20_28  and  O4_29 
ROOT
HETATM    1  C7  UNL     1      22.317   3.114  50.194  1.00  0.00     0.029 C 
HETATM    2  C8  UNL     1      22.239   3.066  48.850  1.00  0.00     0.044 A 
HETATM    3  C9  UNL     1      21.817   2.873  47.472  1.00  0.00    -0.012 A 
HETATM    4  C10 UNL     1      20.519   2.903  47.692  1.00  0.00    -0.021 A 
HETATM    5  C11 UNL     1      20.739   3.117  49.082  1.00  0.00     0.056 A 
HETATM    6  C12 UNL     1      21.071   2.244  50.159  1.00  0.00     0.141 C 
ENDROOT
BRANCH   6   7
HETATM    7  N3  UNL     1      20.354   2.372  51.384  1.00  0.00    -0.359 N 
HETATM    8  C13 UNL     1      19.591   3.466  51.933  1.00  0.00     0.152 C 
BRANCH   7   9
HETATM    9  C14 UNL     1      20.329   1.263  52.290  1.00  0.00     0.140 A 
HETATM   10  N4  UNL     1      21.418   1.177  53.105  1.00  0.00    -0.224 NA
HETATM   11  C15 UNL     1      21.565   0.211  54.020  1.00  0.00     0.236 A 
HETATM   12  N5  UNL     1      20.594  -0.728  54.146  1.00  0.00    -0.241 NA
HETATM   13  C16 UNL     1      19.489  -0.707  53.374  1.00  0.00     0.075 A 
HETATM   14  C17 UNL     1      18.468  -1.636  53.460  1.00  0.00     0.072 A 
HETATM   15  C23 UNL     1      19.362   0.299  52.441  1.00  0.00     0.041 A 
HETATM   16  C18 UNL     1      17.382  -1.517  52.616  1.00  0.00     0.103 A 
HETATM   17  C20 UNL     1      17.264  -0.504  51.682  1.00  0.00     0.102 A 
HETATM   18  C22 UNL     1      18.283   0.422  51.600  1.00  0.00     0.057 A 
BRANCH  16  19
HETATM   19  O3  UNL     1      16.367  -2.484  52.738  1.00  0.00    -0.353 OA
HETATM   20  C19 UNL     1      16.634  -3.705  53.357  1.00  0.00     0.210 C 
ENDBRANCH  16  19
BRANCH  17  21
HETATM   21  O4  UNL     1      16.117  -0.508  50.902  1.00  0.00    -0.353 OA
HETATM   22  C21 UNL     1      16.186  -0.795  49.516  1.00  0.00     0.210 C 
ENDBRANCH  17  21
ENDBRANCH   7   9
ENDBRANCH   6   7
BRANCH   1  23
HETATM   23  N2  UNL     1      23.164   3.499  51.259  1.00  0.00    -0.313 N 
HETATM   24  C6  UNL     1      24.163   2.599  51.700  1.00  0.00     0.324 C 
HETATM   25  N1  UNL     1      25.066   2.853  52.739  1.00  0.00    -0.309 N 
HETATM   26  O2  UNL     1      24.202   1.510  51.086  1.00  0.00    -0.247 OA
HETATM   27  H6  UNL     1      24.916   3.796  53.158  1.00  0.00     0.170 HD
HETATM   28  H7  UNL     1      23.068   4.423  51.717  1.00  0.00     0.170 HD
BRANCH  25  29
HETATM   29  C5  UNL     1      26.096   2.031  53.261  1.00  0.00     0.036 A 
HETATM   30  C4  UNL     1      25.959   1.047  54.209  1.00  0.00     0.032 A 
HETATM   31  C3  UNL     1      26.967   0.274  54.691  1.00  0.00     0.039 A 
HETATM   32  C2  UNL     1      28.248   0.457  54.219  1.00  0.00     0.068 A 
HETATM   33  C25 UNL     1      28.425   1.437  53.265  1.00  0.00     0.039 A 
HETATM   34  C24 UNL     1      27.366   2.193  52.812  1.00  0.00     0.032 A 
BRANCH  32  35
HETATM   35  O1  UNL     1      29.377  -0.248  54.609  1.00  0.00    -0.356 OA
HETATM   36  C1  UNL     1      29.974  -1.206  53.751  1.00  0.00     0.210 C 
ENDBRANCH  32  35
ENDBRANCH  25  29
ENDBRANCH   1  23
TORSDOF 7
ENDMDL
MODEL 3
REMARK VINA RESULT:      -8.6      3.664      5.992
REMARK  7 active torsions:
REMARK  status: ('A' for Active; 'I' for Inactive)
REMARK    1  A    between atoms: O1_2  and  C2_3 
REMARK    2  A    between atoms: C5_6  and  N1_7 
REMARK       I    between atoms: N1_7  and  C6_8 
REMARK       I    between atoms: C6_8  and  N2_10 
REMARK    3  A    between atoms: N2_10  and  C7_11 
REMARK    4  A    between atoms: C12_16  and  N3_17 
REMARK    5  A    between atoms: N3_17  and  C14_19 
REMARK    6  A    between atoms: C18_25  and  O3_26 
REMARK    7  A    between atoms: C20_28  and  O4_29 
ROOT
HETATM    1  C7  UNL     1      26.834   1.701  52.269  1.00  0.00     0.029 C 
HETATM    2  C8  UNL     1      27.891   2.224  52.919  1.00  0.00     0.044 A 
HETATM    3  C9  UNL     1      28.974   2.501  53.849  1.00  0.00    -0.012 A 
HETATM    4  C10 UNL     1      29.117   1.273  54.304  1.00  0.00    -0.021 A 
HETATM    5  C11 UNL     1      28.084   0.812  53.441  1.00  0.00     0.056 A 
HETATM    6  C12 UNL     1      26.661   0.853  53.520  1.00  0.00     0.141 C 
ENDROOT
BRANCH   6   7
HETATM    7  N3  UNL     1      25.927  -0.328  53.209  1.00  0.00    -0.359 N 
HETATM    8  C13 UNL     1      26.155  -1.363  52.232  1.00  0.00     0.152 C 
BRANCH   7   9
HETATM    9  C14 UNL     1      24.740  -0.620  53.956  1.00  0.00     0.140 A 
HETATM   10  N4  UNL     1      24.959  -1.296  55.119  1.00  0.00    -0.224 NA
HETATM   11  C15 UNL     1      23.970  -1.649  55.950  1.00  0.00     0.236 A 
HETATM   12  N5  UNL     1      22.693  -1.323  55.627  1.00  0.00    -0.241 NA
HETATM   13  C16 UNL     1      22.401  -0.656  54.493  1.00  0.00     0.075 A 
HETATM   14  C17 UNL     1      21.120  -0.298  54.114  1.00  0.00     0.072 A 
HETATM   15  C23 UNL     1      23.437  -0.304  53.656  1.00  0.00     0.041 A 
HETATM   16  C18 UNL     1      20.939   0.385  52.928  1.00  0.00     0.103 A 
HETATM   17  C20 UNL     1      21.986   0.733  52.094  1.00  0.00     0.102 A 
HETATM   18  C22 UNL     1      23.261   0.376  52.475  1.00  0.00     0.057 A 
BRANCH  16  19
HETATM   19  O3  UNL     1      19.619   0.729  52.582  1.00  0.00    -0.353 OA
HETATM   20  C19 UNL     1      18.685  -0.270  52.305  1.00  0.00     0.210 C 
ENDBRANCH  16  19
BRANCH  17  21
HETATM   21  O4  UNL     1      21.655   1.419  50.935  1.00  0.00    -0.353 OA
HETATM   22  C21 UNL     1      21.541   0.736  49.698  1.00  0.00     0.210 C 
ENDBRANCH  17  21
ENDBRANCH   7   9
ENDBRANCH   6   7
BRANCH   1  23
HETATM   23  N2  UNL     1      26.010   1.879  51.134  1.00  0.00    -0.313 N 
HETATM   24  C6  UNL     1      25.090   2.954  51.118  1.00  0.00     0.324 C 
HETATM   25  N1  UNL     1      24.219   3.245  50.061  1.00  0.00    -0.309 N 
HETATM   26  O2  UNL     1      25.092   3.668  52.145  1.00  0.00    -0.247 OA
HETATM   27  H6  UNL     1      24.327   2.568  49.275  1.00  0.00     0.170 HD
HETATM   28  H7  UNL     1      26.069   1.242  50.319  1.00  0.00     0.170 HD
BRANCH  25  29
HETATM   29  C5  UNL     1      23.263   4.285  49.939  1.00  0.00     0.036 A 
HETATM   30  C4  UNL     1      23.064   5.090  48.844  1.00  0.00     0.032 A 
HETATM   31  C3  UNL     1      22.138   6.080  48.755  1.00  0.00     0.039 A 
HETATM   32  C2  UNL     1      21.310   6.333  49.827  1.00  0.00     0.068 A 
HETATM   33  C25 UNL     1      21.481   5.544  50.945  1.00  0.00     0.039 A 
HETATM   34  C24 UNL     1      22.436   4.553  50.980  1.00  0.00     0.032 A 
BRANCH  32  35
HETATM   35  O1  UNL     1      20.321   7.304  49.891  1.00  0.00    -0.356 OA
HETATM   36  C1  UNL     1      20.219   8.310  48.898  1.00  0.00     0.210 C 
ENDBRANCH  32  35
ENDBRANCH  25  29
ENDBRANCH   1  23
TORSDOF 7
ENDMDL
MODEL 4
REMARK VINA RESULT:      -8.4      4.193      7.116
REMARK  7 active torsions:
REMARK  status: ('A' for Active; 'I' for Inactive)
REMARK    1  A    between atoms: O1_2  and  C2_3 
REMARK    2  A    between atoms: C5_6  and  N1_7 
REMARK       I    between atoms: N1_7  and  C6_8 
REMARK       I    between atoms: C6_8  and  N2_10 
REMARK    3  A    between atoms: N2_10  and  C7_11 
REMARK    4  A    between atoms: C12_16  and  N3_17 
REMARK    5  A    between atoms: N3_17  and  C14_19 
REMARK    6  A    between atoms: C18_25  and  O3_26 
REMARK    7  A    between atoms: C20_28  and  O4_29 
ROOT
HETATM    1  C7  UNL     1      21.391   0.185  51.877  1.00  0.00     0.029 C 
HETATM    2  C8  UNL     1      21.138  -0.679  52.879  1.00  0.00     0.044 A 
HETATM    3  C9  UNL     1      21.126  -1.412  54.135  1.00  0.00    -0.012 A 
HETATM    4  C10 UNL     1      21.602  -0.446  54.893  1.00  0.00    -0.021 A 
HETATM    5  C11 UNL     1      21.667   0.429  53.773  1.00  0.00     0.056 A 
HETATM    6  C12 UNL     1      22.603   0.577  52.707  1.00  0.00     0.141 C 
ENDROOT
BRANCH   6   7
HETATM    7  N3  UNL     1      23.031   1.889  52.355  1.00  0.00    -0.359 N 
HETATM    8  C13 UNL     1      22.322   3.144  52.309  1.00  0.00     0.152 C 
BRANCH   7   9
HETATM    9  C14 UNL     1      24.396   2.091  51.969  1.00  0.00     0.140 A 
HETATM   10  N4  UNL     1      24.559   2.870  50.863  1.00  0.00    -0.224 NA
HETATM   11  C15 UNL     1      25.763   3.173  50.360  1.00  0.00     0.236 A 
HETATM   12  N5  UNL     1      26.871   2.685  50.971  1.00  0.00    -0.241 NA
HETATM   13  C16 UNL     1      26.787   1.908  52.069  1.00  0.00     0.075 A 
HETATM   14  C17 UNL     1      27.882   1.385  52.732  1.00  0.00     0.072 A 
HETATM   15  C23 UNL     1      25.537   1.612  52.566  1.00  0.00     0.041 A 
HETATM   16  C18 UNL     1      27.676   0.599  53.848  1.00  0.00     0.103 A 
HETATM   17  C20 UNL     1      26.417   0.307  54.339  1.00  0.00     0.102 A 
HETATM   18  C22 UNL     1      25.327   0.831  53.677  1.00  0.00     0.057 A 
BRANCH  16  19
HETATM   19  O3  UNL     1      28.819   0.088  54.491  1.00  0.00    -0.353 OA
HETATM   20  C19 UNL     1      29.634  -0.838  53.840  1.00  0.00     0.210 C 
ENDBRANCH  16  19
BRANCH  17  21
HETATM   21  O4  UNL     1      26.361  -0.495  55.470  1.00  0.00    -0.353 OA
HETATM   22  C21 UNL     1      25.120  -0.983  55.949  1.00  0.00     0.210 C 
ENDBRANCH  17  21
ENDBRANCH   7   9
ENDBRANCH   6   7
BRANCH   1  23
HETATM   23  N2  UNL     1      21.005   0.526  50.560  1.00  0.00    -0.313 N 
HETATM   24  C6  UNL     1      19.895   1.382  50.372  1.00  0.00     0.324 C 
HETATM   25  N1  UNL     1      19.408   1.799  49.127  1.00  0.00    -0.309 N 
HETATM   26  O2  UNL     1      19.340   1.768  51.425  1.00  0.00    -0.247 OA
HETATM   27  H6  UNL     1      19.966   1.399  48.342  1.00  0.00     0.170 HD
HETATM   28  H7  UNL     1      21.519   0.163  49.737  1.00  0.00     0.170 HD
BRANCH  25  29
HETATM   29  C5  UNL     1      18.313   2.645  48.823  1.00  0.00     0.036 A 
HETATM   30  C4  UNL     1      16.995   2.275  48.719  1.00  0.00     0.032 A 
HETATM   31  C3  UNL     1      15.964   3.111  48.426  1.00  0.00     0.039 A 
HETATM   32  C2  UNL     1      16.215   4.447  48.207  1.00  0.00     0.068 A 
HETATM   33  C25 UNL     1      17.529   4.857  48.303  1.00  0.00     0.039 A 
HETATM   34  C24 UNL     1      18.535   3.966  48.603  1.00  0.00     0.032 A 
BRANCH  32  35
HETATM   35  O1  UNL     1      15.277   5.422  47.900  1.00  0.00    -0.356 OA
HETATM   36  C1  UNL     1      13.973   5.381  48.453  1.00  0.00     0.210 C 
ENDBRANCH  32  35
ENDBRANCH  25  29
ENDBRANCH   1  23
TORSDOF 7
ENDMDL
MODEL 5
REMARK VINA RESULT:      -8.4      3.540      5.086
REMARK  7 active torsions:
REMARK  status: ('A' for Active; 'I' for Inactive)
REMARK    1  A    between atoms: O1_2  and  C2_3 
REMARK    2  A    between atoms: C5_6  and  N1_7 
REMARK       I    between atoms: N1_7  and  C6_8 
REMARK       I    between atoms: C6_8  and  N2_10 
REMARK    3  A    between atoms: N2_10  and  C7_11 
REMARK    4  A    between atoms: C12_16  and  N3_17 
REMARK    5  A    between atoms: N3_17  and  C14_19 
REMARK    6  A    between atoms: C18_25  and  O3_26 
REMARK    7  A    between atoms: C20_28  and  O4_29 
ROOT
HETATM    1  C7  UNL     1      21.932   1.198  50.944  1.00  0.00     0.029 C 
HETATM    2  C8  UNL     1      21.004   0.484  51.610  1.00  0.00     0.044 A 
HETATM    3  C9  UNL     1      20.146  -0.109  52.623  1.00  0.00    -0.012 A 
HETATM    4  C10 UNL     1      20.253   0.855  53.514  1.00  0.00    -0.021 A 
HETATM    5  C11 UNL     1      21.100   1.594  52.641  1.00  0.00     0.056 A 
HETATM    6  C12 UNL     1      22.488   1.504  52.326  1.00  0.00     0.141 C 
ENDROOT
BRANCH   6   7
HETATM    7  N3  UNL     1      23.256   2.703  52.287  1.00  0.00    -0.359 N 
HETATM    8  C13 UNL     1      22.890   4.079  52.514  1.00  0.00     0.152 C 
BRANCH   7   9
HETATM    9  C14 UNL     1      24.653   2.619  51.980  1.00  0.00     0.140 A 
HETATM   10  N4  UNL     1      25.049   3.405  50.939  1.00  0.00    -0.224 NA
HETATM   11  C15 UNL     1      26.318   3.461  50.514  1.00  0.00     0.236 A 
HETATM   12  N5  UNL     1      27.254   2.706  51.141  1.00  0.00    -0.241 NA
HETATM   13  C16 UNL     1      26.936   1.905  52.177  1.00  0.00     0.075 A 
HETATM   14  C17 UNL     1      27.849   1.116  52.853  1.00  0.00     0.072 A 
HETATM   15  C23 UNL     1      25.624   1.866  52.595  1.00  0.00     0.041 A 
HETATM   16  C18 UNL     1      27.409   0.332  53.901  1.00  0.00     0.103 A 
HETATM   17  C20 UNL     1      26.089   0.299  54.312  1.00  0.00     0.102 A 
HETATM   18  C22 UNL     1      25.182   1.088  53.638  1.00  0.00     0.057 A 
BRANCH  16  19
HETATM   19  O3  UNL     1      28.372  -0.455  54.560  1.00  0.00    -0.353 OA
HETATM   20  C19 UNL     1      29.548  -0.818  53.904  1.00  0.00     0.210 C 
ENDBRANCH  16  19
BRANCH  17  21
HETATM   21  O4  UNL     1      25.791  -0.534  55.381  1.00  0.00    -0.353 OA
HETATM   22  C21 UNL     1      24.517  -1.143  55.489  1.00  0.00     0.210 C 
ENDBRANCH  17  21
ENDBRANCH   7   9
ENDBRANCH   6   7
BRANCH   1  23
HETATM   23  N2  UNL     1      22.441   1.452  49.650  1.00  0.00    -0.313 N 
HETATM   24  C6  UNL     1      21.999   2.601  48.954  1.00  0.00     0.324 C 
HETATM   25  N1  UNL     1      22.422   2.971  47.671  1.00  0.00    -0.309 N 
HETATM   26  O2  UNL     1      21.170   3.307  49.569  1.00  0.00    -0.247 OA
HETATM   27  H6  UNL     1      23.111   2.291  47.281  1.00  0.00     0.170 HD
HETATM   28  H7  UNL     1      23.129   0.816  49.207  1.00  0.00     0.170 HD
BRANCH  25  29
HETATM   29  C5  UNL     1      22.048   4.089  46.884  1.00  0.00     0.036 A 
HETATM   30  C4  UNL     1      21.939   5.390  47.308  1.00  0.00     0.032 A 
HETATM   31  C3  UNL     1      21.578   6.443  46.529  1.00  0.00     0.039 A 
HETATM   32  C2  UNL     1      21.288   6.235  45.198  1.00  0.00     0.068 A 
HETATM   33  C25 UNL     1      21.386   4.940  44.735  1.00  0.00     0.039 A 
HETATM   34  C24 UNL     1      21.757   3.909  45.571  1.00  0.00     0.032 A 
BRANCH  32  35
HETATM   35  O1  UNL     1      20.907   7.201  44.278  1.00  0.00    -0.356 OA
HETATM   36  C1  UNL     1      20.262   6.843  43.068  1.00  0.00     0.210 C 
ENDBRANCH  32  35
ENDBRANCH  25  29
ENDBRANCH   1  23
TORSDOF 7
ENDMDL
MODEL 6
REMARK VINA RESULT:      -8.3      3.633      9.465
REMARK  7 active torsions:
REMARK  status: ('A' for Active; 'I' for Inactive)
REMARK    1  A    between atoms: O1_2  and  C2_3 
REMARK    2  A    between atoms: C5_6  and  N1_7 
REMARK       I    between atoms: N1_7  and  C6_8 
REMARK       I    between atoms: C6_8  and  N2_10 
REMARK    3  A    between atoms: N2_10  and  C7_11 
REMARK    4  A    between atoms: C12_16  and  N3_17 
REMARK    5  A    between atoms: N3_17  and  C14_19 
REMARK    6  A    between atoms: C18_25  and  O3_26 
REMARK    7  A    between atoms: C20_28  and  O4_29 
ROOT
HETATM    1  C7  UNL     1      24.190  -0.016  53.331  1.00  0.00     0.029 C 
HETATM    2  C8  UNL     1      25.247  -0.784  53.004  1.00  0.00     0.044 A 
HETATM    3  C9  UNL     1      26.496  -1.305  52.474  1.00  0.00    -0.012 A 
HETATM    4  C10 UNL     1      27.108  -0.148  52.329  1.00  0.00    -0.021 A 
HETATM    5  C11 UNL     1      25.975   0.539  52.849  1.00  0.00     0.056 A 
HETATM    6  C12 UNL     1      24.731   0.935  52.276  1.00  0.00     0.141 C 
ENDROOT
BRANCH   6   7
HETATM    7  N3  UNL     1      24.259   2.257  52.523  1.00  0.00    -0.359 N 
HETATM    8  C13 UNL     1      24.614   3.224  53.531  1.00  0.00     0.152 C 
BRANCH   7   9
HETATM    9  C14 UNL     1      23.254   2.803  51.661  1.00  0.00     0.140 A 
HETATM   10  N4  UNL     1      21.987   2.382  51.935  1.00  0.00    -0.224 NA
HETATM   11  C15 UNL     1      20.919   2.793  51.240  1.00  0.00     0.236 A 
HETATM   12  N5  UNL     1      21.098   3.665  50.216  1.00  0.00    -0.241 NA
HETATM   13  C16 UNL     1      22.321   4.124  49.887  1.00  0.00     0.075 A 
HETATM   14  C17 UNL     1      22.562   5.013  48.855  1.00  0.00     0.072 A 
HETATM   15  C23 UNL     1      23.404   3.686  50.619  1.00  0.00     0.041 A 
HETATM   16  C18 UNL     1      23.859   5.415  48.607  1.00  0.00     0.103 A 
HETATM   17  C20 UNL     1      24.939   4.970  49.348  1.00  0.00     0.102 A 
HETATM   18  C22 UNL     1      24.695   4.085  50.376  1.00  0.00     0.057 A 
BRANCH  16  19
HETATM   19  O3  UNL     1      24.058   6.320  47.547  1.00  0.00    -0.353 OA
HETATM   20  C19 UNL     1      22.975   7.013  47.006  1.00  0.00     0.210 C 
ENDBRANCH  16  19
BRANCH  17  21
HETATM   21  O4  UNL     1      26.186   5.459  48.986  1.00  0.00    -0.353 OA
HETATM   22  C21 UNL     1      27.303   4.592  48.892  1.00  0.00     0.210 C 
ENDBRANCH  17  21
ENDBRANCH   7   9
ENDBRANCH   6   7
BRANCH   1  23
HETATM   23  N2  UNL     1      22.976  -0.021  54.056  1.00  0.00    -0.313 N 
HETATM   24  C6  UNL     1      21.790  -0.431  53.403  1.00  0.00     0.324 C 
HETATM   25  N1  UNL     1      20.525  -0.484  54.002  1.00  0.00    -0.309 N 
HETATM   26  O2  UNL     1      21.932  -0.758  52.205  1.00  0.00    -0.247 OA
HETATM   27  H6  UNL     1      20.558  -0.183  55.000  1.00  0.00     0.170 HD
HETATM   28  H7  UNL     1      22.941   0.265  55.051  1.00  0.00     0.170 HD
BRANCH  25  29
HETATM   29  C5  UNL     1      19.279  -0.872  53.448  1.00  0.00     0.036 A 
HETATM   30  C4  UNL     1      18.573  -0.210  52.474  1.00  0.00     0.032 A 
HETATM   31  C3  UNL     1      17.379  -0.608  51.961  1.00  0.00     0.039 A 
HETATM   32  C2  UNL     1      16.792  -1.764  52.427  1.00  0.00     0.068 A 
HETATM   33  C25 UNL     1      17.472  -2.456  53.406  1.00  0.00     0.039 A 
HETATM   34  C24 UNL     1      18.681  -2.007  53.890  1.00  0.00     0.032 A 
BRANCH  32  35
HETATM   35  O1  UNL     1      15.583  -2.299  52.007  1.00  0.00    -0.356 OA
HETATM   36  C1  UNL     1      15.118  -3.539  52.511  1.00  0.00     0.210 C 
ENDBRANCH  32  35
ENDBRANCH  25  29
ENDBRANCH   1  23
TORSDOF 7
ENDMDL
MODEL 7
REMARK VINA RESULT:      -8.2      3.602      9.369
REMARK  7 active torsions:
REMARK  status: ('A' for Active; 'I' for Inactive)
REMARK    1  A    between atoms: O1_2  and  C2_3 
REMARK    2  A    between atoms: C5_6  and  N1_7 
REMARK       I    between atoms: N1_7  and  C6_8 
REMARK       I    between atoms: C6_8  and  N2_10 
REMARK    3  A    between atoms: N2_10  and  C7_11 
REMARK    4  A    between atoms: C12_16  and  N3_17 
REMARK    5  A    between atoms: N3_17  and  C14_19 
REMARK    6  A    between atoms: C18_25  and  O3_26 
REMARK    7  A    between atoms: C20_28  and  O4_29 
ROOT
HETATM    1  C7  UNL     1      24.774  -0.183  53.308  1.00  0.00     0.029 C 
HETATM    2  C8  UNL     1      25.647  -1.190  53.110  1.00  0.00     0.044 A 
HETATM    3  C9  UNL     1      26.779  -2.013  52.715  1.00  0.00    -0.012 A 
HETATM    4  C10 UNL     1      27.650  -1.035  52.573  1.00  0.00    -0.021 A 
HETATM    5  C11 UNL     1      26.670  -0.079  52.960  1.00  0.00     0.056 A 
HETATM    6  C12 UNL     1      25.598   0.552  52.263  1.00  0.00     0.141 C 
ENDROOT
BRANCH   6   7
HETATM    7  N3  UNL     1      25.426   1.959  52.409  1.00  0.00    -0.359 N 
HETATM    8  C13 UNL     1      25.245   2.781  53.579  1.00  0.00     0.152 C 
BRANCH   7   9
HETATM    9  C14 UNL     1      25.423   2.780  51.235  1.00  0.00     0.140 A 
HETATM   10  N4  UNL     1      26.663   3.115  50.780  1.00  0.00    -0.224 NA
HETATM   11  C15 UNL     1      26.857   3.870  49.691  1.00  0.00     0.236 A 
HETATM   12  N5  UNL     1      25.778   4.325  49.007  1.00  0.00    -0.241 NA
HETATM   13  C16 UNL     1      24.521   4.034  49.398  1.00  0.00     0.075 A 
HETATM   14  C17 UNL     1      23.386   4.469  48.739  1.00  0.00     0.072 A 
HETATM   15  C23 UNL     1      24.350   3.254  50.521  1.00  0.00     0.041 A 
HETATM   16  C18 UNL     1      22.147   4.109  49.231  1.00  0.00     0.103 A 
HETATM   17  C20 UNL     1      21.986   3.327  50.360  1.00  0.00     0.102 A 
HETATM   18  C22 UNL     1      23.119   2.893  51.013  1.00  0.00     0.057 A 
BRANCH  16  19
HETATM   19  O3  UNL     1      21.019   4.575  48.529  1.00  0.00    -0.353 OA
HETATM   20  C19 UNL     1      20.971   5.893  48.078  1.00  0.00     0.210 C 
ENDBRANCH  16  19
BRANCH  17  21
HETATM   21  O4  UNL     1      20.681   3.043  50.738  1.00  0.00    -0.353 OA
HETATM   22  C21 UNL     1      20.059   3.767  51.786  1.00  0.00     0.210 C 
ENDBRANCH  17  21
ENDBRANCH   7   9
ENDBRANCH   6   7
BRANCH   1  23
HETATM   23  N2  UNL     1      23.541   0.132  53.924  1.00  0.00    -0.313 N 
HETATM   24  C6  UNL     1      22.339  -0.261  53.290  1.00  0.00     0.324 C 
HETATM   25  N1  UNL     1      21.054  -0.014  53.789  1.00  0.00    -0.309 N 
HETATM   26  O2  UNL     1      22.486  -0.868  52.207  1.00  0.00    -0.247 OA
HETATM   27  H6  UNL     1      21.085   0.500  54.697  1.00  0.00     0.170 HD
HETATM   28  H7  UNL     1      23.503   0.640  54.826  1.00  0.00     0.170 HD
BRANCH  25  29
HETATM   29  C5  UNL     1      19.792  -0.356  53.243  1.00  0.00     0.036 A 
HETATM   30  C4  UNL     1      19.170   0.245  52.177  1.00  0.00     0.032 A 
HETATM   31  C3  UNL     1      17.957  -0.106  51.674  1.00  0.00     0.039 A 
HETATM   32  C2  UNL     1      17.258  -1.144  52.249  1.00  0.00     0.068 A 
HETATM   33  C25 UNL     1      17.852  -1.773  53.324  1.00  0.00     0.039 A 
HETATM   34  C24 UNL     1      19.085  -1.375  53.793  1.00  0.00     0.032 A 
BRANCH  32  35
HETATM   35  O1  UNL     1      16.017  -1.619  51.854  1.00  0.00    -0.356 OA
HETATM   36  C1  UNL     1      15.438  -1.218  50.624  1.00  0.00     0.210 C 
ENDBRANCH  32  35
ENDBRANCH  25  29
ENDBRANCH   1  23
TORSDOF 7
ENDMDL
MODEL 8
REMARK VINA RESULT:      -8.0      2.805      8.734
REMARK  7 active torsions:
REMARK  status: ('A' for Active; 'I' for Inactive)
REMARK    1  A    between atoms: O1_2  and  C2_3 
REMARK    2  A    between atoms: C5_6  and  N1_7 
REMARK       I    between atoms: N1_7  and  C6_8 
REMARK       I    between atoms: C6_8  and  N2_10 
REMARK    3  A    between atoms: N2_10  and  C7_11 
REMARK    4  A    between atoms: C12_16  and  N3_17 
REMARK    5  A    between atoms: N3_17  and  C14_19 
REMARK    6  A    between atoms: C18_25  and  O3_26 
REMARK    7  A    between atoms: C20_28  and  O4_29 
ROOT
HETATM    1  C7  UNL     1      22.045   4.098  51.749  1.00  0.00     0.029 C 
HETATM    2  C8  UNL     1      20.716   3.891  51.833  1.00  0.00     0.044 A 
HETATM    3  C9  UNL     1      19.306   3.675  51.551  1.00  0.00    -0.012 A 
HETATM    4  C10 UNL     1      19.455   3.179  50.341  1.00  0.00    -0.021 A 
HETATM    5  C11 UNL     1      20.869   3.298  50.443  1.00  0.00     0.056 A 
HETATM    6  C12 UNL     1      21.766   4.395  50.284  1.00  0.00     0.141 C 
ENDROOT
BRANCH   6   7
HETATM    7  N3  UNL     1      22.949   4.201  49.515  1.00  0.00    -0.359 N 
HETATM    8  C13 UNL     1      23.548   3.007  48.971  1.00  0.00     0.152 C 
BRANCH   7   9
HETATM    9  C14 UNL     1      23.744   5.342  49.170  1.00  0.00     0.140 A 
HETATM   10  N4  UNL     1      24.717   5.644  50.075  1.00  0.00    -0.224 NA
HETATM   11  C15 UNL     1      25.561   6.672  49.917  1.00  0.00     0.236 A 
HETATM   12  N5  UNL     1      25.448   7.450  48.811  1.00  0.00    -0.241 NA
HETATM   13  C16 UNL     1      24.511   7.211  47.873  1.00  0.00     0.075 A 
HETATM   14  C17 UNL     1      24.351   7.969  46.728  1.00  0.00     0.072 A 
HETATM   15  C23 UNL     1      23.655   6.147  48.060  1.00  0.00     0.041 A 
HETATM   16  C18 UNL     1      23.353   7.632  45.836  1.00  0.00     0.103 A 
HETATM   17  C20 UNL     1      22.499   6.562  46.033  1.00  0.00     0.102 A 
HETATM   18  C22 UNL     1      22.662   5.807  47.174  1.00  0.00     0.057 A 
BRANCH  16  19
HETATM   19  O3  UNL     1      23.227   8.431  44.684  1.00  0.00    -0.353 OA
HETATM   20  C19 UNL     1      22.730   9.731  44.785  1.00  0.00     0.210 C 
ENDBRANCH  16  19
BRANCH  17  21
HETATM   21  O4  UNL     1      21.544   6.340  45.051  1.00  0.00    -0.353 OA
HETATM   22  C21 UNL     1      20.276   5.802  45.385  1.00  0.00     0.210 C 
ENDBRANCH  17  21
ENDBRANCH   7   9
ENDBRANCH   6   7
BRANCH   1  23
HETATM   23  N2  UNL     1      23.211   4.253  52.534  1.00  0.00    -0.313 N 
HETATM   24  C6  UNL     1      24.052   3.134  52.739  1.00  0.00     0.324 C 
HETATM   25  N1  UNL     1      25.233   3.149  53.491  1.00  0.00    -0.309 N 
HETATM   26  O2  UNL     1      23.669   2.077  52.190  1.00  0.00    -0.247 OA
HETATM   27  H6  UNL     1      25.426   4.094  53.888  1.00  0.00     0.170 HD
HETATM   28  H7  UNL     1      23.460   5.166  52.955  1.00  0.00     0.170 HD
BRANCH  25  29
HETATM   29  C5  UNL     1      26.143   2.097  53.763  1.00  0.00     0.036 A 
HETATM   30  C4  UNL     1      25.924   1.012  54.575  1.00  0.00     0.032 A 
HETATM   31  C3  UNL     1      26.817   0.018  54.817  1.00  0.00     0.039 A 
HETATM   32  C2  UNL     1      28.058   0.059  54.219  1.00  0.00     0.068 A 
HETATM   33  C25 UNL     1      28.315   1.134  53.395  1.00  0.00     0.039 A 
HETATM   34  C24 UNL     1      27.371   2.115  53.185  1.00  0.00     0.032 A 
BRANCH  32  35
HETATM   35  O1  UNL     1      29.073  -0.875  54.364  1.00  0.00    -0.356 OA
HETATM   36  C1  UNL     1      29.412  -1.757  53.308  1.00  0.00     0.210 C 
ENDBRANCH  32  35
ENDBRANCH  25  29
ENDBRANCH   1  23
TORSDOF 7
ENDMDL
MODEL 9
REMARK VINA RESULT:      -7.9      2.133      2.472
REMARK  7 active torsions:
REMARK  status: ('A' for Active; 'I' for Inactive)
REMARK    1  A    between atoms: O1_2  and  C2_3 
REMARK    2  A    between atoms: C5_6  and  N1_7 
REMARK       I    between atoms: N1_7  and  C6_8 
REMARK       I    between atoms: C6_8  and  N2_10 
REMARK    3  A    between atoms: N2_10  and  C7_11 
REMARK    4  A    between atoms: C12_16  and  N3_17 
REMARK    5  A    between atoms: N3_17  and  C14_19 
REMARK    6  A    between atoms: C18_25  and  O3_26 
REMARK    7  A    between atoms: C20_28  and  O4_29 
ROOT
HETATM    1  C7  UNL     1      23.691   4.757  50.036  1.00  0.00     0.029 C 
HETATM    2  C8  UNL     1      22.710   5.460  49.437  1.00  0.00     0.044 A 
HETATM    3  C9  UNL     1      21.461   6.122  49.095  1.00  0.00    -0.012 A 
HETATM    4  C10 UNL     1      21.003   6.250  50.323  1.00  0.00    -0.021 A 
HETATM    5  C11 UNL     1      22.174   5.635  50.847  1.00  0.00     0.056 A 
HETATM    6  C12 UNL     1      22.588   4.276  50.965  1.00  0.00     0.141 C 
ENDROOT
BRANCH   6   7
HETATM    7  N3  UNL     1      23.148   3.840  52.201  1.00  0.00    -0.359 N 
HETATM    8  C13 UNL     1      23.759   4.573  53.282  1.00  0.00     0.152 C 
BRANCH   7   9
HETATM    9  C14 UNL     1      23.142   2.441  52.507  1.00  0.00     0.140 A 
HETATM   10  N4  UNL     1      21.899   1.906  52.671  1.00  0.00    -0.224 NA
HETATM   11  C15 UNL     1      21.697   0.613  52.954  1.00  0.00     0.236 A 
HETATM   12  N5  UNL     1      22.771  -0.206  53.085  1.00  0.00    -0.241 NA
HETATM   13  C16 UNL     1      24.030   0.252  52.937  1.00  0.00     0.075 A 
HETATM   14  C17 UNL     1      25.159  -0.536  53.059  1.00  0.00     0.072 A 
HETATM   15  C23 UNL     1      24.210   1.587  52.645  1.00  0.00     0.041 A 
HETATM   16  C18 UNL     1      26.401   0.042  52.886  1.00  0.00     0.103 A 
HETATM   17  C20 UNL     1      26.571   1.383  52.594  1.00  0.00     0.102 A 
HETATM   18  C22 UNL     1      25.443   2.166  52.472  1.00  0.00     0.057 A 
BRANCH  16  19
HETATM   19  O3  UNL     1      27.523  -0.797  53.019  1.00  0.00    -0.353 OA
HETATM   20  C19 UNL     1      27.411  -2.162  52.757  1.00  0.00     0.210 C 
ENDBRANCH  16  19
BRANCH  17  21
HETATM   21  O4  UNL     1      27.877   1.827  52.447  1.00  0.00    -0.353 OA
HETATM   22  C21 UNL     1      28.557   2.444  53.527  1.00  0.00     0.210 C 
ENDBRANCH  17  21
ENDBRANCH   7   9
ENDBRANCH   6   7
BRANCH   1  23
HETATM   23  N2  UNL     1      25.037   4.351  49.886  1.00  0.00    -0.313 N 
HETATM   24  C6  UNL     1      25.941   5.210  49.219  1.00  0.00     0.324 C 
HETATM   25  N1  UNL     1      27.297   4.933  49.003  1.00  0.00    -0.309 N 
HETATM   26  O2  UNL     1      25.447   6.283  48.809  1.00  0.00    -0.247 OA
HETATM   27  H6  UNL     1      27.568   4.006  49.397  1.00  0.00     0.170 HD
HETATM   28  H7  UNL     1      25.370   3.442  50.256  1.00  0.00     0.170 HD
BRANCH  25  29
HETATM   29  C5  UNL     1      28.285   5.712  48.351  1.00  0.00     0.036 A 
HETATM   30  C4  UNL     1      29.613   5.393  48.202  1.00  0.00     0.032 A 
HETATM   31  C3  UNL     1      30.539   6.161  47.571  1.00  0.00     0.039 A 
HETATM   32  C2  UNL     1      30.161   7.366  47.021  1.00  0.00     0.068 A 
HETATM   33  C25 UNL     1      28.834   7.720  47.151  1.00  0.00     0.039 A 
HETATM   34  C24 UNL     1      27.937   6.902  47.801  1.00  0.00     0.032 A 
BRANCH  32  35
HETATM   35  O1  UNL     1      30.983   8.258  46.349  1.00  0.00    -0.356 OA
HETATM   36  C1  UNL     1      31.794   9.181  47.057  1.00  0.00     0.210 C 
ENDBRANCH  32  35
ENDBRANCH  25  29
ENDBRANCH   1  23
TORSDOF 7
ENDMDL
