MODEL 1
REMARK VINA RESULT:      -8.1      0.000      0.000
REMARK  6 active torsions:
REMARK  status: ('A' for Active; 'I' for Inactive)
REMARK    1  A    between atoms: C7_7  and  C8_8 
REMARK    2  A    between atoms: C8_8  and  C9_9 
REMARK    3  A    between atoms: N1_13  and  C13_14 
REMARK       I    between atoms: N2_15  and  C14_16 
REMARK       I    between atoms: C14_16  and  N3_17 
REMARK    4  A    between atoms: N4_18  and  C15_19 
REMARK    5  A    between atoms: C15_19  and  N5_20 
REMARK    6  A    between atoms: N5_20  and  C16_21 
ROOT
HETATM    1  C13 UNL     1      26.425  -0.835  52.764  1.00  0.00     0.229 C 
HETATM    2  N2  UNL     1      25.216  -1.227  52.983  1.00  0.00    -0.059 NA
HETATM    3  C14 UNL     1      24.623  -1.070  54.277  1.00  0.00     0.718 C 
HETATM    4  N3  UNL     1      25.524  -0.840  55.383  1.00  0.00    -0.231 N 
HETATM    5  N4  UNL     1      23.794  -0.978  55.250  1.00  0.00    -0.086 NA
HETATM    6  H16 UNL     1      26.180  -0.636  56.194  1.00  0.00     0.174 HD
HETATM    7  H17 UNL     1      26.214  -0.902  56.178  1.00  0.00     0.174 HD
ENDROOT
BRANCH   1   8
HETATM    8  N1  UNL     1      27.589  -0.235  53.320  1.00  0.00    -0.344 N 
HETATM    9  C9  UNL     1      27.733   1.184  53.466  1.00  0.00     0.013 C 
HETATM   10  C10 UNL     1      29.061   1.420  53.538  1.00  0.00     0.000 C 
HETATM   11  C11 UNL     1      29.829   0.153  53.468  1.00  0.00     0.049 C 
HETATM   12  C12 UNL     1      28.794  -0.905  53.820  1.00  0.00     0.133 C 
BRANCH   9  13
HETATM   13  C8  UNL     1      26.709   2.213  53.507  1.00  0.00     0.096 C 
BRANCH  13  14
HETATM   14  C7  UNL     1      25.992   2.577  52.307  1.00  0.00    -0.047 A 
HETATM   15  C2  UNL     1      24.693   2.877  51.977  1.00  0.00    -0.055 A 
HETATM   16  C1  UNL     1      23.736   2.844  53.101  1.00  0.00     0.049 C 
HETATM   17  C3  UNL     1      24.261   3.201  50.711  1.00  0.00     0.007 A 
HETATM   18  C4  UNL     1      25.131   3.246  49.673  1.00  0.00     0.001 A 
HETATM   19  C5  UNL     1      26.445   2.959  49.927  1.00  0.00     0.001 A 
HETATM   20  C6  UNL     1      26.859   2.637  51.199  1.00  0.00     0.008 A 
ENDBRANCH  13  14
ENDBRANCH   9  13
ENDBRANCH   1   8
BRANCH   5  21
HETATM   21  C15 UNL     1      22.375  -1.127  54.912  1.00  0.00     0.290 C 
BRANCH  21  22
HETATM   22  N5  UNL     1      22.159  -1.163  53.489  1.00  0.00    -0.371 N 
HETATM   23  H20 UNL     1      22.453  -2.006  52.921  1.00  0.00     0.161 HD
BRANCH  22  24
HETATM   24  C16 UNL     1      21.558  -0.098  52.799  1.00  0.00     0.030 A 
HETATM   25  C17 UNL     1      20.752   0.833  53.420  1.00  0.00     0.029 A 
HETATM   26  C18 UNL     1      20.160   1.882  52.742  1.00  0.00     0.004 A 
HETATM   27  C19 UNL     1      20.350   2.050  51.405  1.00  0.00     0.019 A 
HETATM   28  C20 UNL     1      21.158   1.135  50.729  1.00  0.00     0.013 A 
HETATM   29 BR1  UNL     1      21.484   1.287  48.842  1.00  0.00    -0.051 Br
HETATM   30  C21 UNL     1      21.719   0.110  51.458  1.00  0.00     0.048 A 
ENDBRANCH  22  24
ENDBRANCH  21  22
ENDBRANCH   5  21
TORSDOF 6
ENDMDL
MODEL 2
REMARK VINA RESULT:      -8.0      3.849      6.826
REMARK  6 active torsions:
REMARK  status: ('A' for Active; 'I' for Inactive)
REMARK    1  A    between atoms: C7_7  and  C8_8 
REMARK    2  A    between atoms: C8_8  and  C9_9 
REMARK    3  A    between atoms: N1_13  and  C13_14 
REMARK       I    between atoms: N2_15  and  C14_16 
REMARK       I    between atoms: C14_16  and  N3_17 
REMARK    4  A    between atoms: N4_18  and  C15_19 
REMARK    5  A    between atoms: C15_19  and  N5_20 
REMARK    6  A    between atoms: N5_20  and  C16_21 
ROOT
HETATM    1  C13 UNL     1      22.921   2.119  51.181  1.00  0.00     0.229 C 
HETATM    2  N2  UNL     1      22.960   3.308  50.683  1.00  0.00    -0.059 NA
HETATM    3  C14 UNL     1      23.490   4.399  51.445  1.00  0.00     0.718 C 
HETATM    4  N3  UNL     1      23.598   4.205  52.872  1.00  0.00    -0.231 N 
HETATM    5  N4  UNL     1      23.982   5.525  51.805  1.00  0.00    -0.086 NA
HETATM    6  H16 UNL     1      23.713   4.054  53.919  1.00  0.00     0.174 HD
HETATM    7  H17 UNL     1      23.451   4.110  53.912  1.00  0.00     0.174 HD
ENDROOT
BRANCH   1   8
HETATM    8  N1  UNL     1      23.211   1.303  52.310  1.00  0.00    -0.344 N 
HETATM    9  C9  UNL     1      24.477   0.655  52.492  1.00  0.00     0.013 C 
HETATM   10  C10 UNL     1      24.251  -0.377  53.334  1.00  0.00     0.000 C 
HETATM   11  C11 UNL     1      22.830  -0.417  53.753  1.00  0.00     0.049 C 
HETATM   12  C12 UNL     1      22.329   0.984  53.438  1.00  0.00     0.133 C 
BRANCH   9  13
HETATM   13  C8  UNL     1      25.765   0.971  51.900  1.00  0.00     0.096 C 
BRANCH  13  14
HETATM   14  C7  UNL     1      26.978   0.828  52.670  1.00  0.00    -0.047 A 
HETATM   15  C2  UNL     1      27.768  -0.211  53.096  1.00  0.00    -0.055 A 
HETATM   16  C1  UNL     1      27.318  -1.555  52.679  1.00  0.00     0.049 C 
HETATM   17  C3  UNL     1      28.913  -0.069  53.848  1.00  0.00     0.007 A 
HETATM   18  C4  UNL     1      29.344   1.159  54.226  1.00  0.00     0.001 A 
HETATM   19  C5  UNL     1      28.605   2.244  53.838  1.00  0.00     0.001 A 
HETATM   20  C6  UNL     1      27.463   2.082  53.087  1.00  0.00     0.008 A 
ENDBRANCH  13  14
ENDBRANCH   9  13
ENDBRANCH   1   8
BRANCH   5  21
HETATM   21  C15 UNL     1      24.228   6.500  50.738  1.00  0.00     0.290 C 
BRANCH  21  22
HETATM   22  N5  UNL     1      24.638   5.867  49.511  1.00  0.00    -0.371 N 
HETATM   23  H20 UNL     1      23.931   5.374  48.898  1.00  0.00     0.161 HD
BRANCH  22  24
HETATM   24  C16 UNL     1      25.975   5.873  49.079  1.00  0.00     0.030 A 
HETATM   25  C17 UNL     1      26.741   4.729  49.009  1.00  0.00     0.029 A 
HETATM   26  C18 UNL     1      28.055   4.733  48.584  1.00  0.00     0.004 A 
HETATM   27  C19 UNL     1      28.668   5.887  48.206  1.00  0.00     0.019 A 
HETATM   28  C20 UNL     1      27.936   7.074  48.259  1.00  0.00     0.013 A 
HETATM   29 BR1  UNL     1      28.713   8.755  47.747  1.00  0.00    -0.051 Br
HETATM   30  C21 UNL     1      26.630   7.008  48.691  1.00  0.00     0.048 A 
ENDBRANCH  22  24
ENDBRANCH  21  22
ENDBRANCH   5  21
TORSDOF 6
ENDMDL
MODEL 3
REMARK VINA RESULT:      -8.0      2.884      6.038
REMARK  6 active torsions:
REMARK  status: ('A' for Active; 'I' for Inactive)
REMARK    1  A    between atoms: C7_7  and  C8_8 
REMARK    2  A    between atoms: C8_8  and  C9_9 
REMARK    3  A    between atoms: N1_13  and  C13_14 
REMARK       I    between atoms: N2_15  and  C14_16 
REMARK       I    between atoms: C14_16  and  N3_17 
REMARK    4  A    between atoms: N4_18  and  C15_19 
REMARK    5  A    between atoms: C15_19  and  N5_20 
REMARK    6  A    between atoms: N5_20  and  C16_21 
ROOT
HETATM    1  C13 UNL     1      22.101  -0.078  51.993  1.00  0.00     0.229 C 
HETATM    2  N2  UNL     1      21.797   0.757  51.058  1.00  0.00    -0.059 NA
HETATM    3  C14 UNL     1      22.062   2.155  51.218  1.00  0.00     0.718 C 
HETATM    4  N3  UNL     1      22.298   2.624  52.564  1.00  0.00    -0.231 N 
HETATM    5  N4  UNL     1      22.259   3.404  51.008  1.00  0.00    -0.086 NA
HETATM    6  H16 UNL     1      22.508   2.969  53.548  1.00  0.00     0.174 HD
HETATM    7  H17 UNL     1      22.240   2.959  53.562  1.00  0.00     0.174 HD
ENDROOT
BRANCH   1   8
HETATM    8  N1  UNL     1      22.660  -0.244  53.291  1.00  0.00    -0.344 N 
HETATM    9  C9  UNL     1      24.073  -0.241  53.531  1.00  0.00     0.013 C 
HETATM   10  C10 UNL     1      24.255  -0.892  54.700  1.00  0.00     0.000 C 
HETATM   11  C11 UNL     1      22.958  -1.318  55.277  1.00  0.00     0.049 C 
HETATM   12  C12 UNL     1      21.947  -0.438  54.558  1.00  0.00     0.133 C 
BRANCH   9  13
HETATM   13  C8  UNL     1      25.143   0.304  52.714  1.00  0.00     0.096 C 
BRANCH  13  14
HETATM   14  C7  UNL     1      26.524   0.045  53.050  1.00  0.00    -0.047 A 
HETATM   15  C2  UNL     1      27.394  -1.012  52.936  1.00  0.00    -0.055 A 
HETATM   16  C1  UNL     1      26.832  -2.221  52.301  1.00  0.00     0.049 C 
HETATM   17  C3  UNL     1      28.705  -0.996  53.354  1.00  0.00     0.007 A 
HETATM   18  C4  UNL     1      29.237   0.111  53.926  1.00  0.00     0.001 A 
HETATM   19  C5  UNL     1      28.427   1.206  54.073  1.00  0.00     0.001 A 
HETATM   20  C6  UNL     1      27.118   1.171  53.650  1.00  0.00     0.008 A 
ENDBRANCH  13  14
ENDBRANCH   9  13
ENDBRANCH   1   8
BRANCH   5  21
HETATM   21  C15 UNL     1      22.178   3.850  49.613  1.00  0.00     0.290 C 
BRANCH  21  22
HETATM   22  N5  UNL     1      23.084   4.934  49.339  1.00  0.00    -0.371 N 
HETATM   23  H20 UNL     1      22.718   5.917  49.198  1.00  0.00     0.161 HD
BRANCH  22  24
HETATM   24  C16 UNL     1      24.472   4.742  49.245  1.00  0.00     0.030 A 
HETATM   25  C17 UNL     1      25.082   3.548  49.566  1.00  0.00     0.029 A 
HETATM   26  C18 UNL     1      26.448   3.357  49.474  1.00  0.00     0.004 A 
HETATM   27  C19 UNL     1      27.270   4.356  49.053  1.00  0.00     0.019 A 
HETATM   28  C20 UNL     1      26.701   5.585  48.716  1.00  0.00     0.013 A 
HETATM   29 BR1  UNL     1      27.779   7.056  48.112  1.00  0.00    -0.051 Br
HETATM   30  C21 UNL     1      25.335   5.716  48.828  1.00  0.00     0.048 A 
ENDBRANCH  22  24
ENDBRANCH  21  22
ENDBRANCH   5  21
TORSDOF 6
ENDMDL
MODEL 4
REMARK VINA RESULT:      -7.8      4.654      7.865
REMARK  6 active torsions:
REMARK  status: ('A' for Active; 'I' for Inactive)
REMARK    1  A    between atoms: C7_7  and  C8_8 
REMARK    2  A    between atoms: C8_8  and  C9_9 
REMARK    3  A    between atoms: N1_13  and  C13_14 
REMARK       I    between atoms: N2_15  and  C14_16 
REMARK       I    between atoms: C14_16  and  N3_17 
REMARK    4  A    between atoms: N4_18  and  C15_19 
REMARK    5  A    between atoms: C15_19  and  N5_20 
REMARK    6  A    between atoms: N5_20  and  C16_21 
ROOT
HETATM    1  C13 UNL     1      23.942   3.160  50.128  1.00  0.00     0.229 C 
HETATM    2  N2  UNL     1      24.229   4.273  49.544  1.00  0.00    -0.059 NA
HETATM    3  C14 UNL     1      24.580   5.430  50.313  1.00  0.00     0.718 C 
HETATM    4  N3  UNL     1      24.222   5.414  51.712  1.00  0.00    -0.231 N 
HETATM    5  N4  UNL     1      25.023   6.571  50.688  1.00  0.00    -0.086 NA
HETATM    6  H16 UNL     1      23.992   5.393  52.750  1.00  0.00     0.174 HD
HETATM    7  H17 UNL     1      23.750   5.459  52.655  1.00  0.00     0.174 HD
ENDROOT
BRANCH   1   8
HETATM    8  N1  UNL     1      23.800   2.483  51.372  1.00  0.00    -0.344 N 
HETATM    9  C9  UNL     1      24.752   1.519  51.841  1.00  0.00     0.013 C 
HETATM   10  C10 UNL     1      24.095   0.750  52.736  1.00  0.00     0.000 C 
HETATM   11  C11 UNL     1      22.695   1.208  52.902  1.00  0.00     0.049 C 
HETATM   12  C12 UNL     1      22.722   2.627  52.355  1.00  0.00     0.133 C 
BRANCH   9  13
HETATM   13  C8  UNL     1      26.139   1.333  51.454  1.00  0.00     0.096 C 
BRANCH  13  14
HETATM   14  C7  UNL     1      27.142   1.034  52.449  1.00  0.00    -0.047 A 
HETATM   15  C2  UNL     1      27.631  -0.094  53.060  1.00  0.00    -0.055 A 
HETATM   16  C1  UNL     1      27.019  -1.363  52.618  1.00  0.00     0.049 C 
HETATM   17  C3  UNL     1      28.625  -0.101  54.013  1.00  0.00     0.007 A 
HETATM   18  C4  UNL     1      29.204   1.055  54.419  1.00  0.00     0.001 A 
HETATM   19  C5  UNL     1      28.767   2.222  53.851  1.00  0.00     0.001 A 
HETATM   20  C6  UNL     1      27.771   2.209  52.901  1.00  0.00     0.008 A 
ENDBRANCH  13  14
ENDBRANCH   9  13
ENDBRANCH   1   8
BRANCH   5  21
HETATM   21  C15 UNL     1      25.666   7.391  49.656  1.00  0.00     0.290 C 
BRANCH  21  22
HETATM   22  N5  UNL     1      26.312   6.588  48.652  1.00  0.00    -0.371 N 
HETATM   23  H20 UNL     1      25.744   5.963  48.016  1.00  0.00     0.161 HD
BRANCH  22  24
HETATM   24  C16 UNL     1      27.705   6.595  48.473  1.00  0.00     0.030 A 
HETATM   25  C17 UNL     1      28.437   5.444  48.271  1.00  0.00     0.029 A 
HETATM   26  C18 UNL     1      29.807   5.450  48.095  1.00  0.00     0.004 A 
HETATM   27  C19 UNL     1      30.513   6.613  48.112  1.00  0.00     0.019 A 
HETATM   28  C20 UNL     1      29.820   7.807  48.313  1.00  0.00     0.013 A 
HETATM   29 BR1  UNL     1      30.727   9.499  48.355  1.00  0.00    -0.051 Br
HETATM   30  C21 UNL     1      28.455   7.738  48.483  1.00  0.00     0.048 A 
ENDBRANCH  22  24
ENDBRANCH  21  22
ENDBRANCH   5  21
TORSDOF 6
ENDMDL
MODEL 5
REMARK VINA RESULT:      -7.8      3.246      5.052
REMARK  6 active torsions:
REMARK  status: ('A' for Active; 'I' for Inactive)
REMARK    1  A    between atoms: C7_7  and  C8_8 
REMARK    2  A    between atoms: C8_8  and  C9_9 
REMARK    3  A    between atoms: N1_13  and  C13_14 
REMARK       I    between atoms: N2_15  and  C14_16 
REMARK       I    between atoms: C14_16  and  N3_17 
REMARK    4  A    between atoms: N4_18  and  C15_19 
REMARK    5  A    between atoms: C15_19  and  N5_20 
REMARK    6  A    between atoms: N5_20  and  C16_21 
ROOT
HETATM    1  C13 UNL     1      23.100   3.505  51.738  1.00  0.00     0.229 C 
HETATM    2  N2  UNL     1      22.068   3.033  52.350  1.00  0.00    -0.059 NA
HETATM    3  C14 UNL     1      21.810   1.624  52.362  1.00  0.00     0.718 C 
HETATM    4  N3  UNL     1      22.494   0.829  51.369  1.00  0.00    -0.231 N 
HETATM    5  N4  UNL     1      21.371   0.455  52.645  1.00  0.00    -0.086 NA
HETATM    6  H16 UNL     1      23.021   0.234  50.663  1.00  0.00     0.174 HD
HETATM    7  H17 UNL     1      22.827   0.326  50.503  1.00  0.00     0.174 HD
ENDROOT
BRANCH   1   8
HETATM    8  N1  UNL     1      24.254   3.200  50.963  1.00  0.00    -0.344 N 
HETATM    9  C9  UNL     1      25.474   2.725  51.546  1.00  0.00     0.013 C 
HETATM   10  C10 UNL     1      26.450   3.011  50.656  1.00  0.00     0.000 C 
HETATM   11  C11 UNL     1      25.890   3.660  49.446  1.00  0.00     0.049 C 
HETATM   12  C12 UNL     1      24.412   3.305  49.509  1.00  0.00     0.133 C 
BRANCH   9  13
HETATM   13  C8  UNL     1      25.691   2.087  52.832  1.00  0.00     0.096 C 
BRANCH  13  14
HETATM   14  C7  UNL     1      26.720   1.086  52.987  1.00  0.00    -0.047 A 
HETATM   15  C2  UNL     1      28.047   1.070  53.341  1.00  0.00    -0.055 A 
HETATM   16  C1  UNL     1      28.625   2.388  53.670  1.00  0.00     0.049 C 
HETATM   17  C3  UNL     1      28.826  -0.063  53.410  1.00  0.00     0.007 A 
HETATM   18  C4  UNL     1      28.305  -1.280  53.123  1.00  0.00     0.001 A 
HETATM   19  C5  UNL     1      26.986  -1.343  52.762  1.00  0.00     0.001 A 
HETATM   20  C6  UNL     1      26.223  -0.199  52.698  1.00  0.00     0.008 A 
ENDBRANCH  13  14
ENDBRANCH   9  13
ENDBRANCH   1   8
BRANCH   5  21
HETATM   21  C15 UNL     1      20.427   0.367  53.764  1.00  0.00     0.290 C 
BRANCH  21  22
HETATM   22  N5  UNL     1      19.928  -0.970  53.947  1.00  0.00    -0.371 N 
HETATM   23  H20 UNL     1      20.499  -1.690  54.472  1.00  0.00     0.161 HD
BRANCH  22  24
HETATM   24  C16 UNL     1      18.681  -1.377  53.445  1.00  0.00     0.030 A 
HETATM   25  C17 UNL     1      17.920  -0.586  52.610  1.00  0.00     0.029 A 
HETATM   26  C18 UNL     1      16.693  -0.985  52.115  1.00  0.00     0.004 A 
HETATM   27  C19 UNL     1      16.169  -2.200  52.432  1.00  0.00     0.019 A 
HETATM   28  C20 UNL     1      16.900  -3.038  53.274  1.00  0.00     0.013 A 
HETATM   29 BR1  UNL     1      16.243  -4.771  53.781  1.00  0.00    -0.051 Br
HETATM   30  C21 UNL     1      18.115  -2.586  53.737  1.00  0.00     0.048 A 
ENDBRANCH  22  24
ENDBRANCH  21  22
ENDBRANCH   5  21
TORSDOF 6
ENDMDL
MODEL 6
REMARK VINA RESULT:      -7.6      4.328      7.511
REMARK  6 active torsions:
REMARK  status: ('A' for Active; 'I' for Inactive)
REMARK    1  A    between atoms: C7_7  and  C8_8 
REMARK    2  A    between atoms: C8_8  and  C9_9 
REMARK    3  A    between atoms: N1_13  and  C13_14 
REMARK       I    between atoms: N2_15  and  C14_16 
REMARK       I    between atoms: C14_16  and  N3_17 
REMARK    4  A    between atoms: N4_18  and  C15_19 
REMARK    5  A    between atoms: C15_19  and  N5_20 
REMARK    6  A    between atoms: N5_20  and  C16_21 
ROOT
HETATM    1  C13 UNL     1      23.388   1.682  50.876  1.00  0.00     0.229 C 
HETATM    2  N2  UNL     1      23.619   2.711  50.133  1.00  0.00    -0.059 NA
HETATM    3  C14 UNL     1      24.432   3.788  50.615  1.00  0.00     0.718 C 
HETATM    4  N3  UNL     1      24.637   3.861  52.043  1.00  0.00    -0.231 N 
HETATM    5  N4  UNL     1      25.175   4.828  50.700  1.00  0.00    -0.086 NA
HETATM    6  H16 UNL     1      24.821   3.899  53.090  1.00  0.00     0.174 HD
HETATM    7  H17 UNL     1      24.576   4.009  53.086  1.00  0.00     0.174 HD
ENDROOT
BRANCH   1   8
HETATM    8  N1  UNL     1      23.615   1.062  52.136  1.00  0.00    -0.344 N 
HETATM    9  C9  UNL     1      24.860   0.437  52.478  1.00  0.00     0.013 C 
HETATM   10  C10 UNL     1      24.580  -0.437  53.469  1.00  0.00     0.000 C 
HETATM   11  C11 UNL     1      23.141  -0.389  53.826  1.00  0.00     0.049 C 
HETATM   12  C12 UNL     1      22.682   0.946  53.261  1.00  0.00     0.133 C 
BRANCH   9  13
HETATM   13  C8  UNL     1      26.177   0.634  51.899  1.00  0.00     0.096 C 
BRANCH  13  14
HETATM   14  C7  UNL     1      27.361   0.250  52.630  1.00  0.00    -0.047 A 
HETATM   15  C2  UNL     1      28.327   0.891  53.367  1.00  0.00    -0.055 A 
HETATM   16  C1  UNL     1      28.157   2.353  53.488  1.00  0.00     0.049 C 
HETATM   17  C3  UNL     1      29.390   0.266  53.979  1.00  0.00     0.007 A 
HETATM   18  C4  UNL     1      29.551  -1.076  53.886  1.00  0.00     0.001 A 
HETATM   19  C5  UNL     1      28.625  -1.783  53.166  1.00  0.00     0.001 A 
HETATM   20  C6  UNL     1      27.569  -1.141  52.561  1.00  0.00     0.008 A 
ENDBRANCH  13  14
ENDBRANCH   9  13
ENDBRANCH   1   8
BRANCH   5  21
HETATM   21  C15 UNL     1      25.508   5.494  49.436  1.00  0.00     0.290 C 
BRANCH  21  22
HETATM   22  N5  UNL     1      26.663   6.345  49.562  1.00  0.00    -0.371 N 
HETATM   23  H20 UNL     1      27.079   6.550  50.513  1.00  0.00     0.161 HD
BRANCH  22  24
HETATM   24  C16 UNL     1      27.280   6.935  48.447  1.00  0.00     0.030 A 
HETATM   25  C17 UNL     1      26.598   7.732  47.552  1.00  0.00     0.029 A 
HETATM   26  C18 UNL     1      27.203   8.313  46.455  1.00  0.00     0.004 A 
HETATM   27  C19 UNL     1      28.526   8.124  46.200  1.00  0.00     0.019 A 
HETATM   28  C20 UNL     1      29.262   7.325  47.076  1.00  0.00     0.013 A 
HETATM   29 BR1  UNL     1      31.135   6.997  46.801  1.00  0.00    -0.051 Br
HETATM   30  C21 UNL     1      28.604   6.772  48.152  1.00  0.00     0.048 A 
ENDBRANCH  22  24
ENDBRANCH  21  22
ENDBRANCH   5  21
TORSDOF 6
ENDMDL
MODEL 7
REMARK VINA RESULT:      -7.4      4.573      7.857
REMARK  6 active torsions:
REMARK  status: ('A' for Active; 'I' for Inactive)
REMARK    1  A    between atoms: C7_7  and  C8_8 
REMARK    2  A    between atoms: C8_8  and  C9_9 
REMARK    3  A    between atoms: N1_13  and  C13_14 
REMARK       I    between atoms: N2_15  and  C14_16 
REMARK       I    between atoms: C14_16  and  N3_17 
REMARK    4  A    between atoms: N4_18  and  C15_19 
REMARK    5  A    between atoms: C15_19  and  N5_20 
REMARK    6  A    between atoms: N5_20  and  C16_21 
ROOT
HETATM    1  C13 UNL     1      23.503   2.920  49.188  1.00  0.00     0.229 C 
HETATM    2  N2  UNL     1      24.188   4.011  49.121  1.00  0.00    -0.059 NA
HETATM    3  C14 UNL     1      23.833   5.144  49.923  1.00  0.00     0.718 C 
HETATM    4  N3  UNL     1      22.500   5.155  50.479  1.00  0.00    -0.231 N 
HETATM    5  N4  UNL     1      23.847   6.255  50.560  1.00  0.00    -0.086 NA
HETATM    6  H16 UNL     1      21.532   5.152  50.920  1.00  0.00     0.174 HD
HETATM    7  H17 UNL     1      21.466   5.234  50.673  1.00  0.00     0.174 HD
ENDROOT
BRANCH   1   8
HETATM    8  N1  UNL     1      22.396   2.257  49.788  1.00  0.00    -0.344 N 
HETATM    9  C9  UNL     1      22.469   1.651  51.085  1.00  0.00     0.013 C 
HETATM   10  C10 UNL     1      21.479   0.733  51.125  1.00  0.00     0.000 C 
HETATM   11  C11 UNL     1      20.708   0.730  49.858  1.00  0.00     0.049 C 
HETATM   12  C12 UNL     1      21.051   2.074  49.235  1.00  0.00     0.133 C 
BRANCH   9  13
HETATM   13  C8  UNL     1      23.404   1.904  52.167  1.00  0.00     0.096 C 
BRANCH  13  14
HETATM   14  C7  UNL     1      24.465   0.966  52.450  1.00  0.00    -0.047 A 
HETATM   15  C2  UNL     1      24.615  -0.167  53.210  1.00  0.00    -0.055 A 
HETATM   16  C1  UNL     1      23.407  -0.594  53.945  1.00  0.00     0.049 C 
HETATM   17  C3  UNL     1      25.778  -0.898  53.309  1.00  0.00     0.007 A 
HETATM   18  C4  UNL     1      26.889  -0.524  52.630  1.00  0.00     0.001 A 
HETATM   19  C5  UNL     1      26.815   0.598  51.849  1.00  0.00     0.001 A 
HETATM   20  C6  UNL     1      25.644   1.316  51.764  1.00  0.00     0.008 A 
ENDBRANCH  13  14
ENDBRANCH   9  13
ENDBRANCH   1   8
BRANCH   5  21
HETATM   21  C15 UNL     1      25.091   7.028  50.493  1.00  0.00     0.290 C 
BRANCH  21  22
HETATM   22  N5  UNL     1      25.591   7.134  49.147  1.00  0.00    -0.371 N 
HETATM   23  H20 UNL     1      24.953   7.438  48.359  1.00  0.00     0.161 HD
BRANCH  22  24
HETATM   24  C16 UNL     1      26.925   6.842  48.822  1.00  0.00     0.030 A 
HETATM   25  C17 UNL     1      27.374   5.557  48.598  1.00  0.00     0.029 A 
HETATM   26  C18 UNL     1      28.687   5.268  48.278  1.00  0.00     0.004 A 
HETATM   27  C19 UNL     1      29.615   6.255  48.164  1.00  0.00     0.019 A 
HETATM   28  C20 UNL     1      29.212   7.574  48.380  1.00  0.00     0.013 A 
HETATM   29 BR1  UNL     1      30.450   9.037  48.244  1.00  0.00    -0.051 Br
HETATM   30  C21 UNL     1      27.892   7.800  48.697  1.00  0.00     0.048 A 
ENDBRANCH  22  24
ENDBRANCH  21  22
ENDBRANCH   5  21
TORSDOF 6
ENDMDL
MODEL 8
REMARK VINA RESULT:      -7.3      5.452      8.872
REMARK  6 active torsions:
REMARK  status: ('A' for Active; 'I' for Inactive)
REMARK    1  A    between atoms: C7_7  and  C8_8 
REMARK    2  A    between atoms: C8_8  and  C9_9 
REMARK    3  A    between atoms: N1_13  and  C13_14 
REMARK       I    between atoms: N2_15  and  C14_16 
REMARK       I    between atoms: C14_16  and  N3_17 
REMARK    4  A    between atoms: N4_18  and  C15_19 
REMARK    5  A    between atoms: C15_19  and  N5_20 
REMARK    6  A    between atoms: N5_20  and  C16_21 
ROOT
HETATM    1  C13 UNL     1      24.480   5.326  50.189  1.00  0.00     0.229 C 
HETATM    2  N2  UNL     1      25.674   5.785  50.030  1.00  0.00    -0.059 NA
HETATM    3  C14 UNL     1      26.658   5.025  49.318  1.00  0.00     0.718 C 
HETATM    4  N3  UNL     1      26.391   3.615  49.145  1.00  0.00    -0.231 N 
HETATM    5  N4  UNL     1      27.697   4.660  48.665  1.00  0.00    -0.086 NA
HETATM    6  H16 UNL     1      26.183   2.585  48.985  1.00  0.00     0.174 HD
HETATM    7  H17 UNL     1      26.272   2.571  49.237  1.00  0.00     0.174 HD
ENDROOT
BRANCH   1   8
HETATM    8  N1  UNL     1      23.587   4.248  49.934  1.00  0.00    -0.344 N 
HETATM    9  C9  UNL     1      23.576   3.049  50.721  1.00  0.00     0.013 C 
HETATM   10  C10 UNL     1      23.011   2.098  49.946  1.00  0.00     0.000 C 
HETATM   11  C11 UNL     1      22.608   2.655  48.633  1.00  0.00     0.049 C 
HETATM   12  C12 UNL     1      22.568   4.155  48.884  1.00  0.00     0.133 C 
BRANCH   9  13
HETATM   13  C8  UNL     1      24.078   2.828  52.066  1.00  0.00     0.096 C 
BRANCH  13  14
HETATM   14  C7  UNL     1      24.667   1.561  52.426  1.00  0.00    -0.047 A 
HETATM   15  C2  UNL     1      24.247   0.407  53.043  1.00  0.00    -0.055 A 
HETATM   16  C1  UNL     1      22.829   0.398  53.456  1.00  0.00     0.049 C 
HETATM   17  C3  UNL     1      25.042  -0.693  53.273  1.00  0.00     0.007 A 
HETATM   18  C4  UNL     1      26.341  -0.702  52.887  1.00  0.00     0.001 A 
HETATM   19  C5  UNL     1      26.831   0.415  52.265  1.00  0.00     0.001 A 
HETATM   20  C6  UNL     1      26.021   1.506  52.044  1.00  0.00     0.008 A 
ENDBRANCH  13  14
ENDBRANCH   9  13
ENDBRANCH   1   8
BRANCH   5  21
HETATM   21  C15 UNL     1      28.678   5.709  48.365  1.00  0.00     0.290 C 
BRANCH  21  22
HETATM   22  N5  UNL     1      28.319   6.971  48.958  1.00  0.00    -0.371 N 
HETATM   23  H20 UNL     1      27.403   7.080  49.476  1.00  0.00     0.161 HD
BRANCH  22  24
HETATM   24  C16 UNL     1      29.154   8.097  48.877  1.00  0.00     0.030 A 
HETATM   25  C17 UNL     1      30.528   8.004  48.811  1.00  0.00     0.029 A 
HETATM   26  C18 UNL     1      31.351   9.111  48.731  1.00  0.00     0.004 A 
HETATM   27  C19 UNL     1      30.834  10.369  48.712  1.00  0.00     0.019 A 
HETATM   28  C20 UNL     1      29.448  10.519  48.776  1.00  0.00     0.013 A 
HETATM   29 BR1  UNL     1      28.625  12.254  48.756  1.00  0.00    -0.051 Br
HETATM   30  C21 UNL     1      28.680   9.379  48.855  1.00  0.00     0.048 A 
ENDBRANCH  22  24
ENDBRANCH  21  22
ENDBRANCH   5  21
TORSDOF 6
ENDMDL
MODEL 9
REMARK VINA RESULT:      -7.2      3.941      6.332
REMARK  6 active torsions:
REMARK  status: ('A' for Active; 'I' for Inactive)
REMARK    1  A    between atoms: C7_7  and  C8_8 
REMARK    2  A    between atoms: C8_8  and  C9_9 
REMARK    3  A    between atoms: N1_13  and  C13_14 
REMARK       I    between atoms: N2_15  and  C14_16 
REMARK       I    between atoms: C14_16  and  N3_17 
REMARK    4  A    between atoms: N4_18  and  C15_19 
REMARK    5  A    between atoms: C15_19  and  N5_20 
REMARK    6  A    between atoms: N5_20  and  C16_21 
ROOT
HETATM    1  C13 UNL     1      23.220   3.631  49.219  1.00  0.00     0.229 C 
HETATM    2  N2  UNL     1      22.743   3.083  50.285  1.00  0.00    -0.059 NA
HETATM    3  C14 UNL     1      21.675   3.705  51.008  1.00  0.00     0.718 C 
HETATM    4  N3  UNL     1      21.437   5.105  50.741  1.00  0.00    -0.231 N 
HETATM    5  N4  UNL     1      20.689   3.936  51.792  1.00  0.00    -0.086 NA
HETATM    6  H16 UNL     1      21.234   6.126  50.523  1.00  0.00     0.174 HD
HETATM    7  H17 UNL     1      21.442   6.159  50.689  1.00  0.00     0.174 HD
ENDROOT
BRANCH   1   8
HETATM    8  N1  UNL     1      23.140   4.734  48.324  1.00  0.00    -0.344 N 
HETATM    9  C9  UNL     1      23.816   5.976  48.563  1.00  0.00     0.013 C 
HETATM   10  C10 UNL     1      23.158   6.906  47.838  1.00  0.00     0.000 C 
HETATM   11  C11 UNL     1      22.043   6.293  47.077  1.00  0.00     0.049 C 
HETATM   12  C12 UNL     1      22.399   4.814  47.061  1.00  0.00     0.133 C 
BRANCH   9  13
HETATM   13  C8  UNL     1      24.958   6.251  49.417  1.00  0.00     0.096 C 
BRANCH  13  14
HETATM   14  C7  UNL     1      26.302   6.080  48.919  1.00  0.00    -0.047 A 
HETATM   15  C2  UNL     1      27.219   5.060  48.860  1.00  0.00    -0.055 A 
HETATM   16  C1  UNL     1      26.766   3.775  49.428  1.00  0.00     0.049 C 
HETATM   17  C3  UNL     1      28.478   5.167  48.312  1.00  0.00     0.007 A 
HETATM   18  C4  UNL     1      28.902   6.337  47.775  1.00  0.00     0.001 A 
HETATM   19  C5  UNL     1      28.040   7.401  47.798  1.00  0.00     0.001 A 
HETATM   20  C6  UNL     1      26.786   7.274  48.350  1.00  0.00     0.008 A 
ENDBRANCH  13  14
ENDBRANCH   9  13
ENDBRANCH   1   8
BRANCH   5  21
HETATM   21  C15 UNL     1      20.215   2.803  52.593  1.00  0.00     0.290 C 
BRANCH  21  22
HETATM   22  N5  UNL     1      20.736   1.548  52.117  1.00  0.00    -0.371 N 
HETATM   23  H20 UNL     1      20.630   1.273  51.100  1.00  0.00     0.161 HD
BRANCH  22  24
HETATM   24  C16 UNL     1      21.397   0.645  52.965  1.00  0.00     0.030 A 
HETATM   25  C17 UNL     1      20.725  -0.218  53.804  1.00  0.00     0.029 A 
HETATM   26  C18 UNL     1      21.375  -1.107  54.638  1.00  0.00     0.004 A 
HETATM   27  C19 UNL     1      22.733  -1.176  54.672  1.00  0.00     0.019 A 
HETATM   28  C20 UNL     1      23.461  -0.322  53.841  1.00  0.00     0.013 A 
HETATM   29 BR1  UNL     1      25.381  -0.343  53.818  1.00  0.00    -0.051 Br
HETATM   30  C21 UNL     1      22.758   0.542  53.032  1.00  0.00     0.048 A 
ENDBRANCH  22  24
ENDBRANCH  21  22
ENDBRANCH   5  21
TORSDOF 6
ENDMDL
