MODEL 1
REMARK VINA RESULT:      -8.9      0.000      0.000
REMARK  7 active torsions:
REMARK  status: ('A' for Active; 'I' for Inactive)
REMARK    1  A    between atoms: N1_1  and  C1_2 
REMARK    2  A    between atoms: C2_4  and  C3_5 
REMARK    3  A    between atoms: C12_16  and  O1_17 
REMARK    4  A    between atoms: O1_17  and  C13_18 
REMARK    5  A    between atoms: C13_18  and  C14_19 
REMARK    6  A    between atoms: C14_19  and  N3_20 
REMARK    7  A    between atoms: C18_25  and  N4_26 
ROOT
HETATM    1  C1  UNL     1      26.240   0.991  53.438  1.00  0.00     0.374 A 
HETATM    2  N2  UNL     1      25.013   0.340  53.742  1.00  0.00    -0.248 NA
HETATM    3  C2  UNL     1      24.055   0.618  52.938  1.00  0.00     0.078 A 
HETATM    4  C9  UNL     1      24.614   1.507  51.948  1.00  0.00     0.040 A 
HETATM    5  C10 UNL     1      25.940   1.738  52.209  1.00  0.00     0.014 A 
HETATM    6  C11 UNL     1      26.748   2.525  51.425  1.00  0.00     0.051 A 
HETATM    7  C12 UNL     1      26.173   3.123  50.293  1.00  0.00     0.105 A 
HETATM    8  C19 UNL     1      24.829   2.879  50.044  1.00  0.00     0.136 A 
HETATM    9  C20 UNL     1      24.079   2.090  50.857  1.00  0.00     0.118 A 
HETATM   10  O3  UNL     1      22.790   1.929  50.505  1.00  0.00    -0.345 OA
HETATM   11  C21 UNL     1      22.005   2.880  49.834  1.00  0.00     0.202 C 
HETATM   12  C22 UNL     1      22.853   3.903  49.142  1.00  0.00     0.202 C 
HETATM   13  O4  UNL     1      24.199   3.441  48.941  1.00  0.00    -0.344 OA
ENDROOT
BRANCH   7  14
HETATM   14  O1  UNL     1      26.929   3.857  49.557  1.00  0.00    -0.346 OA
BRANCH  14  15
HETATM   15  C13 UNL     1      27.399   4.838  48.834  1.00  0.00     0.206 C 
BRANCH  15  16
HETATM   16  C14 UNL     1      26.438   6.001  48.672  1.00  0.00     0.302 C 
BRANCH  16  17
HETATM   17  N3  UNL     1      26.140   6.678  49.890  1.00  0.00     0.128 N 
HETATM   18  C15 UNL     1      26.549   8.047  49.838  1.00  0.00     0.301 C 
HETATM   19  C16 UNL     1      25.468   9.066  49.988  1.00  0.00     0.198 C 
HETATM   20  O2  UNL     1      24.282   8.786  49.356  1.00  0.00    -0.385 OA
HETATM   21  C17 UNL     1      23.871   7.474  49.418  1.00  0.00     0.235 C 
HETATM   22  C18 UNL     1      24.768   6.644  50.311  1.00  0.00     0.474 C 
BRANCH  22  23
HETATM   23  N4  UNL     1      24.693   7.227  51.641  1.00  0.00     0.114 N 
HETATM   24  H19 UNL     1      25.181   8.162  51.663  1.00  0.00     0.315 HD
HETATM   25  H20 UNL     1      25.099   6.586  52.371  1.00  0.00     0.315 HD
ENDBRANCH  22  23
ENDBRANCH  16  17
ENDBRANCH  15  16
ENDBRANCH  14  15
ENDBRANCH   7  14
BRANCH   1  26
HETATM   26  N1  UNL     1      27.351   0.071  53.258  1.00  0.00     0.107 N 
HETATM   27  H1  UNL     1      27.843   0.307  52.355  1.00  0.00     0.316 HD
HETATM   28  H2  UNL     1      27.048  -0.919  53.294  1.00  0.00     0.316 HD
ENDBRANCH   1  26
BRANCH   3  29
HETATM   29  C3  UNL     1      22.775   0.023  53.149  1.00  0.00    -0.005 A 
HETATM   30  C4  UNL     1      22.714  -0.992  54.109  1.00  0.00     0.017 A 
HETATM   31  C5  UNL     1      21.596  -1.701  54.488  1.00  0.00     0.045 A 
HETATM   32  C6  UNL     1      20.398  -1.431  53.906  1.00  0.00     0.138 A 
HETATM   33  F1  UNL     1      19.285  -2.103  54.247  1.00  0.00    -0.204 F 
HETATM   34  C7  UNL     1      20.364  -0.445  52.949  1.00  0.00     0.073 A 
HETATM   35 CL1  UNL     1      18.866  -0.038  52.151  1.00  0.00    -0.081 Cl
HETATM   36  C8  UNL     1      21.534   0.194  52.651  1.00  0.00     0.040 A 
ENDBRANCH   3  29
TORSDOF 7
ENDMDL
MODEL 2
REMARK VINA RESULT:      -8.9      5.148      7.556
REMARK  7 active torsions:
REMARK  status: ('A' for Active; 'I' for Inactive)
REMARK    1  A    between atoms: N1_1  and  C1_2 
REMARK    2  A    between atoms: C2_4  and  C3_5 
REMARK    3  A    between atoms: C12_16  and  O1_17 
REMARK    4  A    between atoms: O1_17  and  C13_18 
REMARK    5  A    between atoms: C13_18  and  C14_19 
REMARK    6  A    between atoms: C14_19  and  N3_20 
REMARK    7  A    between atoms: C18_25  and  N4_26 
ROOT
HETATM    1  C1  UNL     1      21.787  -0.622  53.672  1.00  0.00     0.374 A 
HETATM    2  N2  UNL     1      23.204  -0.720  53.742  1.00  0.00    -0.248 NA
HETATM    3  C2  UNL     1      23.826   0.303  53.286  1.00  0.00     0.078 A 
HETATM    4  C9  UNL     1      22.806   1.241  52.883  1.00  0.00     0.040 A 
HETATM    5  C10 UNL     1      21.560   0.721  53.120  1.00  0.00     0.014 A 
HETATM    6  C11 UNL     1      20.390   1.392  52.863  1.00  0.00     0.051 A 
HETATM    7  C12 UNL     1      20.486   2.685  52.325  1.00  0.00     0.105 A 
HETATM    8  C19 UNL     1      21.755   3.195  52.089  1.00  0.00     0.136 A 
HETATM    9  C20 UNL     1      22.879   2.483  52.365  1.00  0.00     0.118 A 
HETATM   10  O3  UNL     1      24.049   3.090  52.095  1.00  0.00    -0.345 OA
HETATM   11  C21 UNL     1      24.264   4.024  51.069  1.00  0.00     0.202 C 
HETATM   12  C22 UNL     1      22.976   4.624  50.594  1.00  0.00     0.202 C 
HETATM   13  O4  UNL     1      21.920   4.467  51.557  1.00  0.00    -0.344 OA
ENDROOT
BRANCH   7  14
HETATM   14  O1  UNL     1      19.391   3.315  52.085  1.00  0.00    -0.346 OA
BRANCH  14  15
HETATM   15  C13 UNL     1      18.395   3.908  51.484  1.00  0.00     0.206 C 
BRANCH  15  16
HETATM   16  C14 UNL     1      17.080   3.157  51.582  1.00  0.00     0.302 C 
BRANCH  16  17
HETATM   17  N3  UNL     1      15.998   3.948  52.065  1.00  0.00     0.128 N 
HETATM   18  C15 UNL     1      15.137   4.357  50.999  1.00  0.00     0.301 C 
HETATM   19  C16 UNL     1      13.721   3.885  51.073  1.00  0.00     0.198 C 
HETATM   20  O2  UNL     1      13.537   2.598  51.512  1.00  0.00    -0.385 OA
HETATM   21  C17 UNL     1      14.348   2.202  52.551  1.00  0.00     0.235 C 
HETATM   22  C18 UNL     1      15.182   3.348  53.083  1.00  0.00     0.474 C 
BRANCH  22  23
HETATM   23  N4  UNL     1      14.253   4.357  53.565  1.00  0.00     0.114 N 
HETATM   24  H19 UNL     1      14.489   5.302  53.160  1.00  0.00     0.315 HD
HETATM   25  H20 UNL     1      14.240   4.403  54.616  1.00  0.00     0.315 HD
ENDBRANCH  22  23
ENDBRANCH  16  17
ENDBRANCH  15  16
ENDBRANCH  14  15
ENDBRANCH   7  14
BRANCH   1  26
HETATM   26  N1  UNL     1      21.133  -0.800  54.957  1.00  0.00     0.107 N 
HETATM   27  H1  UNL     1      20.313  -0.138  55.015  1.00  0.00     0.316 HD
HETATM   28  H2  UNL     1      21.790  -0.683  55.749  1.00  0.00     0.316 HD
ENDBRANCH   1  26
BRANCH   3  29
HETATM   29  C3  UNL     1      25.253   0.313  53.305  1.00  0.00    -0.005 A 
HETATM   30  C4  UNL     1      25.885  -0.900  53.017  1.00  0.00     0.017 A 
HETATM   31  C5  UNL     1      27.242  -1.130  52.968  1.00  0.00     0.045 A 
HETATM   32  C6  UNL     1      28.107  -0.112  53.212  1.00  0.00     0.138 A 
HETATM   33  F1  UNL     1      29.439  -0.296  53.175  1.00  0.00    -0.204 F 
HETATM   34  C7  UNL     1      27.573   1.121  53.504  1.00  0.00     0.073 A 
HETATM   35 CL1  UNL     1      28.615   2.482  53.832  1.00  0.00    -0.081 Cl
HETATM   36  C8  UNL     1      26.212   1.235  53.526  1.00  0.00     0.040 A 
ENDBRANCH   3  29
TORSDOF 7
ENDMDL
MODEL 3
REMARK VINA RESULT:      -8.8      3.618      5.647
REMARK  7 active torsions:
REMARK  status: ('A' for Active; 'I' for Inactive)
REMARK    1  A    between atoms: N1_1  and  C1_2 
REMARK    2  A    between atoms: C2_4  and  C3_5 
REMARK    3  A    between atoms: C12_16  and  O1_17 
REMARK    4  A    between atoms: O1_17  and  C13_18 
REMARK    5  A    between atoms: C13_18  and  C14_19 
REMARK    6  A    between atoms: C14_19  and  N3_20 
REMARK    7  A    between atoms: C18_25  and  N4_26 
ROOT
HETATM    1  C1  UNL     1      21.500  -0.122  54.312  1.00  0.00     0.374 A 
HETATM    2  N2  UNL     1      20.185  -0.479  53.908  1.00  0.00    -0.248 NA
HETATM    3  C2  UNL     1      19.891  -0.140  52.708  1.00  0.00     0.078 A 
HETATM    4  C9  UNL     1      21.079   0.479  52.169  1.00  0.00     0.040 A 
HETATM    5  C10 UNL     1      22.078   0.489  53.107  1.00  0.00     0.014 A 
HETATM    6  C11 UNL     1      23.337   0.991  52.878  1.00  0.00     0.051 A 
HETATM    7  C12 UNL     1      23.604   1.521  51.607  1.00  0.00     0.105 A 
HETATM    8  C19 UNL     1      22.580   1.505  50.670  1.00  0.00     0.136 A 
HETATM    9  C20 UNL     1      21.354   0.993  50.955  1.00  0.00     0.118 A 
HETATM   10  O3  UNL     1      20.448   1.032  49.959  1.00  0.00    -0.345 OA
HETATM   11  C21 UNL     1      20.384   2.010  48.955  1.00  0.00     0.202 C 
HETATM   12  C22 UNL     1      21.682   2.747  48.822  1.00  0.00     0.202 C 
HETATM   13  O4  UNL     1      22.779   2.015  49.394  1.00  0.00    -0.344 OA
ENDROOT
BRANCH   7  14
HETATM   14  O1  UNL     1      24.782   1.989  51.391  1.00  0.00    -0.346 OA
BRANCH  14  15
HETATM   15  C13 UNL     1      26.071   2.099  51.208  1.00  0.00     0.206 C 
BRANCH  15  16
HETATM   16  C14 UNL     1      26.887   1.971  52.481  1.00  0.00     0.302 C 
BRANCH  16  17
HETATM   17  N3  UNL     1      27.519   0.703  52.636  1.00  0.00     0.128 N 
HETATM   18  C15 UNL     1      28.685   0.800  53.458  1.00  0.00     0.301 C 
HETATM   19  C16 UNL     1      28.670   0.005  54.723  1.00  0.00     0.198 C 
HETATM   20  O2  UNL     1      27.477  -0.029  55.401  1.00  0.00    -0.385 OA
HETATM   21  C17 UNL     1      26.351  -0.142  54.618  1.00  0.00     0.235 C 
HETATM   22  C18 UNL     1      26.698  -0.352  53.159  1.00  0.00     0.474 C 
BRANCH  22  23
HETATM   23  N4  UNL     1      27.456  -1.590  53.081  1.00  0.00     0.114 N 
HETATM   24  H19 UNL     1      26.941  -2.371  53.568  1.00  0.00     0.315 HD
HETATM   25  H20 UNL     1      28.422  -1.481  53.486  1.00  0.00     0.315 HD
ENDBRANCH  22  23
ENDBRANCH  16  17
ENDBRANCH  15  16
ENDBRANCH  14  15
ENDBRANCH   7  14
BRANCH   1  26
HETATM   26  N1  UNL     1      22.286  -1.251  54.780  1.00  0.00     0.107 N 
HETATM   27  H1  UNL     1      22.239  -1.284  55.834  1.00  0.00     0.316 HD
HETATM   28  H2  UNL     1      23.261  -1.219  54.432  1.00  0.00     0.316 HD
ENDBRANCH   1  26
BRANCH   3  29
HETATM   29  C3  UNL     1      18.595  -0.447  52.197  1.00  0.00    -0.005 A 
HETATM   30  C4  UNL     1      17.797  -1.278  52.988  1.00  0.00     0.017 A 
HETATM   31  C5  UNL     1      16.516  -1.700  52.707  1.00  0.00     0.045 A 
HETATM   32  C6  UNL     1      15.912  -1.300  51.559  1.00  0.00     0.138 A 
HETATM   33  F1  UNL     1      14.664  -1.693  51.248  1.00  0.00    -0.204 F 
HETATM   34  C7  UNL     1      16.624  -0.479  50.718  1.00  0.00     0.073 A 
HETATM   35 CL1  UNL     1      15.921   0.079  49.221  1.00  0.00    -0.081 Cl
HETATM   36  C8  UNL     1      17.887  -0.122  51.096  1.00  0.00     0.040 A 
ENDBRANCH   3  29
TORSDOF 7
ENDMDL
MODEL 4
REMARK VINA RESULT:      -8.8      4.196      6.282
REMARK  7 active torsions:
REMARK  status: ('A' for Active; 'I' for Inactive)
REMARK    1  A    between atoms: N1_1  and  C1_2 
REMARK    2  A    between atoms: C2_4  and  C3_5 
REMARK    3  A    between atoms: C12_16  and  O1_17 
REMARK    4  A    between atoms: O1_17  and  C13_18 
REMARK    5  A    between atoms: C13_18  and  C14_19 
REMARK    6  A    between atoms: C14_19  and  N3_20 
REMARK    7  A    between atoms: C18_25  and  N4_26 
ROOT
HETATM    1  C1  UNL     1      21.847  -0.723  53.674  1.00  0.00     0.374 A 
HETATM    2  N2  UNL     1      23.265  -0.802  53.740  1.00  0.00    -0.248 NA
HETATM    3  C2  UNL     1      23.873   0.236  53.299  1.00  0.00     0.078 A 
HETATM    4  C9  UNL     1      22.839   1.165  52.910  1.00  0.00     0.040 A 
HETATM    5  C10 UNL     1      21.600   0.624  53.142  1.00  0.00     0.014 A 
HETATM    6  C11 UNL     1      20.420   1.282  52.895  1.00  0.00     0.051 A 
HETATM    7  C12 UNL     1      20.497   2.584  52.375  1.00  0.00     0.105 A 
HETATM    8  C19 UNL     1      21.760   3.115  52.145  1.00  0.00     0.136 A 
HETATM    9  C20 UNL     1      22.893   2.415  52.410  1.00  0.00     0.118 A 
HETATM   10  O3  UNL     1      24.055   3.042  52.147  1.00  0.00    -0.345 OA
HETATM   11  C21 UNL     1      24.255   3.993  51.134  1.00  0.00     0.202 C 
HETATM   12  C22 UNL     1      22.958   4.582  50.669  1.00  0.00     0.202 C 
HETATM   13  O4  UNL     1      21.906   4.397  51.631  1.00  0.00    -0.344 OA
ENDROOT
BRANCH   7  14
HETATM   14  O1  UNL     1      19.394   3.202  52.146  1.00  0.00    -0.346 OA
BRANCH  14  15
HETATM   15  C13 UNL     1      18.322   3.677  51.570  1.00  0.00     0.206 C 
BRANCH  15  16
HETATM   16  C14 UNL     1      18.609   4.654  50.445  1.00  0.00     0.302 C 
BRANCH  16  17
HETATM   17  N3  UNL     1      18.270   4.161  49.152  1.00  0.00     0.128 N 
HETATM   18  C15 UNL     1      18.605   5.105  48.131  1.00  0.00     0.301 C 
HETATM   19  C16 UNL     1      19.604   4.655  47.116  1.00  0.00     0.198 C 
HETATM   20  O2  UNL     1      20.655   3.911  47.592  1.00  0.00    -0.385 OA
HETATM   21  C17 UNL     1      20.339   2.987  48.562  1.00  0.00     0.235 C 
HETATM   22  C18 UNL     1      18.844   2.897  48.788  1.00  0.00     0.474 C 
BRANCH  22  23
HETATM   23  N4  UNL     1      18.252   2.483  47.526  1.00  0.00     0.114 N 
HETATM   24  H19 UNL     1      18.319   1.436  47.411  1.00  0.00     0.315 HD
HETATM   25  H20 UNL     1      18.701   2.969  46.707  1.00  0.00     0.315 HD
ENDBRANCH  22  23
ENDBRANCH  16  17
ENDBRANCH  15  16
ENDBRANCH  14  15
ENDBRANCH   7  14
BRANCH   1  26
HETATM   26  N1  UNL     1      21.197  -0.929  54.957  1.00  0.00     0.107 N 
HETATM   27  H1  UNL     1      20.920  -1.944  55.039  1.00  0.00     0.316 HD
HETATM   28  H2  UNL     1      20.393  -0.290  55.094  1.00  0.00     0.316 HD
ENDBRANCH   1  26
BRANCH   3  29
HETATM   29  C3  UNL     1      25.299   0.265  53.315  1.00  0.00    -0.005 A 
HETATM   30  C4  UNL     1      25.948  -0.940  53.031  1.00  0.00     0.017 A 
HETATM   31  C5  UNL     1      27.308  -1.151  52.980  1.00  0.00     0.045 A 
HETATM   32  C6  UNL     1      28.159  -0.120  53.221  1.00  0.00     0.138 A 
HETATM   33  F1  UNL     1      29.492  -0.287  53.183  1.00  0.00    -0.204 F 
HETATM   34  C7  UNL     1      27.608   1.106  53.509  1.00  0.00     0.073 A 
HETATM   35 CL1  UNL     1      28.631   2.482  53.832  1.00  0.00    -0.081 Cl
HETATM   36  C8  UNL     1      26.245   1.201  53.532  1.00  0.00     0.040 A 
ENDBRANCH   3  29
TORSDOF 7
ENDMDL
MODEL 5
REMARK VINA RESULT:      -8.7      4.475      7.549
REMARK  7 active torsions:
REMARK  status: ('A' for Active; 'I' for Inactive)
REMARK    1  A    between atoms: N1_1  and  C1_2 
REMARK    2  A    between atoms: C2_4  and  C3_5 
REMARK    3  A    between atoms: C12_16  and  O1_17 
REMARK    4  A    between atoms: O1_17  and  C13_18 
REMARK    5  A    between atoms: C13_18  and  C14_19 
REMARK    6  A    between atoms: C14_19  and  N3_20 
REMARK    7  A    between atoms: C18_25  and  N4_26 
ROOT
HETATM    1  C1  UNL     1      21.877  -0.714  53.657  1.00  0.00     0.374 A 
HETATM    2  N2  UNL     1      23.296  -0.781  53.718  1.00  0.00    -0.248 NA
HETATM    3  C2  UNL     1      23.893   0.261  53.273  1.00  0.00     0.078 A 
HETATM    4  C9  UNL     1      22.849   1.181  52.887  1.00  0.00     0.040 A 
HETATM    5  C10 UNL     1      21.617   0.630  53.124  1.00  0.00     0.014 A 
HETATM    6  C11 UNL     1      20.430   1.278  52.881  1.00  0.00     0.051 A 
HETATM    7  C12 UNL     1      20.494   2.579  52.360  1.00  0.00     0.105 A 
HETATM    8  C19 UNL     1      21.751   3.121  52.123  1.00  0.00     0.136 A 
HETATM    9  C20 UNL     1      22.891   2.431  52.385  1.00  0.00     0.118 A 
HETATM   10  O3  UNL     1      24.046   3.068  52.116  1.00  0.00    -0.345 OA
HETATM   11  C21 UNL     1      24.234   4.019  51.101  1.00  0.00     0.202 C 
HETATM   12  C22 UNL     1      22.930   4.596  50.641  1.00  0.00     0.202 C 
HETATM   13  O4  UNL     1      21.884   4.403  51.607  1.00  0.00    -0.344 OA
ENDROOT
BRANCH   7  14
HETATM   14  O1  UNL     1      19.385   3.187  52.134  1.00  0.00    -0.346 OA
BRANCH  14  15
HETATM   15  C13 UNL     1      18.324   3.682  51.553  1.00  0.00     0.206 C 
BRANCH  15  16
HETATM   16  C14 UNL     1      17.537   2.669  50.741  1.00  0.00     0.302 C 
BRANCH  16  17
HETATM   17  N3  UNL     1      17.068   1.560  51.502  1.00  0.00     0.128 N 
HETATM   18  C15 UNL     1      15.641   1.556  51.592  1.00  0.00     0.301 C 
HETATM   19  C16 UNL     1      14.944   0.373  51.005  1.00  0.00     0.198 C 
HETATM   20  O2  UNL     1      15.456  -0.106  49.825  1.00  0.00    -0.385 OA
HETATM   21  C17 UNL     1      16.830  -0.125  49.737  1.00  0.00     0.235 C 
HETATM   22  C18 UNL     1      17.483   0.263  51.047  1.00  0.00     0.474 C 
BRANCH  22  23
HETATM   23  N4  UNL     1      17.058  -0.716  52.034  1.00  0.00     0.114 N 
HETATM   24  H19 UNL     1      16.034  -0.593  52.260  1.00  0.00     0.315 HD
HETATM   25  H20 UNL     1      17.635  -0.658  52.913  1.00  0.00     0.315 HD
ENDBRANCH  22  23
ENDBRANCH  16  17
ENDBRANCH  15  16
ENDBRANCH  14  15
ENDBRANCH   7  14
BRANCH   1  26
HETATM   26  N1  UNL     1      21.234  -0.923  54.944  1.00  0.00     0.107 N 
HETATM   27  H1  UNL     1      20.248  -1.263  54.779  1.00  0.00     0.316 HD
HETATM   28  H2  UNL     1      21.264  -0.075  55.537  1.00  0.00     0.316 HD
ENDBRANCH   1  26
BRANCH   3  29
HETATM   29  C3  UNL     1      25.319   0.303  53.283  1.00  0.00    -0.005 A 
HETATM   30  C4  UNL     1      25.977  -0.902  53.021  1.00  0.00     0.017 A 
HETATM   31  C5  UNL     1      27.338  -1.103  52.970  1.00  0.00     0.045 A 
HETATM   32  C6  UNL     1      28.182  -0.060  53.186  1.00  0.00     0.138 A 
HETATM   33  F1  UNL     1      29.517  -0.217  53.146  1.00  0.00    -0.204 F 
HETATM   34  C7  UNL     1      27.622   1.167  53.451  1.00  0.00     0.073 A 
HETATM   35 CL1  UNL     1      28.634   2.558  53.742  1.00  0.00    -0.081 Cl
HETATM   36  C8  UNL     1      26.258   1.251  53.477  1.00  0.00     0.040 A 
ENDBRANCH   3  29
TORSDOF 7
ENDMDL
MODEL 6
REMARK VINA RESULT:      -8.6      4.846      7.564
REMARK  7 active torsions:
REMARK  status: ('A' for Active; 'I' for Inactive)
REMARK    1  A    between atoms: N1_1  and  C1_2 
REMARK    2  A    between atoms: C2_4  and  C3_5 
REMARK    3  A    between atoms: C12_16  and  O1_17 
REMARK    4  A    between atoms: O1_17  and  C13_18 
REMARK    5  A    between atoms: C13_18  and  C14_19 
REMARK    6  A    between atoms: C14_19  and  N3_20 
REMARK    7  A    between atoms: C18_25  and  N4_26 
ROOT
HETATM    1  C1  UNL     1      24.929   3.407  50.903  1.00  0.00     0.374 A 
HETATM    2  N2  UNL     1      26.068   2.668  51.322  1.00  0.00    -0.248 NA
HETATM    3  C2  UNL     1      25.795   1.635  52.031  1.00  0.00     0.078 A 
HETATM    4  C9  UNL     1      24.355   1.581  52.115  1.00  0.00     0.040 A 
HETATM    5  C10 UNL     1      23.798   2.628  51.427  1.00  0.00     0.014 A 
HETATM    6  C11 UNL     1      22.445   2.829  51.306  1.00  0.00     0.051 A 
HETATM    7  C12 UNL     1      21.591   1.904  51.926  1.00  0.00     0.105 A 
HETATM    8  C19 UNL     1      22.173   0.852  52.620  1.00  0.00     0.136 A 
HETATM    9  C20 UNL     1      23.520   0.704  52.705  1.00  0.00     0.118 A 
HETATM   10  O3  UNL     1      23.959  -0.360  53.403  1.00  0.00    -0.345 OA
HETATM   11  C21 UNL     1      23.302  -0.943  54.498  1.00  0.00     0.202 C 
HETATM   12  C22 UNL     1      21.853  -0.562  54.535  1.00  0.00     0.202 C 
HETATM   13  O4  UNL     1      21.385  -0.098  53.257  1.00  0.00    -0.344 OA
ENDROOT
BRANCH   7  14
HETATM   14  O1  UNL     1      20.325   2.090  51.812  1.00  0.00    -0.346 OA
BRANCH  14  15
HETATM   15  C13 UNL     1      19.053   1.925  51.563  1.00  0.00     0.206 C 
BRANCH  15  16
HETATM   16  C14 UNL     1      18.250   3.212  51.577  1.00  0.00     0.302 C 
BRANCH  16  17
HETATM   17  N3  UNL     1      16.964   3.097  50.973  1.00  0.00     0.128 N 
HETATM   18  C15 UNL     1      16.322   1.875  51.346  1.00  0.00     0.301 C 
HETATM   19  C16 UNL     1      15.032   2.006  52.088  1.00  0.00     0.198 C 
HETATM   20  O2  UNL     1      14.974   3.006  53.026  1.00  0.00    -0.385 OA
HETATM   21  C17 UNL     1      15.573   4.193  52.668  1.00  0.00     0.235 C 
HETATM   22  C18 UNL     1      16.048   4.172  51.230  1.00  0.00     0.474 C 
BRANCH  22  23
HETATM   23  N4  UNL     1      14.872   3.966  50.402  1.00  0.00     0.114 N 
HETATM   24  H19 UNL     1      15.149   3.823  49.394  1.00  0.00     0.315 HD
HETATM   25  H20 UNL     1      14.192   4.766  50.484  1.00  0.00     0.315 HD
ENDBRANCH  22  23
ENDBRANCH  16  17
ENDBRANCH  15  16
ENDBRANCH  14  15
ENDBRANCH   7  14
BRANCH   1  26
HETATM   26  N1  UNL     1      24.850   3.577  49.462  1.00  0.00     0.107 N 
HETATM   27  H1  UNL     1      23.871   3.342  49.145  1.00  0.00     0.316 HD
HETATM   28  H2  UNL     1      25.568   3.021  48.963  1.00  0.00     0.316 HD
ENDBRANCH   1  26
BRANCH   3  29
HETATM   29  C3  UNL     1      26.864   0.819  52.509  1.00  0.00    -0.005 A 
HETATM   30  C4  UNL     1      27.918   1.485  53.140  1.00  0.00     0.017 A 
HETATM   31  C5  UNL     1      29.045   0.912  53.686  1.00  0.00     0.045 A 
HETATM   32  C6  UNL     1      29.205  -0.436  53.639  1.00  0.00     0.138 A 
HETATM   33  F1  UNL     1      30.292  -1.033  54.158  1.00  0.00    -0.204 F 
HETATM   34  C7  UNL     1      28.215  -1.174  53.035  1.00  0.00     0.073 A 
HETATM   35 CL1  UNL     1      28.343  -2.912  52.931  1.00  0.00    -0.081 Cl
HETATM   36  C8  UNL     1      27.140  -0.501  52.528  1.00  0.00     0.040 A 
ENDBRANCH   3  29
TORSDOF 7
ENDMDL
MODEL 7
REMARK VINA RESULT:      -8.5      4.782      8.582
REMARK  7 active torsions:
REMARK  status: ('A' for Active; 'I' for Inactive)
REMARK    1  A    between atoms: N1_1  and  C1_2 
REMARK    2  A    between atoms: C2_4  and  C3_5 
REMARK    3  A    between atoms: C12_16  and  O1_17 
REMARK    4  A    between atoms: O1_17  and  C13_18 
REMARK    5  A    between atoms: C13_18  and  C14_19 
REMARK    6  A    between atoms: C14_19  and  N3_20 
REMARK    7  A    between atoms: C18_25  and  N4_26 
ROOT
HETATM    1  C1  UNL     1      23.661   2.935  50.583  1.00  0.00     0.374 A 
HETATM    2  N2  UNL     1      24.948   2.532  51.033  1.00  0.00    -0.248 NA
HETATM    3  C2  UNL     1      24.934   1.571  51.879  1.00  0.00     0.078 A 
HETATM    4  C9  UNL     1      23.546   1.208  52.044  1.00  0.00     0.040 A 
HETATM    5  C10 UNL     1      22.750   2.001  51.259  1.00  0.00     0.014 A 
HETATM    6  C11 UNL     1      21.384   1.876  51.183  1.00  0.00     0.051 A 
HETATM    7  C12 UNL     1      20.778   0.875  51.958  1.00  0.00     0.105 A 
HETATM    8  C19 UNL     1      21.600   0.083  52.749  1.00  0.00     0.136 A 
HETATM    9  C20 UNL     1      22.947   0.253  52.782  1.00  0.00     0.118 A 
HETATM   10  O3  UNL     1      23.632  -0.582  53.586  1.00  0.00    -0.345 OA
HETATM   11  C21 UNL     1      23.149  -1.143  54.778  1.00  0.00     0.202 C 
HETATM   12  C22 UNL     1      21.653  -1.096  54.840  1.00  0.00     0.202 C 
HETATM   13  O4  UNL     1      21.063  -0.925  53.541  1.00  0.00    -0.344 OA
ENDROOT
BRANCH   7  14
HETATM   14  O1  UNL     1      19.501   0.756  51.886  1.00  0.00    -0.346 OA
BRANCH  14  15
HETATM   15  C13 UNL     1      18.294   0.413  51.520  1.00  0.00     0.206 C 
BRANCH  15  16
HETATM   16  C14 UNL     1      17.765  -0.824  52.222  1.00  0.00     0.302 C 
BRANCH  16  17
HETATM   17  N3  UNL     1      16.434  -0.685  52.712  1.00  0.00     0.128 N 
HETATM   18  C15 UNL     1      15.868   0.571  52.331  1.00  0.00     0.301 C 
HETATM   19  C16 UNL     1      14.647   0.513  51.471  1.00  0.00     0.198 C 
HETATM   20  O2  UNL     1      14.642  -0.451  50.494  1.00  0.00    -0.385 OA
HETATM   21  C17 UNL     1      15.168  -1.670  50.858  1.00  0.00     0.235 C 
HETATM   22  C18 UNL     1      15.511  -1.717  52.332  1.00  0.00     0.474 C 
BRANCH  22  23
HETATM   23  N4  UNL     1      14.272  -1.499  53.060  1.00  0.00     0.114 N 
HETATM   24  H19 UNL     1      13.540  -1.078  52.427  1.00  0.00     0.315 HD
HETATM   25  H20 UNL     1      14.418  -0.888  53.905  1.00  0.00     0.315 HD
ENDBRANCH  22  23
ENDBRANCH  16  17
ENDBRANCH  15  16
ENDBRANCH  14  15
ENDBRANCH   7  14
BRANCH   1  26
HETATM   26  N1  UNL     1      23.515   2.887  49.137  1.00  0.00     0.107 N 
HETATM   27  H1  UNL     1      23.256   3.850  48.791  1.00  0.00     0.316 HD
HETATM   28  H2  UNL     1      22.834   2.166  48.838  1.00  0.00     0.316 HD
ENDBRANCH   1  26
BRANCH   3  29
HETATM   29  C3  UNL     1      26.170   1.086  52.401  1.00  0.00    -0.005 A 
HETATM   30  C4  UNL     1      27.022   2.041  52.963  1.00  0.00     0.017 A 
HETATM   31  C5  UNL     1      28.255   1.811  53.533  1.00  0.00     0.045 A 
HETATM   32  C6  UNL     1      28.747   0.546  53.586  1.00  0.00     0.138 A 
HETATM   33  F1  UNL     1      29.947   0.281  54.132  1.00  0.00    -0.204 F 
HETATM   34  C7  UNL     1      27.974  -0.460  53.056  1.00  0.00     0.073 A 
HETATM   35 CL1  UNL     1      28.533  -2.113  53.083  1.00  0.00    -0.081 Cl
HETATM   36  C8  UNL     1      26.767  -0.117  52.516  1.00  0.00     0.040 A 
ENDBRANCH   3  29
TORSDOF 7
ENDMDL
MODEL 8
REMARK VINA RESULT:      -8.4      4.312      6.714
REMARK  7 active torsions:
REMARK  status: ('A' for Active; 'I' for Inactive)
REMARK    1  A    between atoms: N1_1  and  C1_2 
REMARK    2  A    between atoms: C2_4  and  C3_5 
REMARK    3  A    between atoms: C12_16  and  O1_17 
REMARK    4  A    between atoms: O1_17  and  C13_18 
REMARK    5  A    between atoms: C13_18  and  C14_19 
REMARK    6  A    between atoms: C14_19  and  N3_20 
REMARK    7  A    between atoms: C18_25  and  N4_26 
ROOT
HETATM    1  C1  UNL     1      25.026   3.153  51.168  1.00  0.00     0.374 A 
HETATM    2  N2  UNL     1      26.196   2.430  51.528  1.00  0.00    -0.248 NA
HETATM    3  C2  UNL     1      25.977   1.402  52.259  1.00  0.00     0.078 A 
HETATM    4  C9  UNL     1      24.545   1.333  52.427  1.00  0.00     0.040 A 
HETATM    5  C10 UNL     1      23.937   2.367  51.763  1.00  0.00     0.014 A 
HETATM    6  C11 UNL     1      22.577   2.552  51.718  1.00  0.00     0.051 A 
HETATM    7  C12 UNL     1      21.771   1.623  52.394  1.00  0.00     0.105 A 
HETATM    8  C19 UNL     1      22.403   0.583  53.063  1.00  0.00     0.136 A 
HETATM    9  C20 UNL     1      23.755   0.451  53.071  1.00  0.00     0.118 A 
HETATM   10  O3  UNL     1      24.246  -0.601  53.752  1.00  0.00    -0.345 OA
HETATM   11  C21 UNL     1      23.659  -1.181  54.888  1.00  0.00     0.202 C 
HETATM   12  C22 UNL     1      22.210  -0.816  55.005  1.00  0.00     0.202 C 
HETATM   13  O4  UNL     1      21.664  -0.369  53.752  1.00  0.00    -0.344 OA
ENDROOT
BRANCH   7  14
HETATM   14  O1  UNL     1      20.498   1.794  52.351  1.00  0.00    -0.346 OA
BRANCH  14  15
HETATM   15  C13 UNL     1      19.262   1.899  51.939  1.00  0.00     0.206 C 
BRANCH  15  16
HETATM   16  C14 UNL     1      19.130   2.188  50.455  1.00  0.00     0.302 C 
BRANCH  16  17
HETATM   17  N3  UNL     1      19.192   3.574  50.129  1.00  0.00     0.128 N 
HETATM   18  C15 UNL     1      20.182   3.830  49.129  1.00  0.00     0.301 C 
HETATM   19  C16 UNL     1      19.689   4.412  47.845  1.00  0.00     0.198 C 
HETATM   20  O2  UNL     1      18.498   3.917  47.375  1.00  0.00    -0.385 OA
HETATM   21  C17 UNL     1      17.532   3.686  48.329  1.00  0.00     0.235 C 
HETATM   22  C18 UNL     1      17.963   4.175  49.696  1.00  0.00     0.474 C 
BRANCH  22  23
HETATM   23  N4  UNL     1      18.182   5.608  49.580  1.00  0.00     0.114 N 
HETATM   24  H19 UNL     1      18.657   5.981  50.444  1.00  0.00     0.315 HD
HETATM   25  H20 UNL     1      17.282   6.126  49.404  1.00  0.00     0.315 HD
ENDBRANCH  22  23
ENDBRANCH  16  17
ENDBRANCH  15  16
ENDBRANCH  14  15
ENDBRANCH   7  14
BRANCH   1  26
HETATM   26  N1  UNL     1      24.863   3.309  49.732  1.00  0.00     0.107 N 
HETATM   27  H1  UNL     1      24.485   4.275  49.536  1.00  0.00     0.316 HD
HETATM   28  H2  UNL     1      24.270   2.564  49.324  1.00  0.00     0.316 HD
ENDBRANCH   1  26
BRANCH   3  29
HETATM   29  C3  UNL     1      27.080   0.602  52.682  1.00  0.00    -0.005 A 
HETATM   30  C4  UNL     1      28.163   1.285  53.243  1.00  0.00     0.017 A 
HETATM   31  C5  UNL     1      29.326   0.730  53.727  1.00  0.00     0.045 A 
HETATM   32  C6  UNL     1      29.498  -0.617  53.685  1.00  0.00     0.138 A 
HETATM   33  F1  UNL     1      30.620  -1.197  54.146  1.00  0.00    -0.204 F 
HETATM   34  C7  UNL     1      28.481  -1.372  53.149  1.00  0.00     0.073 A 
HETATM   35 CL1  UNL     1      28.622  -3.109  53.056  1.00  0.00    -0.081 Cl
HETATM   36  C8  UNL     1      27.371  -0.715  52.699  1.00  0.00     0.040 A 
ENDBRANCH   3  29
TORSDOF 7
ENDMDL
MODEL 9
REMARK VINA RESULT:      -8.4      3.590      5.327
REMARK  7 active torsions:
REMARK  status: ('A' for Active; 'I' for Inactive)
REMARK    1  A    between atoms: N1_1  and  C1_2 
REMARK    2  A    between atoms: C2_4  and  C3_5 
REMARK    3  A    between atoms: C12_16  and  O1_17 
REMARK    4  A    between atoms: O1_17  and  C13_18 
REMARK    5  A    between atoms: C13_18  and  C14_19 
REMARK    6  A    between atoms: C14_19  and  N3_20 
REMARK    7  A    between atoms: C18_25  and  N4_26 
ROOT
HETATM    1  C1  UNL     1      22.496  -0.599  53.506  1.00  0.00     0.374 A 
HETATM    2  N2  UNL     1      23.882  -0.834  53.719  1.00  0.00    -0.248 NA
HETATM    3  C2  UNL     1      24.652   0.058  53.217  1.00  0.00     0.078 A 
HETATM    4  C9  UNL     1      23.781   1.043  52.620  1.00  0.00     0.040 A 
HETATM    5  C10 UNL     1      22.469   0.686  52.794  1.00  0.00     0.014 A 
HETATM    6  C11 UNL     1      21.407   1.440  52.356  1.00  0.00     0.051 A 
HETATM    7  C12 UNL     1      21.693   2.644  51.694  1.00  0.00     0.105 A 
HETATM    8  C19 UNL     1      23.028   2.988  51.525  1.00  0.00     0.136 A 
HETATM    9  C20 UNL     1      24.037   2.201  51.981  1.00  0.00     0.118 A 
HETATM   10  O3  UNL     1      25.287   2.648  51.758  1.00  0.00    -0.345 OA
HETATM   11  C21 UNL     1      25.690   3.427  50.663  1.00  0.00     0.202 C 
HETATM   12  C22 UNL     1      24.521   4.098  50.007  1.00  0.00     0.202 C 
HETATM   13  O4  UNL     1      23.379   4.166  50.877  1.00  0.00    -0.344 OA
ENDROOT
BRANCH   7  14
HETATM   14  O1  UNL     1      20.701   3.351  51.286  1.00  0.00    -0.346 OA
BRANCH  14  15
HETATM   15  C13 UNL     1      19.856   4.329  51.094  1.00  0.00     0.206 C 
BRANCH  15  16
HETATM   16  C14 UNL     1      20.051   5.064  49.781  1.00  0.00     0.302 C 
BRANCH  16  17
HETATM   17  N3  UNL     1      21.283   5.776  49.696  1.00  0.00     0.128 N 
HETATM   18  C15 UNL     1      21.560   6.176  48.352  1.00  0.00     0.301 C 
HETATM   19  C16 UNL     1      21.663   7.647  48.107  1.00  0.00     0.198 C 
HETATM   20  O2  UNL     1      20.761   8.435  48.778  1.00  0.00    -0.385 OA
HETATM   21  C17 UNL     1      20.503   8.068  50.079  1.00  0.00     0.235 C 
HETATM   22  C18 UNL     1      21.400   6.936  50.534  1.00  0.00     0.474 C 
BRANCH  22  23
HETATM   23  N4  UNL     1      22.768   7.419  50.440  1.00  0.00     0.114 N 
HETATM   24  H19 UNL     1      23.429   6.623  50.236  1.00  0.00     0.315 HD
HETATM   25  H20 UNL     1      23.063   7.925  51.315  1.00  0.00     0.315 HD
ENDBRANCH  22  23
ENDBRANCH  16  17
ENDBRANCH  15  16
ENDBRANCH  14  15
ENDBRANCH   7  14
BRANCH   1  26
HETATM   26  N1  UNL     1      21.723  -0.556  54.735  1.00  0.00     0.107 N 
HETATM   27  H1  UNL     1      20.713  -0.365  54.495  1.00  0.00     0.316 HD
HETATM   28  H2  UNL     1      22.102   0.130  55.411  1.00  0.00     0.316 HD
ENDBRANCH   1  26
BRANCH   3  29
HETATM   29  C3  UNL     1      26.064  -0.078  53.368  1.00  0.00    -0.005 A 
HETATM   30  C4  UNL     1      26.625  -1.272  52.907  1.00  0.00     0.017 A 
HETATM   31  C5  UNL     1      27.957  -1.623  52.938  1.00  0.00     0.045 A 
HETATM   32  C6  UNL     1      28.868  -0.760  53.457  1.00  0.00     0.138 A 
HETATM   33  F1  UNL     1      30.176  -1.066  53.508  1.00  0.00    -0.204 F 
HETATM   34  C7  UNL     1      28.405   0.443  53.936  1.00  0.00     0.073 A 
HETATM   35 CL1  UNL     1      29.510   1.608  54.621  1.00  0.00    -0.081 Cl
HETATM   36  C8  UNL     1      27.064   0.686  53.854  1.00  0.00     0.040 A 
ENDBRANCH   3  29
TORSDOF 7
ENDMDL
