MODEL 1
REMARK VINA RESULT:      -8.2      0.000      0.000
REMARK  7 active torsions:
REMARK  status: ('A' for Active; 'I' for Inactive)
REMARK    1  A    between atoms: O1_2  and  C2_3 
REMARK    2  A    between atoms: C4_5  and  N1_6 
REMARK    3  A    between atoms: N2_8  and  C6_9 
REMARK    4  A    between atoms: C6_9  and  N3_10 
REMARK    5  A    between atoms: N3_10  and  C7_11 
REMARK    6  A    between atoms: C14_20  and  O2_21 
REMARK    7  A    between atoms: O2_21  and  C15_22 
ROOT
HETATM    1  C2  UNL     1      25.546   4.814  49.490  1.00  0.00     0.073 A 
HETATM    2  C3  UNL     1      24.325   4.712  50.152  1.00  0.00     0.068 A 
HETATM    3  C4  UNL     1      24.049   3.727  51.085  1.00  0.00     0.069 A 
HETATM    4  C13 UNL     1      25.034   2.804  51.371  1.00  0.00     0.068 A 
HETATM    5  C14 UNL     1      26.284   2.848  50.746  1.00  0.00     0.074 A 
HETATM    6  C20 UNL     1      26.500   3.870  49.810  1.00  0.00     0.073 A 
ENDROOT
BRANCH   3   7
HETATM    7  N1  UNL     1      22.745   3.915  51.530  1.00  0.00    -0.163 N 
HETATM    8  C5  UNL     1      21.777   4.553  51.052  1.00  0.00     0.339 A 
HETATM    9  N2  UNL     1      21.456   3.896  52.296  1.00  0.00     0.033 NA
BRANCH   9  10
HETATM   10  C6  UNL     1      20.541   3.020  52.355  1.00  0.00     0.740 C 
BRANCH  10  11
HETATM   11  N3  UNL     1      19.772   1.851  52.253  1.00  0.00    -0.343 N 
HETATM   12  H7  UNL     1      18.925   2.141  51.755  1.00  0.00     0.166 HD
BRANCH  11  13
HETATM   13  C7  UNL     1      20.545   0.871  52.877  1.00  0.00     0.034 A 
HETATM   14  C8  UNL     1      19.702  -0.179  53.268  1.00  0.00     0.032 A 
HETATM   15  C9  UNL     1      20.168  -1.309  53.934  1.00  0.00     0.046 A 
HETATM   16  C10 UNL     1      21.540  -1.342  54.197  1.00  0.00     0.138 A 
HETATM   17  F1  UNL     1      22.062  -2.413  54.845  1.00  0.00    -0.204 F 
HETATM   18  C11 UNL     1      22.325  -0.288  53.791  1.00  0.00     0.074 A 
HETATM   19 CL1  UNL     1      24.041  -0.396  54.149  1.00  0.00    -0.081 Cl
HETATM   20  C12 UNL     1      21.874   0.834  53.132  1.00  0.00     0.056 A 
ENDBRANCH  11  13
ENDBRANCH  10  11
ENDBRANCH   9  10
ENDBRANCH   3   7
BRANCH   1  21
HETATM   21  O1  UNL     1      26.038   5.682  48.549  1.00  0.00    -0.356 OA
HETATM   22  C1  UNL     1      27.366   6.141  48.546  1.00  0.00     0.210 C 
ENDBRANCH   1  21
BRANCH   5  23
HETATM   23  O2  UNL     1      27.069   1.837  51.200  1.00  0.00    -0.346 OA
BRANCH  23  24
HETATM   24  C15 UNL     1      27.052   1.146  52.398  1.00  0.00     0.133 C 
HETATM   25  C16 UNL     1      28.195   1.453  53.321  1.00  0.00     0.058 C 
HETATM   26  C17 UNL     1      28.138   0.627  54.569  1.00  0.00     0.170 C 
HETATM   27  O3  UNL     1      27.932  -0.715  54.379  1.00  0.00    -0.391 OA
HETATM   28  C18 UNL     1      27.923  -1.105  53.054  1.00  0.00     0.170 C 
HETATM   29  C19 UNL     1      26.891  -0.355  52.249  1.00  0.00     0.058 C 
ENDBRANCH  23  24
ENDBRANCH   5  23
TORSDOF 7
ENDMDL
MODEL 2
REMARK VINA RESULT:      -8.0      3.469      6.497
REMARK  7 active torsions:
REMARK  status: ('A' for Active; 'I' for Inactive)
REMARK    1  A    between atoms: O1_2  and  C2_3 
REMARK    2  A    between atoms: C4_5  and  N1_6 
REMARK    3  A    between atoms: N2_8  and  C6_9 
REMARK    4  A    between atoms: C6_9  and  N3_10 
REMARK    5  A    between atoms: N3_10  and  C7_11 
REMARK    6  A    between atoms: C14_20  and  O2_21 
REMARK    7  A    between atoms: O2_21  and  C15_22 
ROOT
HETATM    1  C2  UNL     1      21.741  -0.308  53.481  1.00  0.00     0.073 A 
HETATM    2  C3  UNL     1      21.428   0.915  52.892  1.00  0.00     0.068 A 
HETATM    3  C4  UNL     1      22.388   1.801  52.430  1.00  0.00     0.069 A 
HETATM    4  C13 UNL     1      23.715   1.452  52.561  1.00  0.00     0.068 A 
HETATM    5  C14 UNL     1      24.101   0.239  53.141  1.00  0.00     0.074 A 
HETATM    6  C20 UNL     1      23.082  -0.613  53.589  1.00  0.00     0.073 A 
ENDROOT
BRANCH   3   7
HETATM    7  N1  UNL     1      21.728   2.915  51.921  1.00  0.00    -0.163 N 
HETATM    8  C5  UNL     1      20.703   3.531  52.299  1.00  0.00     0.339 A 
HETATM    9  N2  UNL     1      21.296   4.102  51.113  1.00  0.00     0.033 NA
BRANCH   9  10
HETATM   10  C6  UNL     1      21.720   5.297  51.106  1.00  0.00     0.740 C 
BRANCH  10  11
HETATM   11  N3  UNL     1      22.243   6.553  51.444  1.00  0.00    -0.343 N 
HETATM   12  H7  UNL     1      21.504   7.001  51.996  1.00  0.00     0.166 HD
BRANCH  11  13
HETATM   13  C7  UNL     1      23.512   6.570  50.865  1.00  0.00     0.034 A 
HETATM   14  C8  UNL     1      23.941   7.901  50.767  1.00  0.00     0.032 A 
HETATM   15  C9  UNL     1      25.168   8.259  50.216  1.00  0.00     0.046 A 
HETATM   16  C10 UNL     1      25.962   7.204  49.758  1.00  0.00     0.138 A 
HETATM   17  F1  UNL     1      27.170   7.480  49.207  1.00  0.00    -0.204 F 
HETATM   18  C11 UNL     1      25.498   5.915  49.877  1.00  0.00     0.074 A 
HETATM   19 CL1  UNL     1      26.548   4.638  49.285  1.00  0.00    -0.081 Cl
HETATM   20  C12 UNL     1      24.287   5.552  50.421  1.00  0.00     0.056 A 
ENDBRANCH  11  13
ENDBRANCH  10  11
ENDBRANCH   9  10
ENDBRANCH   3   7
BRANCH   1  21
HETATM   21  O1  UNL     1      20.981  -1.324  54.001  1.00  0.00    -0.356 OA
HETATM   22  C1  UNL     1      19.597  -1.435  53.790  1.00  0.00     0.210 C 
ENDBRANCH   1  21
BRANCH   5  23
HETATM   23  O2  UNL     1      25.456   0.136  53.149  1.00  0.00    -0.346 OA
BRANCH  23  24
HETATM   24  C15 UNL     1      26.420   0.918  53.759  1.00  0.00     0.133 C 
HETATM   25  C16 UNL     1      27.378   1.589  52.819  1.00  0.00     0.058 C 
HETATM   26  C17 UNL     1      28.423   2.369  53.555  1.00  0.00     0.170 C 
HETATM   27  O3  UNL     1      29.039   1.705  54.584  1.00  0.00    -0.391 OA
HETATM   28  C18 UNL     1      28.672   0.379  54.704  1.00  0.00     0.170 C 
HETATM   29  C19 UNL     1      27.181   0.215  54.867  1.00  0.00     0.058 C 
ENDBRANCH  23  24
ENDBRANCH   5  23
TORSDOF 7
ENDMDL
MODEL 3
REMARK VINA RESULT:      -7.9      5.397      8.728
REMARK  7 active torsions:
REMARK  status: ('A' for Active; 'I' for Inactive)
REMARK    1  A    between atoms: O1_2  and  C2_3 
REMARK    2  A    between atoms: C4_5  and  N1_6 
REMARK    3  A    between atoms: N2_8  and  C6_9 
REMARK    4  A    between atoms: C6_9  and  N3_10 
REMARK    5  A    between atoms: N3_10  and  C7_11 
REMARK    6  A    between atoms: C14_20  and  O2_21 
REMARK    7  A    between atoms: O2_21  and  C15_22 
ROOT
HETATM    1  C2  UNL     1      24.163   4.344  50.180  1.00  0.00     0.073 A 
HETATM    2  C3  UNL     1      25.308   4.808  49.538  1.00  0.00     0.068 A 
HETATM    3  C4  UNL     1      26.521   4.143  49.578  1.00  0.00     0.069 A 
HETATM    4  C13 UNL     1      26.596   2.963  50.288  1.00  0.00     0.068 A 
HETATM    5  C14 UNL     1      25.485   2.437  50.956  1.00  0.00     0.074 A 
HETATM    6  C20 UNL     1      24.286   3.160  50.877  1.00  0.00     0.073 A 
ENDROOT
BRANCH   3   7
HETATM    7  N1  UNL     1      27.440   4.889  48.848  1.00  0.00    -0.163 N 
HETATM    8  C5  UNL     1      27.434   6.080  48.454  1.00  0.00     0.339 A 
HETATM    9  N2  UNL     1      28.629   5.369  48.069  1.00  0.00     0.033 NA
BRANCH   9  10
HETATM   10  C6  UNL     1      29.772   5.755  48.458  1.00  0.00     0.740 C 
BRANCH  10  11
HETATM   11  N3  UNL     1      30.999   6.415  48.621  1.00  0.00    -0.343 N 
HETATM   12  H7  UNL     1      30.747   7.358  48.935  1.00  0.00     0.166 HD
BRANCH  11  13
HETATM   13  C7  UNL     1      31.957   5.460  48.279  1.00  0.00     0.034 A 
HETATM   14  C8  UNL     1      33.229   5.992  48.533  1.00  0.00     0.032 A 
HETATM   15  C9  UNL     1      34.403   5.288  48.282  1.00  0.00     0.046 A 
HETATM   16  C10 UNL     1      34.245   4.004  47.755  1.00  0.00     0.138 A 
HETATM   17  F1  UNL     1      35.347   3.262  47.483  1.00  0.00    -0.204 F 
HETATM   18  C11 UNL     1      32.976   3.526  47.525  1.00  0.00     0.074 A 
HETATM   19 CL1  UNL     1      32.849   1.903  46.865  1.00  0.00    -0.081 Cl
HETATM   20  C12 UNL     1      31.809   4.214  47.770  1.00  0.00     0.056 A 
ENDBRANCH  11  13
ENDBRANCH  10  11
ENDBRANCH   9  10
ENDBRANCH   3   7
BRANCH   1  21
HETATM   21  O1  UNL     1      22.880   4.820  50.280  1.00  0.00    -0.356 OA
HETATM   22  C1  UNL     1      22.500   5.818  51.194  1.00  0.00     0.210 C 
ENDBRANCH   1  21
BRANCH   5  23
HETATM   23  O2  UNL     1      25.820   1.275  51.574  1.00  0.00    -0.346 OA
BRANCH  23  24
HETATM   24  C15 UNL     1      26.762   1.008  52.552  1.00  0.00     0.133 C 
HETATM   25  C16 UNL     1      27.297  -0.394  52.547  1.00  0.00     0.058 C 
HETATM   26  C17 UNL     1      28.265  -0.622  53.666  1.00  0.00     0.170 C 
HETATM   27  O3  UNL     1      27.849  -0.198  54.902  1.00  0.00    -0.391 OA
HETATM   28  C18 UNL     1      26.551   0.271  54.933  1.00  0.00     0.170 C 
HETATM   29  C19 UNL     1      26.331   1.398  53.953  1.00  0.00     0.058 C 
ENDBRANCH  23  24
ENDBRANCH   5  23
TORSDOF 7
ENDMDL
MODEL 4
REMARK VINA RESULT:      -7.9      2.887      5.658
REMARK  7 active torsions:
REMARK  status: ('A' for Active; 'I' for Inactive)
REMARK    1  A    between atoms: O1_2  and  C2_3 
REMARK    2  A    between atoms: C4_5  and  N1_6 
REMARK    3  A    between atoms: N2_8  and  C6_9 
REMARK    4  A    between atoms: C6_9  and  N3_10 
REMARK    5  A    between atoms: N3_10  and  C7_11 
REMARK    6  A    between atoms: C14_20  and  O2_21 
REMARK    7  A    between atoms: O2_21  and  C15_22 
ROOT
HETATM    1  C2  UNL     1      26.637  -0.161  54.051  1.00  0.00     0.073 A 
HETATM    2  C3  UNL     1      25.348  -0.657  54.222  1.00  0.00     0.068 A 
HETATM    3  C4  UNL     1      24.250  -0.167  53.535  1.00  0.00     0.069 A 
HETATM    4  C13 UNL     1      24.447   0.861  52.637  1.00  0.00     0.068 A 
HETATM    5  C14 UNL     1      25.715   1.406  52.413  1.00  0.00     0.074 A 
HETATM    6  C20 UNL     1      26.785   0.866  53.141  1.00  0.00     0.073 A 
ENDROOT
BRANCH   3   7
HETATM    7  N1  UNL     1      23.131  -0.877  53.959  1.00  0.00    -0.163 N 
HETATM    8  C5  UNL     1      22.761  -1.265  55.093  1.00  0.00     0.339 A 
HETATM    9  N2  UNL     1      21.838  -1.631  54.046  1.00  0.00     0.033 NA
BRANCH   9  10
HETATM   10  C6  UNL     1      20.638  -1.219  54.060  1.00  0.00     0.740 C 
BRANCH  10  11
HETATM   11  N3  UNL     1      19.267  -1.025  53.837  1.00  0.00    -0.343 N 
HETATM   12  H7  UNL     1      18.805  -1.569  54.572  1.00  0.00     0.166 HD
BRANCH  11  13
HETATM   13  C7  UNL     1      19.211  -0.184  52.725  1.00  0.00     0.034 A 
HETATM   14  C8  UNL     1      18.120  -0.564  51.932  1.00  0.00     0.032 A 
HETATM   15  C9  UNL     1      17.799   0.074  50.737  1.00  0.00     0.046 A 
HETATM   16  C10 UNL     1      18.635   1.129  50.364  1.00  0.00     0.138 A 
HETATM   17  F1  UNL     1      18.382   1.794  49.209  1.00  0.00    -0.204 F 
HETATM   18  C11 UNL     1      19.692   1.466  51.177  1.00  0.00     0.074 A 
HETATM   19 CL1  UNL     1      20.700   2.804  50.651  1.00  0.00    -0.081 Cl
HETATM   20  C12 UNL     1      20.018   0.842  52.360  1.00  0.00     0.056 A 
ENDBRANCH  11  13
ENDBRANCH  10  11
ENDBRANCH   9  10
ENDBRANCH   3   7
BRANCH   1  21
HETATM   21  O1  UNL     1      27.850  -0.478  54.606  1.00  0.00    -0.356 OA
HETATM   22  C1  UNL     1      28.986   0.342  54.492  1.00  0.00     0.210 C 
ENDBRANCH   1  21
BRANCH   5  23
HETATM   23  O2  UNL     1      25.640   2.397  51.488  1.00  0.00    -0.346 OA
BRANCH  23  24
HETATM   24  C15 UNL     1      24.545   3.009  50.903  1.00  0.00     0.133 C 
HETATM   25  C16 UNL     1      24.725   3.383  49.461  1.00  0.00     0.058 C 
HETATM   26  C17 UNL     1      23.523   4.090  48.917  1.00  0.00     0.170 C 
HETATM   27  O3  UNL     1      23.039   5.112  49.692  1.00  0.00    -0.391 OA
HETATM   28  C18 UNL     1      23.811   5.398  50.800  1.00  0.00     0.170 C 
HETATM   29  C19 UNL     1      24.003   4.190  51.685  1.00  0.00     0.058 C 
ENDBRANCH  23  24
ENDBRANCH   5  23
TORSDOF 7
ENDMDL
MODEL 5
REMARK VINA RESULT:      -7.8      3.799      5.857
REMARK  7 active torsions:
REMARK  status: ('A' for Active; 'I' for Inactive)
REMARK    1  A    between atoms: O1_2  and  C2_3 
REMARK    2  A    between atoms: C4_5  and  N1_6 
REMARK    3  A    between atoms: N2_8  and  C6_9 
REMARK    4  A    between atoms: C6_9  and  N3_10 
REMARK    5  A    between atoms: N3_10  and  C7_11 
REMARK    6  A    between atoms: C14_20  and  O2_21 
REMARK    7  A    between atoms: O2_21  and  C15_22 
ROOT
HETATM    1  C2  UNL     1      26.538   7.131  48.549  1.00  0.00     0.073 A 
HETATM    2  C3  UNL     1      25.744   6.160  49.152  1.00  0.00     0.068 A 
HETATM    3  C4  UNL     1      26.162   4.855  49.351  1.00  0.00     0.069 A 
HETATM    4  C13 UNL     1      27.428   4.504  48.931  1.00  0.00     0.068 A 
HETATM    5  C14 UNL     1      28.280   5.428  48.320  1.00  0.00     0.074 A 
HETATM    6  C20 UNL     1      27.797   6.733  48.147  1.00  0.00     0.073 A 
ENDROOT
BRANCH   3   7
HETATM    7  N1  UNL     1      25.120   4.162  49.959  1.00  0.00    -0.163 N 
HETATM    8  C5  UNL     1      24.016   3.754  49.527  1.00  0.00     0.339 A 
HETATM    9  N2  UNL     1      24.227   3.433  50.918  1.00  0.00     0.033 NA
BRANCH   9  10
HETATM   10  C6  UNL     1      24.247   2.228  51.315  1.00  0.00     0.740 C 
BRANCH  10  11
HETATM   11  N3  UNL     1      24.265   1.050  52.075  1.00  0.00    -0.343 N 
HETATM   12  H7  UNL     1      23.300   0.707  52.045  1.00  0.00     0.166 HD
BRANCH  11  13
HETATM   13  C7  UNL     1      25.591   0.925  52.492  1.00  0.00     0.034 A 
HETATM   14  C8  UNL     1      25.940  -0.432  52.470  1.00  0.00     0.032 A 
HETATM   15  C9  UNL     1      27.199  -0.892  52.847  1.00  0.00     0.046 A 
HETATM   16  C10 UNL     1      28.109   0.086  53.257  1.00  0.00     0.138 A 
HETATM   17  F1  UNL     1      29.354  -0.291  53.641  1.00  0.00    -0.204 F 
HETATM   18  C11 UNL     1      27.719   1.405  53.260  1.00  0.00     0.074 A 
HETATM   19 CL1  UNL     1      28.913   2.582  53.782  1.00  0.00    -0.081 Cl
HETATM   20  C12 UNL     1      26.478   1.869  52.888  1.00  0.00     0.056 A 
ENDBRANCH  11  13
ENDBRANCH  10  11
ENDBRANCH   9  10
ENDBRANCH   3   7
BRANCH   1  21
HETATM   21  O1  UNL     1      26.344   8.456  48.252  1.00  0.00    -0.356 OA
HETATM   22  C1  UNL     1      27.299   9.452  48.519  1.00  0.00     0.210 C 
ENDBRANCH   1  21
BRANCH   5  23
HETATM   23  O2  UNL     1      29.461   4.836  48.004  1.00  0.00    -0.346 OA
BRANCH  23  24
HETATM   24  C15 UNL     1      30.710   5.380  47.762  1.00  0.00     0.133 C 
HETATM   25  C16 UNL     1      31.752   4.396  47.315  1.00  0.00     0.058 C 
HETATM   26  C17 UNL     1      33.087   5.047  47.129  1.00  0.00     0.170 C 
HETATM   27  O3  UNL     1      33.499   5.853  48.158  1.00  0.00    -0.391 OA
HETATM   28  C18 UNL     1      32.662   5.843  49.256  1.00  0.00     0.170 C 
HETATM   29  C19 UNL     1      31.248   6.231  48.895  1.00  0.00     0.058 C 
ENDBRANCH  23  24
ENDBRANCH   5  23
TORSDOF 7
ENDMDL
MODEL 6
REMARK VINA RESULT:      -7.5      3.959      7.005
REMARK  7 active torsions:
REMARK  status: ('A' for Active; 'I' for Inactive)
REMARK    1  A    between atoms: O1_2  and  C2_3 
REMARK    2  A    between atoms: C4_5  and  N1_6 
REMARK    3  A    between atoms: N2_8  and  C6_9 
REMARK    4  A    between atoms: C6_9  and  N3_10 
REMARK    5  A    between atoms: N3_10  and  C7_11 
REMARK    6  A    between atoms: C14_20  and  O2_21 
REMARK    7  A    between atoms: O2_21  and  C15_22 
ROOT
HETATM    1  C2  UNL     1      22.457   0.741  53.246  1.00  0.00     0.073 A 
HETATM    2  C3  UNL     1      22.394   2.055  52.789  1.00  0.00     0.068 A 
HETATM    3  C4  UNL     1      23.455   2.692  52.166  1.00  0.00     0.069 A 
HETATM    4  C13 UNL     1      24.628   1.988  51.991  1.00  0.00     0.068 A 
HETATM    5  C14 UNL     1      24.760   0.664  52.423  1.00  0.00     0.074 A 
HETATM    6  C20 UNL     1      23.650   0.077  53.047  1.00  0.00     0.073 A 
ENDROOT
BRANCH   3   7
HETATM    7  N1  UNL     1      23.052   3.987  51.858  1.00  0.00    -0.163 N 
HETATM    8  C5  UNL     1      22.207   4.752  52.381  1.00  0.00     0.339 A 
HETATM    9  N2  UNL     1      22.877   5.347  51.250  1.00  0.00     0.033 NA
BRANCH   9  10
HETATM   10  C6  UNL     1      23.563   6.406  51.381  1.00  0.00     0.740 C 
BRANCH  10  11
HETATM   11  N3  UNL     1      24.110   7.692  51.262  1.00  0.00    -0.343 N 
HETATM   12  H7  UNL     1      23.736   8.208  52.064  1.00  0.00     0.166 HD
BRANCH  11  13
HETATM   13  C7  UNL     1      24.897   7.630  50.111  1.00  0.00     0.034 A 
HETATM   14  C8  UNL     1      24.343   8.483  49.146  1.00  0.00     0.032 A 
HETATM   15  C9  UNL     1      24.890   8.636  47.874  1.00  0.00     0.046 A 
HETATM   16  C10 UNL     1      26.037   7.883  47.608  1.00  0.00     0.138 A 
HETATM   17  F1  UNL     1      26.620   7.981  46.387  1.00  0.00    -0.204 F 
HETATM   18  C11 UNL     1      26.542   7.062  48.588  1.00  0.00     0.074 A 
HETATM   19 CL1  UNL     1      27.987   6.147  48.188  1.00  0.00    -0.081 Cl
HETATM   20  C12 UNL     1      26.010   6.904  49.848  1.00  0.00     0.056 A 
ENDBRANCH  11  13
ENDBRANCH  10  11
ENDBRANCH   9  10
ENDBRANCH   3   7
BRANCH   1  21
HETATM   21  O1  UNL     1      21.559  -0.080  53.878  1.00  0.00    -0.356 OA
HETATM   22  C1  UNL     1      21.933  -1.030  54.843  1.00  0.00     0.210 C 
ENDBRANCH   1  21
BRANCH   5  23
HETATM   23  O2  UNL     1      26.003   0.201  52.133  1.00  0.00    -0.346 OA
BRANCH  23  24
HETATM   24  C15 UNL     1      27.205   0.351  52.801  1.00  0.00     0.133 C 
HETATM   25  C16 UNL     1      27.152   0.051  54.271  1.00  0.00     0.058 C 
HETATM   26  C17 UNL     1      28.473   0.292  54.934  1.00  0.00     0.170 C 
HETATM   27  O3  UNL     1      29.071   1.490  54.640  1.00  0.00    -0.391 OA
HETATM   28  C18 UNL     1      28.301   2.333  53.864  1.00  0.00     0.170 C 
HETATM   29  C19 UNL     1      27.884   1.687  52.565  1.00  0.00     0.058 C 
ENDBRANCH  23  24
ENDBRANCH   5  23
TORSDOF 7
ENDMDL
MODEL 7
REMARK VINA RESULT:      -7.5      2.002      2.439
REMARK  7 active torsions:
REMARK  status: ('A' for Active; 'I' for Inactive)
REMARK    1  A    between atoms: O1_2  and  C2_3 
REMARK    2  A    between atoms: C4_5  and  N1_6 
REMARK    3  A    between atoms: N2_8  and  C6_9 
REMARK    4  A    between atoms: C6_9  and  N3_10 
REMARK    5  A    between atoms: N3_10  and  C7_11 
REMARK    6  A    between atoms: C14_20  and  O2_21 
REMARK    7  A    between atoms: O2_21  and  C15_22 
ROOT
HETATM    1  C2  UNL     1      26.106   3.945  49.542  1.00  0.00     0.073 A 
HETATM    2  C3  UNL     1      24.719   3.919  49.428  1.00  0.00     0.068 A 
HETATM    3  C4  UNL     1      23.908   3.126  50.223  1.00  0.00     0.069 A 
HETATM    4  C13 UNL     1      24.507   2.326  51.174  1.00  0.00     0.068 A 
HETATM    5  C14 UNL     1      25.895   2.304  51.345  1.00  0.00     0.074 A 
HETATM    6  C20 UNL     1      26.659   3.129  50.508  1.00  0.00     0.073 A 
ENDROOT
BRANCH   3   7
HETATM    7  N1  UNL     1      22.590   3.337  49.831  1.00  0.00    -0.163 N 
HETATM    8  C5  UNL     1      22.089   3.786  48.773  1.00  0.00     0.339 A 
HETATM    9  N2  UNL     1      21.095   3.424  49.755  1.00  0.00     0.033 NA
BRANCH   9  10
HETATM   10  C6  UNL     1      20.225   2.534  49.507  1.00  0.00     0.740 C 
BRANCH  10  11
HETATM   11  N3  UNL     1      19.553   1.349  49.176  1.00  0.00    -0.343 N 
HETATM   12  H7  UNL     1      19.486   1.365  48.154  1.00  0.00     0.166 HD
BRANCH  11  13
HETATM   13  C7  UNL     1      19.311   0.732  50.404  1.00  0.00     0.034 A 
HETATM   14  C8  UNL     1      17.983   0.284  50.425  1.00  0.00     0.032 A 
HETATM   15  C9  UNL     1      17.424  -0.365  51.523  1.00  0.00     0.046 A 
HETATM   16  C10 UNL     1      18.270  -0.547  52.620  1.00  0.00     0.138 A 
HETATM   17  F1  UNL     1      17.790  -1.169  53.726  1.00  0.00    -0.204 F 
HETATM   18  C11 UNL     1      19.565  -0.091  52.551  1.00  0.00     0.074 A 
HETATM   19 CL1  UNL     1      20.574  -0.357  53.963  1.00  0.00    -0.081 Cl
HETATM   20  C12 UNL     1      20.127   0.551  51.470  1.00  0.00     0.056 A 
ENDBRANCH  11  13
ENDBRANCH  10  11
ENDBRANCH   9  10
ENDBRANCH   3   7
BRANCH   1  21
HETATM   21  O1  UNL     1      27.093   4.632  48.882  1.00  0.00    -0.356 OA
HETATM   22  C1  UNL     1      26.992   5.993  48.551  1.00  0.00     0.210 C 
ENDBRANCH   1  21
BRANCH   5  23
HETATM   23  O2  UNL     1      26.228   1.441  52.339  1.00  0.00    -0.346 OA
BRANCH  23  24
HETATM   24  C15 UNL     1      27.431   0.827  52.640  1.00  0.00     0.133 C 
HETATM   25  C16 UNL     1      27.346  -0.652  52.875  1.00  0.00     0.058 C 
HETATM   26  C17 UNL     1      28.673  -1.232  53.250  1.00  0.00     0.170 C 
HETATM   27  O3  UNL     1      29.355  -0.560  54.232  1.00  0.00    -0.391 OA
HETATM   28  C18 UNL     1      28.651   0.484  54.797  1.00  0.00     0.170 C 
HETATM   29  C19 UNL     1      28.202   1.491  53.765  1.00  0.00     0.058 C 
ENDBRANCH  23  24
ENDBRANCH   5  23
TORSDOF 7
ENDMDL
MODEL 8
REMARK VINA RESULT:      -7.5      3.368      4.480
REMARK  7 active torsions:
REMARK  status: ('A' for Active; 'I' for Inactive)
REMARK    1  A    between atoms: O1_2  and  C2_3 
REMARK    2  A    between atoms: C4_5  and  N1_6 
REMARK    3  A    between atoms: N2_8  and  C6_9 
REMARK    4  A    between atoms: C6_9  and  N3_10 
REMARK    5  A    between atoms: N3_10  and  C7_11 
REMARK    6  A    between atoms: C14_20  and  O2_21 
REMARK    7  A    between atoms: O2_21  and  C15_22 
ROOT
HETATM    1  C2  UNL     1      23.018   1.537  51.007  1.00  0.00     0.073 A 
HETATM    2  C3  UNL     1      22.355   0.714  51.913  1.00  0.00     0.068 A 
HETATM    3  C4  UNL     1      22.897   0.336  53.130  1.00  0.00     0.069 A 
HETATM    4  C13 UNL     1      24.153   0.800  53.458  1.00  0.00     0.068 A 
HETATM    5  C14 UNL     1      24.875   1.632  52.597  1.00  0.00     0.074 A 
HETATM    6  C20 UNL     1      24.272   1.977  51.379  1.00  0.00     0.073 A 
ENDROOT
BRANCH   3   7
HETATM    7  N1  UNL     1      21.978  -0.492  53.766  1.00  0.00    -0.163 N 
HETATM    8  C5  UNL     1      21.541  -0.518  54.942  1.00  0.00     0.339 A 
HETATM    9  N2  UNL     1      20.968  -1.547  54.109  1.00  0.00     0.033 NA
BRANCH   9  10
HETATM   10  C6  UNL     1      19.718  -1.596  53.898  1.00  0.00     0.740 C 
BRANCH  10  11
HETATM   11  N3  UNL     1      18.332  -1.382  53.901  1.00  0.00    -0.343 N 
HETATM   12  H7  UNL     1      18.020  -1.716  54.818  1.00  0.00     0.166 HD
BRANCH  11  13
HETATM   13  C7  UNL     1      18.065  -0.817  52.653  1.00  0.00     0.034 A 
HETATM   14  C8  UNL     1      16.788  -1.223  52.244  1.00  0.00     0.032 A 
HETATM   15  C9  UNL     1      16.229  -0.838  51.028  1.00  0.00     0.046 A 
HETATM   16  C10 UNL     1      17.022  -0.013  50.225  1.00  0.00     0.138 A 
HETATM   17  F1  UNL     1      16.541   0.398  49.025  1.00  0.00    -0.204 F 
HETATM   18  C11 UNL     1      18.267   0.359  50.672  1.00  0.00     0.074 A 
HETATM   19 CL1  UNL     1      19.209   1.400  49.616  1.00  0.00    -0.081 Cl
HETATM   20  C12 UNL     1      18.828  -0.015  51.872  1.00  0.00     0.056 A 
ENDBRANCH  11  13
ENDBRANCH  10  11
ENDBRANCH   9  10
ENDBRANCH   3   7
BRANCH   1  21
HETATM   21  O1  UNL     1      22.691   2.033  49.771  1.00  0.00    -0.356 OA
HETATM   22  C1  UNL     1      22.337   3.375  49.550  1.00  0.00     0.210 C 
ENDBRANCH   1  21
BRANCH   5  23
HETATM   23  O2  UNL     1      26.075   1.948  53.150  1.00  0.00    -0.346 OA
BRANCH  23  24
HETATM   24  C15 UNL     1      27.321   1.365  53.003  1.00  0.00     0.133 C 
HETATM   25  C16 UNL     1      27.451  -0.009  53.593  1.00  0.00     0.058 C 
HETATM   26  C17 UNL     1      28.839  -0.547  53.446  1.00  0.00     0.170 C 
HETATM   27  O3  UNL     1      29.846   0.306  53.817  1.00  0.00    -0.391 OA
HETATM   28  C18 UNL     1      29.408   1.490  54.377  1.00  0.00     0.170 C 
HETATM   29  C19 UNL     1      28.473   2.240  53.459  1.00  0.00     0.058 C 
ENDBRANCH  23  24
ENDBRANCH   5  23
TORSDOF 7
ENDMDL
MODEL 9
REMARK VINA RESULT:      -7.4      4.219      6.484
REMARK  7 active torsions:
REMARK  status: ('A' for Active; 'I' for Inactive)
REMARK    1  A    between atoms: O1_2  and  C2_3 
REMARK    2  A    between atoms: C4_5  and  N1_6 
REMARK    3  A    between atoms: N2_8  and  C6_9 
REMARK    4  A    between atoms: C6_9  and  N3_10 
REMARK    5  A    between atoms: N3_10  and  C7_11 
REMARK    6  A    between atoms: C14_20  and  O2_21 
REMARK    7  A    between atoms: O2_21  and  C15_22 
ROOT
HETATM    1  C2  UNL     1      26.032   7.292  48.073  1.00  0.00     0.073 A 
HETATM    2  C3  UNL     1      25.785   6.092  48.734  1.00  0.00     0.068 A 
HETATM    3  C4  UNL     1      26.760   5.132  48.951  1.00  0.00     0.069 A 
HETATM    4  C13 UNL     1      28.036   5.381  48.489  1.00  0.00     0.068 A 
HETATM    5  C14 UNL     1      28.355   6.566  47.819  1.00  0.00     0.074 A 
HETATM    6  C20 UNL     1      27.323   7.497  47.631  1.00  0.00     0.073 A 
ENDROOT
BRANCH   3   7
HETATM    7  N1  UNL     1      26.167   4.067  49.620  1.00  0.00    -0.163 N 
HETATM    8  C5  UNL     1      26.512   2.870  49.770  1.00  0.00     0.339 A 
HETATM    9  N2  UNL     1      25.264   3.180  50.424  1.00  0.00     0.033 NA
BRANCH   9  10
HETATM   10  C6  UNL     1      25.135   3.049  51.679  1.00  0.00     0.740 C 
BRANCH  10  11
HETATM   11  N3  UNL     1      25.305   2.737  53.036  1.00  0.00    -0.343 N 
HETATM   12  H7  UNL     1      24.726   3.421  53.534  1.00  0.00     0.166 HD
BRANCH  11  13
HETATM   13  C7  UNL     1      26.177   1.647  53.036  1.00  0.00     0.034 A 
HETATM   14  C8  UNL     1      27.440   2.086  53.457  1.00  0.00     0.032 A 
HETATM   15  C9  UNL     1      28.539   1.236  53.551  1.00  0.00     0.046 A 
HETATM   16  C10 UNL     1      28.312  -0.097  53.198  1.00  0.00     0.138 A 
HETATM   17  F1  UNL     1      29.340  -0.980  53.264  1.00  0.00    -0.204 F 
HETATM   18  C11 UNL     1      27.055  -0.478  52.793  1.00  0.00     0.074 A 
HETATM   19 CL1  UNL     1      26.839  -2.168  52.367  1.00  0.00    -0.081 Cl
HETATM   20  C12 UNL     1      25.962   0.354  52.696  1.00  0.00     0.056 A 
ENDBRANCH  11  13
ENDBRANCH  10  11
ENDBRANCH   9  10
ENDBRANCH   3   7
BRANCH   1  21
HETATM   21  O1  UNL     1      25.245   8.367  47.748  1.00  0.00    -0.356 OA
HETATM   22  C1  UNL     1      23.934   8.241  47.260  1.00  0.00     0.210 C 
ENDBRANCH   1  21
BRANCH   5  23
HETATM   23  O2  UNL     1      29.668   6.567  47.472  1.00  0.00    -0.346 OA
BRANCH  23  24
HETATM   24  C15 UNL     1      30.797   6.888  48.202  1.00  0.00     0.133 C 
HETATM   25  C16 UNL     1      31.698   7.902  47.560  1.00  0.00     0.058 C 
HETATM   26  C17 UNL     1      32.924   8.154  48.381  1.00  0.00     0.170 C 
HETATM   27  O3  UNL     1      33.583   7.034  48.818  1.00  0.00    -0.391 OA
HETATM   28  C18 UNL     1      33.069   5.848  48.332  1.00  0.00     0.170 C 
HETATM   29  C19 UNL     1      31.604   5.688  48.660  1.00  0.00     0.058 C 
ENDBRANCH  23  24
ENDBRANCH   5  23
TORSDOF 7
ENDMDL
