MODEL 1
REMARK VINA RESULT:      -7.7      0.000      0.000
REMARK  5 active torsions:
REMARK  status: ('A' for Active; 'I' for Inactive)
REMARK    1  A    between atoms: C2_2  and  C3_3 
REMARK    2  A    between atoms: C7_7  and  C8_8 
REMARK    3  A    between atoms: C9_11  and  C10_12 
REMARK    4  A    between atoms: C15_17  and  O1_18 
REMARK    5  A    between atoms: O1_18  and  C16_19 
ROOT
HETATM    1  C8  UNL     1      26.390  -0.637  53.669  1.00  0.00     0.204 A 
HETATM    2  N1  UNL     1      25.603  -0.840  54.741  1.00  0.00    -0.121 NA
HETATM    3  N2  UNL     1      24.400  -0.435  54.379  1.00  0.00    -0.121 NA
HETATM    4  C9  UNL     1      24.469   0.002  53.109  1.00  0.00     0.205 A 
HETATM    5  O2  UNL     1      25.702  -0.118  52.654  1.00  0.00    -0.268 OA
ENDROOT
BRANCH   4   6
HETATM    6  C10 UNL     1      23.303   0.520  52.403  1.00  0.00     0.052 A 
HETATM    7  C11 UNL     1      22.113  -0.189  52.266  1.00  0.00     0.019 A 
HETATM    8  C12 UNL     1      21.042   0.347  51.588  1.00  0.00     0.001 A 
HETATM    9  C13 UNL     1      21.109   1.603  51.023  1.00  0.00     0.003 A 
HETATM   10  C14 UNL     1      22.276   2.343  51.137  1.00  0.00     0.038 A 
HETATM   11  C15 UNL     1      23.329   1.774  51.823  1.00  0.00     0.083 A 
BRANCH  11  12
HETATM   12  O1  UNL     1      24.486   2.495  51.943  1.00  0.00    -0.350 OA
BRANCH  12  13
HETATM   13  C16 UNL     1      25.171   3.259  51.027  1.00  0.00     0.171 C 
HETATM   14  C17 UNL     1      26.475   2.698  50.554  1.00  0.00     0.034 C 
ENDBRANCH  12  13
ENDBRANCH  11  12
ENDBRANCH   4   6
BRANCH   1  15
HETATM   15  C7  UNL     1      27.811  -0.892  53.469  1.00  0.00     0.040 C 
HETATM   16  C3  UNL     1      28.966  -0.051  53.765  1.00  0.00    -0.024 C 
HETATM   17  C4  UNL     1      30.095  -0.730  53.629  1.00  0.00     0.013 C 
HETATM   18  C5  UNL     1      29.657  -2.061  53.227  1.00  0.00     0.014 C 
HETATM   19  C6  UNL     1      28.364  -1.982  52.958  1.00  0.00    -0.009 C 
BRANCH  16  20
HETATM   20  C2  UNL     1      28.915   1.330  54.157  1.00  0.00    -0.014 C 
HETATM   21  C1  UNL     1      28.593   2.452  53.573  1.00  0.00     0.032 C 
ENDBRANCH  16  20
ENDBRANCH   1  15
TORSDOF 5
ENDMDL
MODEL 2
REMARK VINA RESULT:      -7.3      1.893      6.683
REMARK  5 active torsions:
REMARK  status: ('A' for Active; 'I' for Inactive)
REMARK    1  A    between atoms: C2_2  and  C3_3 
REMARK    2  A    between atoms: C7_7  and  C8_8 
REMARK    3  A    between atoms: C9_11  and  C10_12 
REMARK    4  A    between atoms: C15_17  and  O1_18 
REMARK    5  A    between atoms: O1_18  and  C16_19 
ROOT
HETATM    1  C8  UNL     1      23.746   2.216  51.385  1.00  0.00     0.204 A 
HETATM    2  N1  UNL     1      23.495   2.953  52.482  1.00  0.00    -0.121 NA
HETATM    3  N2  UNL     1      24.548   2.794  53.262  1.00  0.00    -0.121 NA
HETATM    4  C9  UNL     1      25.413   1.976  52.639  1.00  0.00     0.205 A 
HETATM    5  O2  UNL     1      24.928   1.608  51.468  1.00  0.00    -0.268 OA
ENDROOT
BRANCH   4   6
HETATM    6  C10 UNL     1      26.689   1.595  53.236  1.00  0.00     0.052 A 
HETATM    7  C11 UNL     1      27.783   2.452  53.315  1.00  0.00     0.019 A 
HETATM    8  C12 UNL     1      28.964   2.042  53.888  1.00  0.00     0.001 A 
HETATM    9  C13 UNL     1      29.106   0.770  54.405  1.00  0.00     0.003 A 
HETATM   10  C14 UNL     1      28.040  -0.114  54.347  1.00  0.00     0.038 A 
HETATM   11  C15 UNL     1      26.870   0.332  53.765  1.00  0.00     0.083 A 
BRANCH  11  12
HETATM   12  O1  UNL     1      25.811  -0.532  53.702  1.00  0.00    -0.350 OA
BRANCH  12  13
HETATM   13  C16 UNL     1      24.822  -0.814  54.615  1.00  0.00     0.171 C 
HETATM   14  C17 UNL     1      23.418  -0.711  54.108  1.00  0.00     0.034 C 
ENDBRANCH  12  13
ENDBRANCH  11  12
ENDBRANCH   4   6
BRANCH   1  15
HETATM   15  C7  UNL     1      22.953   2.001  50.180  1.00  0.00     0.040 C 
HETATM   16  C3  UNL     1      21.755   1.194  49.977  1.00  0.00    -0.024 C 
HETATM   17  C4  UNL     1      21.220   1.429  48.789  1.00  0.00     0.013 C 
HETATM   18  C5  UNL     1      22.105   2.425  48.197  1.00  0.00     0.014 C 
HETATM   19  C6  UNL     1      23.169   2.516  48.979  1.00  0.00    -0.009 C 
BRANCH  16  20
HETATM   20  C2  UNL     1      21.205   0.263  50.924  1.00  0.00    -0.014 C 
HETATM   21  C1  UNL     1      20.508   0.356  52.024  1.00  0.00     0.032 C 
ENDBRANCH  16  20
ENDBRANCH   1  15
TORSDOF 5
ENDMDL
MODEL 3
REMARK VINA RESULT:      -7.3      1.614      1.951
REMARK  5 active torsions:
REMARK  status: ('A' for Active; 'I' for Inactive)
REMARK    1  A    between atoms: C2_2  and  C3_3 
REMARK    2  A    between atoms: C7_7  and  C8_8 
REMARK    3  A    between atoms: C9_11  and  C10_12 
REMARK    4  A    between atoms: C15_17  and  O1_18 
REMARK    5  A    between atoms: O1_18  and  C16_19 
ROOT
HETATM    1  C8  UNL     1      26.014   0.197  53.205  1.00  0.00     0.204 A 
HETATM    2  N1  UNL     1      25.763   1.499  53.431  1.00  0.00    -0.121 NA
HETATM    3  N2  UNL     1      24.451   1.624  53.354  1.00  0.00    -0.121 NA
HETATM    4  C9  UNL     1      23.928   0.415  53.087  1.00  0.00     0.205 A 
HETATM    5  O2  UNL     1      24.889  -0.485  52.991  1.00  0.00    -0.268 OA
ENDROOT
BRANCH   4   6
HETATM    6  C10 UNL     1      22.492   0.206  52.938  1.00  0.00     0.052 A 
HETATM    7  C11 UNL     1      21.688  -0.326  53.943  1.00  0.00     0.019 A 
HETATM    8  C12 UNL     1      20.338  -0.504  53.750  1.00  0.00     0.001 A 
HETATM    9  C13 UNL     1      19.734  -0.160  52.558  1.00  0.00     0.003 A 
HETATM   10  C14 UNL     1      20.498   0.373  51.532  1.00  0.00     0.038 A 
HETATM   11  C15 UNL     1      21.849   0.537  51.761  1.00  0.00     0.083 A 
BRANCH  11  12
HETATM   12  O1  UNL     1      22.615   1.063  50.756  1.00  0.00    -0.350 OA
BRANCH  12  13
HETATM   13  C16 UNL     1      22.541   2.272  50.104  1.00  0.00     0.171 C 
HETATM   14  C17 UNL     1      22.414   3.478  50.979  1.00  0.00     0.034 C 
ENDBRANCH  12  13
ENDBRANCH  11  12
ENDBRANCH   4   6
BRANCH   1  15
HETATM   15  C7  UNL     1      27.272  -0.537  53.164  1.00  0.00     0.040 C 
HETATM   16  C3  UNL     1      28.584  -0.181  53.695  1.00  0.00    -0.024 C 
HETATM   17  C4  UNL     1      29.416  -1.209  53.634  1.00  0.00     0.013 C 
HETATM   18  C5  UNL     1      28.616  -2.273  53.040  1.00  0.00     0.014 C 
HETATM   19  C6  UNL     1      27.489  -1.724  52.616  1.00  0.00    -0.009 C 
BRANCH  16  20
HETATM   20  C2  UNL     1      28.951   1.105  54.221  1.00  0.00    -0.014 C 
HETATM   21  C1  UNL     1      29.024   2.319  53.746  1.00  0.00     0.032 C 
ENDBRANCH  16  20
ENDBRANCH   1  15
TORSDOF 5
ENDMDL
MODEL 4
REMARK VINA RESULT:      -7.3      1.715      3.255
REMARK  5 active torsions:
REMARK  status: ('A' for Active; 'I' for Inactive)
REMARK    1  A    between atoms: C2_2  and  C3_3 
REMARK    2  A    between atoms: C7_7  and  C8_8 
REMARK    3  A    between atoms: C9_11  and  C10_12 
REMARK    4  A    between atoms: C15_17  and  O1_18 
REMARK    5  A    between atoms: O1_18  and  C16_19 
ROOT
HETATM    1  C8  UNL     1      26.759   1.210  53.327  1.00  0.00     0.204 A 
HETATM    2  N1  UNL     1      26.245   2.250  54.007  1.00  0.00    -0.121 NA
HETATM    3  N2  UNL     1      25.089   2.513  53.428  1.00  0.00    -0.121 NA
HETATM    4  C9  UNL     1      24.916   1.643  52.419  1.00  0.00     0.205 A 
HETATM    5  O2  UNL     1      25.949   0.824  52.343  1.00  0.00    -0.268 OA
ENDROOT
BRANCH   4   6
HETATM    6  C10 UNL     1      23.729   1.663  51.571  1.00  0.00     0.052 A 
HETATM    7  C11 UNL     1      23.629   2.428  50.412  1.00  0.00     0.019 A 
HETATM    8  C12 UNL     1      22.485   2.411  49.648  1.00  0.00     0.001 A 
HETATM    9  C13 UNL     1      21.399   1.637  50.003  1.00  0.00     0.003 A 
HETATM   10  C14 UNL     1      21.458   0.860  51.149  1.00  0.00     0.038 A 
HETATM   11  C15 UNL     1      22.621   0.902  51.891  1.00  0.00     0.083 A 
BRANCH  11  12
HETATM   12  O1  UNL     1      22.692   0.140  53.025  1.00  0.00    -0.350 OA
BRANCH  12  13
HETATM   13  C16 UNL     1      22.260  -1.142  53.279  1.00  0.00     0.171 C 
HETATM   14  C17 UNL     1      21.479  -1.329  54.541  1.00  0.00     0.034 C 
ENDBRANCH  12  13
ENDBRANCH  11  12
ENDBRANCH   4   6
BRANCH   1  15
HETATM   15  C7  UNL     1      28.009   0.481  53.504  1.00  0.00     0.040 C 
HETATM   16  C3  UNL     1      28.309  -0.932  53.297  1.00  0.00    -0.024 C 
HETATM   17  C4  UNL     1      29.612  -1.156  53.367  1.00  0.00     0.013 C 
HETATM   18  C5  UNL     1      30.181   0.160  53.631  1.00  0.00     0.014 C 
HETATM   19  C6  UNL     1      29.172   0.973  53.903  1.00  0.00    -0.009 C 
BRANCH  16  20
HETATM   20  C2  UNL     1      27.340  -1.963  53.047  1.00  0.00    -0.014 C 
HETATM   21  C1  UNL     1      26.703  -2.408  51.997  1.00  0.00     0.032 C 
ENDBRANCH  16  20
ENDBRANCH   1  15
TORSDOF 5
ENDMDL
MODEL 5
REMARK VINA RESULT:      -7.2      2.467      4.138
REMARK  5 active torsions:
REMARK  status: ('A' for Active; 'I' for Inactive)
REMARK    1  A    between atoms: C2_2  and  C3_3 
REMARK    2  A    between atoms: C7_7  and  C8_8 
REMARK    3  A    between atoms: C9_11  and  C10_12 
REMARK    4  A    between atoms: C15_17  and  O1_18 
REMARK    5  A    between atoms: O1_18  and  C16_19 
ROOT
HETATM    1  C8  UNL     1      23.916   1.204  52.432  1.00  0.00     0.204 A 
HETATM    2  N1  UNL     1      23.441   2.448  52.618  1.00  0.00    -0.121 NA
HETATM    3  N2  UNL     1      22.140   2.363  52.415  1.00  0.00    -0.121 NA
HETATM    4  C9  UNL     1      21.844   1.088  52.111  1.00  0.00     0.205 A 
HETATM    5  O2  UNL     1      22.940   0.353  52.118  1.00  0.00    -0.268 OA
ENDROOT
BRANCH   4   6
HETATM    6  C10 UNL     1      20.480   0.653  51.828  1.00  0.00     0.052 A 
HETATM    7  C11 UNL     1      19.815   0.947  50.640  1.00  0.00     0.019 A 
HETATM    8  C12 UNL     1      18.527   0.513  50.424  1.00  0.00     0.001 A 
HETATM    9  C13 UNL     1      17.852  -0.227  51.373  1.00  0.00     0.003 A 
HETATM   10  C14 UNL     1      18.479  -0.541  52.568  1.00  0.00     0.038 A 
HETATM   11  C15 UNL     1      19.770  -0.090  52.751  1.00  0.00     0.083 A 
BRANCH  11  12
HETATM   12  O1  UNL     1      20.400  -0.394  53.927  1.00  0.00    -0.350 OA
BRANCH  12  13
HETATM   13  C16 UNL     1      21.007  -1.553  54.352  1.00  0.00     0.171 C 
HETATM   14  C17 UNL     1      22.337  -1.387  55.016  1.00  0.00     0.034 C 
ENDBRANCH  12  13
ENDBRANCH  11  12
ENDBRANCH   4   6
BRANCH   1  15
HETATM   15  C7  UNL     1      25.273   0.680  52.520  1.00  0.00     0.040 C 
HETATM   16  C3  UNL     1      26.542   1.292  52.141  1.00  0.00    -0.024 C 
HETATM   17  C4  UNL     1      27.565   0.571  52.574  1.00  0.00     0.013 C 
HETATM   18  C5  UNL     1      26.938  -0.553  53.258  1.00  0.00     0.014 C 
HETATM   19  C6  UNL     1      25.644  -0.506  52.981  1.00  0.00    -0.009 C 
BRANCH  16  20
HETATM   20  C2  UNL     1      26.691   2.514  51.400  1.00  0.00    -0.014 C 
HETATM   21  C1  UNL     1      26.340   2.932  50.214  1.00  0.00     0.032 C 
ENDBRANCH  16  20
ENDBRANCH   1  15
TORSDOF 5
ENDMDL
MODEL 6
REMARK VINA RESULT:      -7.2      2.062      6.492
REMARK  5 active torsions:
REMARK  status: ('A' for Active; 'I' for Inactive)
REMARK    1  A    between atoms: C2_2  and  C3_3 
REMARK    2  A    between atoms: C7_7  and  C8_8 
REMARK    3  A    between atoms: C9_11  and  C10_12 
REMARK    4  A    between atoms: C15_17  and  O1_18 
REMARK    5  A    between atoms: O1_18  and  C16_19 
ROOT
HETATM    1  C8  UNL     1      23.832   2.436  51.423  1.00  0.00     0.204 A 
HETATM    2  N1  UNL     1      23.573   3.075  52.579  1.00  0.00    -0.121 NA
HETATM    3  N2  UNL     1      24.609   2.826  53.358  1.00  0.00    -0.121 NA
HETATM    4  C9  UNL     1      25.471   2.052  52.678  1.00  0.00     0.205 A 
HETATM    5  O2  UNL     1      25.001   1.800  51.471  1.00  0.00    -0.268 OA
ENDROOT
BRANCH   4   6
HETATM    6  C10 UNL     1      26.729   1.594  53.259  1.00  0.00     0.052 A 
HETATM    7  C11 UNL     1      27.855   2.404  53.382  1.00  0.00     0.019 A 
HETATM    8  C12 UNL     1      29.017   1.922  53.937  1.00  0.00     0.001 A 
HETATM    9  C13 UNL     1      29.108   0.623  54.393  1.00  0.00     0.003 A 
HETATM   10  C14 UNL     1      28.009  -0.216  54.290  1.00  0.00     0.038 A 
HETATM   11  C15 UNL     1      26.860   0.301  53.728  1.00  0.00     0.083 A 
BRANCH  11  12
HETATM   12  O1  UNL     1      25.769  -0.517  53.621  1.00  0.00    -0.350 OA
BRANCH  12  13
HETATM   13  C16 UNL     1      24.771  -0.813  54.521  1.00  0.00     0.171 C 
HETATM   14  C17 UNL     1      23.372  -0.690  54.007  1.00  0.00     0.034 C 
ENDBRANCH  12  13
ENDBRANCH  11  12
ENDBRANCH   4   6
BRANCH   1  15
HETATM   15  C7  UNL     1      23.058   2.346  50.191  1.00  0.00     0.040 C 
HETATM   16  C3  UNL     1      23.072   3.202  49.010  1.00  0.00    -0.024 C 
HETATM   17  C4  UNL     1      22.372   2.661  48.024  1.00  0.00     0.013 C 
HETATM   18  C5  UNL     1      21.884   1.408  48.586  1.00  0.00     0.014 C 
HETATM   19  C6  UNL     1      22.149   1.433  49.883  1.00  0.00    -0.009 C 
BRANCH  16  20
HETATM   20  C2  UNL     1      23.747   4.465  48.901  1.00  0.00    -0.014 C 
HETATM   21  C1  UNL     1      24.976   4.880  49.053  1.00  0.00     0.032 C 
ENDBRANCH  16  20
ENDBRANCH   1  15
TORSDOF 5
ENDMDL
MODEL 7
REMARK VINA RESULT:      -7.1      2.675      5.573
REMARK  5 active torsions:
REMARK  status: ('A' for Active; 'I' for Inactive)
REMARK    1  A    between atoms: C2_2  and  C3_3 
REMARK    2  A    between atoms: C7_7  and  C8_8 
REMARK    3  A    between atoms: C9_11  and  C10_12 
REMARK    4  A    between atoms: C15_17  and  O1_18 
REMARK    5  A    between atoms: O1_18  and  C16_19 
ROOT
HETATM    1  C8  UNL     1      23.926   2.683  50.058  1.00  0.00     0.204 A 
HETATM    2  N1  UNL     1      22.822   2.229  49.438  1.00  0.00    -0.121 NA
HETATM    3  N2  UNL     1      22.195   1.488  50.332  1.00  0.00    -0.121 NA
HETATM    4  C9  UNL     1      22.914   1.501  51.468  1.00  0.00     0.205 A 
HETATM    5  O2  UNL     1      23.995   2.242  51.312  1.00  0.00    -0.268 OA
ENDROOT
BRANCH   4   6
HETATM    6  C10 UNL     1      22.493   0.775  52.661  1.00  0.00     0.052 A 
HETATM    7  C11 UNL     1      21.259   0.963  53.276  1.00  0.00     0.019 A 
HETATM    8  C12 UNL     1      20.913   0.252  54.402  1.00  0.00     0.001 A 
HETATM    9  C13 UNL     1      21.773  -0.672  54.959  1.00  0.00     0.003 A 
HETATM   10  C14 UNL     1      23.012  -0.890  54.376  1.00  0.00     0.038 A 
HETATM   11  C15 UNL     1      23.326  -0.158  53.249  1.00  0.00     0.083 A 
BRANCH  11  12
HETATM   12  O1  UNL     1      24.546  -0.364  52.665  1.00  0.00    -0.350 OA
BRANCH  12  13
HETATM   13  C16 UNL     1      25.816  -0.340  53.195  1.00  0.00     0.171 C 
HETATM   14  C17 UNL     1      26.819   0.479  52.447  1.00  0.00     0.034 C 
ENDBRANCH  12  13
ENDBRANCH  11  12
ENDBRANCH   4   6
BRANCH   1  15
HETATM   15  C7  UNL     1      24.999   3.546  49.580  1.00  0.00     0.040 C 
HETATM   16  C3  UNL     1      24.946   4.902  49.044  1.00  0.00    -0.024 C 
HETATM   17  C4  UNL     1      26.162   5.411  48.919  1.00  0.00     0.013 C 
HETATM   18  C5  UNL     1      27.039   4.345  49.388  1.00  0.00     0.014 C 
HETATM   19  C6  UNL     1      26.293   3.262  49.533  1.00  0.00    -0.009 C 
BRANCH  16  20
HETATM   20  C2  UNL     1      23.749   5.615  48.694  1.00  0.00    -0.014 C 
HETATM   21  C1  UNL     1      22.871   5.544  47.731  1.00  0.00     0.032 C 
ENDBRANCH  16  20
ENDBRANCH   1  15
TORSDOF 5
ENDMDL
MODEL 8
REMARK VINA RESULT:      -7.1      2.965      5.698
REMARK  5 active torsions:
REMARK  status: ('A' for Active; 'I' for Inactive)
REMARK    1  A    between atoms: C2_2  and  C3_3 
REMARK    2  A    between atoms: C7_7  and  C8_8 
REMARK    3  A    between atoms: C9_11  and  C10_12 
REMARK    4  A    between atoms: C15_17  and  O1_18 
REMARK    5  A    between atoms: O1_18  and  C16_19 
ROOT
HETATM    1  C8  UNL     1      24.922   4.293  50.499  1.00  0.00     0.204 A 
HETATM    2  N1  UNL     1      24.111   4.962  51.338  1.00  0.00    -0.121 NA
HETATM    3  N2  UNL     1      23.401   4.036  51.955  1.00  0.00    -0.121 NA
HETATM    4  C9  UNL     1      23.783   2.834  51.490  1.00  0.00     0.205 A 
HETATM    5  O2  UNL     1      24.730   2.978  50.583  1.00  0.00    -0.268 OA
ENDROOT
BRANCH   4   6
HETATM    6  C10 UNL     1      23.189   1.591  51.971  1.00  0.00     0.052 A 
HETATM    7  C11 UNL     1      21.982   1.085  51.494  1.00  0.00     0.019 A 
HETATM    8  C12 UNL     1      21.465  -0.092  51.983  1.00  0.00     0.001 A 
HETATM    9  C13 UNL     1      22.123  -0.812  52.959  1.00  0.00     0.003 A 
HETATM   10  C14 UNL     1      23.327  -0.344  53.460  1.00  0.00     0.038 A 
HETATM   11  C15 UNL     1      23.816   0.840  52.947  1.00  0.00     0.083 A 
BRANCH  11  12
HETATM   12  O1  UNL     1      25.004   1.313  53.433  1.00  0.00    -0.350 OA
BRANCH  12  13
HETATM   13  C16 UNL     1      26.279   0.803  53.351  1.00  0.00     0.171 C 
HETATM   14  C17 UNL     1      26.698   0.307  52.004  1.00  0.00     0.034 C 
ENDBRANCH  12  13
ENDBRANCH  11  12
ENDBRANCH   4   6
BRANCH   1  15
HETATM   15  C7  UNL     1      25.929   4.776  49.562  1.00  0.00     0.040 C 
HETATM   16  C3  UNL     1      25.996   6.031  48.821  1.00  0.00    -0.024 C 
HETATM   17  C4  UNL     1      27.176   6.174  48.236  1.00  0.00     0.013 C 
HETATM   18  C5  UNL     1      27.901   4.966  48.610  1.00  0.00     0.014 C 
HETATM   19  C6  UNL     1      27.030   4.148  49.178  1.00  0.00    -0.009 C 
BRANCH  16  20
HETATM   20  C2  UNL     1      24.941   7.001  48.724  1.00  0.00    -0.014 C 
HETATM   21  C1  UNL     1      24.216   7.494  47.756  1.00  0.00     0.032 C 
ENDBRANCH  16  20
ENDBRANCH   1  15
TORSDOF 5
ENDMDL
MODEL 9
REMARK VINA RESULT:      -7.0      2.349      6.630
REMARK  5 active torsions:
REMARK  status: ('A' for Active; 'I' for Inactive)
REMARK    1  A    between atoms: C2_2  and  C3_3 
REMARK    2  A    between atoms: C7_7  and  C8_8 
REMARK    3  A    between atoms: C9_11  and  C10_12 
REMARK    4  A    between atoms: C15_17  and  O1_18 
REMARK    5  A    between atoms: O1_18  and  C16_19 
ROOT
HETATM    1  C8  UNL     1      21.128  -0.879  53.861  1.00  0.00     0.204 A 
HETATM    2  N1  UNL     1      21.678  -1.312  55.009  1.00  0.00    -0.121 NA
HETATM    3  N2  UNL     1      22.970  -1.069  54.895  1.00  0.00    -0.121 NA
HETATM    4  C9  UNL     1      23.186  -0.498  53.697  1.00  0.00     0.205 A 
HETATM    5  O2  UNL     1      22.048  -0.374  53.042  1.00  0.00    -0.268 OA
ENDROOT
BRANCH   4   6
HETATM    6  C10 UNL     1      24.519  -0.101  53.256  1.00  0.00     0.052 A 
HETATM    7  C11 UNL     1      25.567  -1.000  53.083  1.00  0.00     0.019 A 
HETATM    8  C12 UNL     1      26.806  -0.571  52.665  1.00  0.00     0.001 A 
HETATM    9  C13 UNL     1      27.052   0.761  52.402  1.00  0.00     0.003 A 
HETATM   10  C14 UNL     1      26.034   1.688  52.561  1.00  0.00     0.038 A 
HETATM   11  C15 UNL     1      24.805   1.223  52.982  1.00  0.00     0.083 A 
BRANCH  11  12
HETATM   12  O1  UNL     1      23.793   2.129  53.143  1.00  0.00    -0.350 OA
BRANCH  12  13
HETATM   13  C16 UNL     1      23.246   3.037  52.265  1.00  0.00     0.171 C 
HETATM   14  C17 UNL     1      23.378   4.476  52.649  1.00  0.00     0.034 C 
ENDBRANCH  12  13
ENDBRANCH  11  12
ENDBRANCH   4   6
BRANCH   1  15
HETATM   15  C7  UNL     1      19.742  -0.882  53.409  1.00  0.00     0.040 C 
HETATM   16  C3  UNL     1      19.073  -0.035  52.426  1.00  0.00    -0.024 C 
HETATM   17  C4  UNL     1      17.862  -0.493  52.150  1.00  0.00     0.013 C 
HETATM   18  C5  UNL     1      17.738  -1.681  52.986  1.00  0.00     0.014 C 
HETATM   19  C6  UNL     1      18.770  -1.685  53.815  1.00  0.00    -0.009 C 
BRANCH  16  20
HETATM   20  C2  UNL     1      19.632   1.142  51.821  1.00  0.00    -0.014 C 
HETATM   21  C1  UNL     1      19.575   2.426  52.055  1.00  0.00     0.032 C 
ENDBRANCH  16  20
ENDBRANCH   1  15
TORSDOF 5
ENDMDL
