MODEL 1
REMARK VINA RESULT:      -6.9      0.000      0.000
REMARK  6 active torsions:
REMARK  status: ('A' for Active; 'I' for Inactive)
REMARK    1  A    between atoms: C2_2  and  C3_3 
REMARK    2  A    between atoms: C3_3  and  C4_4 
REMARK    3  A    between atoms: C4_4  and  C5_5 
REMARK    4  A    between atoms: N1_6  and  C6_7 
REMARK    5  A    between atoms: C6_7  and  C7_8 
REMARK    6  A    between atoms: C9_10  and  C10_11 
ROOT
HETATM    1  C7  UNL     1      24.187  -0.962  55.041  1.00  0.00     0.084 A 
HETATM    2  C8  UNL     1      24.671  -0.072  54.072  1.00  0.00     0.066 A 
HETATM    3  C9  UNL     1      26.019   0.218  54.341  1.00  0.00     0.088 A 
HETATM    4  O1  UNL     1      26.261  -0.490  55.418  1.00  0.00    -0.217 OA
HETATM    5  N3  UNL     1      25.250  -1.159  55.828  1.00  0.00    -0.131 NA
ENDROOT
BRANCH   3   6
HETATM    6  C10 UNL     1      26.688   1.130  53.432  1.00  0.00     0.080 A 
HETATM    7  C11 UNL     1      27.103   0.436  52.103  1.00  0.00     0.033 A 
HETATM    8  C12 UNL     1      27.790   1.037  53.075  1.00  0.00     0.035 A 
HETATM    9  C13 UNL     1      28.480   2.367  53.558  1.00  0.00     0.034 A 
HETATM   10  N2  UNL     1      28.317  -0.510  53.170  1.00  0.00    -0.407 N 
HETATM   11  C14 UNL     1      28.223   1.335  53.809  1.00  0.00     0.018 A 
HETATM   12  C15 UNL     1      29.025   0.181  54.327  1.00  0.00     0.130 A 
HETATM   13  C16 UNL     1      28.750  -1.850  53.222  1.00  0.00     0.144 C 
ENDBRANCH   3   6
BRANCH   1  14
HETATM   14  C6  UNL     1      22.809  -1.523  55.156  1.00  0.00     0.209 C 
BRANCH  14  15
HETATM   15  N1  UNL     1      22.107  -1.250  53.910  1.00  0.00    -0.300 NA
HETATM   16  C5  UNL     1      21.207  -0.345  53.840  1.00  0.00     0.083 C 
BRANCH  16  17
HETATM   17  C4  UNL     1      20.449  -0.011  52.606  1.00  0.00     0.046 C 
BRANCH  17  18
HETATM   18  C3  UNL     1      21.407   0.270  51.476  1.00  0.00     0.005 C 
BRANCH  18  19
HETATM   19  C2  UNL     1      22.096   1.583  51.805  1.00  0.00    -0.004 C 
HETATM   20  C1  UNL     1      23.390   1.759  51.082  1.00  0.00     0.005 C 
ENDBRANCH  18  19
ENDBRANCH  17  18
ENDBRANCH  16  17
ENDBRANCH  14  15
ENDBRANCH   1  14
TORSDOF 6
ENDMDL
MODEL 2
REMARK VINA RESULT:      -6.8      3.800      5.616
REMARK  6 active torsions:
REMARK  status: ('A' for Active; 'I' for Inactive)
REMARK    1  A    between atoms: C2_2  and  C3_3 
REMARK    2  A    between atoms: C3_3  and  C4_4 
REMARK    3  A    between atoms: C4_4  and  C5_5 
REMARK    4  A    between atoms: N1_6  and  C6_7 
REMARK    5  A    between atoms: C6_7  and  C7_8 
REMARK    6  A    between atoms: C9_10  and  C10_11 
ROOT
HETATM    1  C7  UNL     1      24.656   2.689  51.395  1.00  0.00     0.084 A 
HETATM    2  C8  UNL     1      25.902   2.054  51.502  1.00  0.00     0.066 A 
HETATM    3  C9  UNL     1      25.726   0.785  52.081  1.00  0.00     0.088 A 
HETATM    4  O1  UNL     1      24.432   0.731  52.281  1.00  0.00    -0.217 OA
HETATM    5  N3  UNL     1      23.812   1.786  51.904  1.00  0.00    -0.131 NA
ENDROOT
BRANCH   3   6
HETATM    6  C10 UNL     1      26.919  -0.019  52.269  1.00  0.00     0.080 A 
HETATM    7  C11 UNL     1      26.582  -1.497  52.624  1.00  0.00     0.033 A 
HETATM    8  C12 UNL     1      27.238  -0.528  53.265  1.00  0.00     0.035 A 
HETATM    9  C13 UNL     1      28.642   0.098  53.602  1.00  0.00     0.034 A 
HETATM   10  N2  UNL     1      25.947  -0.790  54.238  1.00  0.00    -0.407 N 
HETATM   11  C14 UNL     1      27.558   0.185  53.715  1.00  0.00     0.018 A 
HETATM   12  C15 UNL     1      26.668   0.372  54.905  1.00  0.00     0.130 A 
HETATM   13  C16 UNL     1      24.826  -1.043  55.052  1.00  0.00     0.144 C 
ENDBRANCH   3   6
BRANCH   1  14
HETATM   14  C6  UNL     1      24.371   4.052  50.859  1.00  0.00     0.209 C 
BRANCH  14  15
HETATM   15  N1  UNL     1      25.455   4.415  49.957  1.00  0.00    -0.300 NA
HETATM   16  C5  UNL     1      25.663   5.632  49.626  1.00  0.00     0.083 C 
BRANCH  16  17
HETATM   17  C4  UNL     1      26.746   6.078  48.712  1.00  0.00     0.046 C 
BRANCH  17  18
HETATM   18  C3  UNL     1      27.785   4.993  48.579  1.00  0.00     0.005 C 
BRANCH  18  19
HETATM   19  C2  UNL     1      29.074   5.674  48.154  1.00  0.00    -0.004 C 
HETATM   20  C1  UNL     1      28.873   7.091  47.727  1.00  0.00     0.005 C 
ENDBRANCH  18  19
ENDBRANCH  17  18
ENDBRANCH  16  17
ENDBRANCH  14  15
ENDBRANCH   1  14
TORSDOF 6
ENDMDL
MODEL 3
REMARK VINA RESULT:      -6.7      2.289      6.658
REMARK  6 active torsions:
REMARK  status: ('A' for Active; 'I' for Inactive)
REMARK    1  A    between atoms: C2_2  and  C3_3 
REMARK    2  A    between atoms: C3_3  and  C4_4 
REMARK    3  A    between atoms: C4_4  and  C5_5 
REMARK    4  A    between atoms: N1_6  and  C6_7 
REMARK    5  A    between atoms: C6_7  and  C7_8 
REMARK    6  A    between atoms: C9_10  and  C10_11 
ROOT
HETATM    1  C7  UNL     1      25.411   2.259  52.086  1.00  0.00     0.084 A 
HETATM    2  C8  UNL     1      24.910   1.094  52.685  1.00  0.00     0.066 A 
HETATM    3  C9  UNL     1      23.570   1.305  53.057  1.00  0.00     0.088 A 
HETATM    4  O1  UNL     1      23.351   2.539  52.673  1.00  0.00    -0.217 OA
HETATM    5  N3  UNL     1      24.367   3.093  52.126  1.00  0.00    -0.131 NA
ENDROOT
BRANCH   3   6
HETATM    6  C10 UNL     1      22.887   0.196  53.696  1.00  0.00     0.080 A 
HETATM    7  C11 UNL     1      22.576  -0.957  52.698  1.00  0.00     0.033 A 
HETATM    8  C12 UNL     1      21.809  -0.163  53.447  1.00  0.00     0.035 A 
HETATM    9  C13 UNL     1      21.015  -0.009  54.797  1.00  0.00     0.034 A 
HETATM   10  N2  UNL     1      21.379   0.258  51.924  1.00  0.00    -0.407 N 
HETATM   11  C14 UNL     1      21.326   0.472  53.866  1.00  0.00     0.018 A 
HETATM   12  C15 UNL     1      20.577   1.211  52.799  1.00  0.00     0.130 A 
HETATM   13  C16 UNL     1      21.031   0.594  50.601  1.00  0.00     0.144 C 
ENDBRANCH   3   6
BRANCH   1  14
HETATM   14  C6  UNL     1      26.787   2.492  51.559  1.00  0.00     0.209 C 
BRANCH  14  15
HETATM   15  N1  UNL     1      27.721   1.756  52.399  1.00  0.00    -0.300 NA
HETATM   16  C5  UNL     1      28.266   2.299  53.419  1.00  0.00     0.083 C 
BRANCH  16  17
HETATM   17  C4  UNL     1      29.227   1.611  54.321  1.00  0.00     0.046 C 
BRANCH  17  18
HETATM   18  C3  UNL     1      28.787   0.188  54.551  1.00  0.00     0.005 C 
BRANCH  18  19
HETATM   19  C2  UNL     1      29.806  -0.700  53.859  1.00  0.00    -0.004 C 
HETATM   20  C1  UNL     1      29.193  -1.901  53.217  1.00  0.00     0.005 C 
ENDBRANCH  18  19
ENDBRANCH  17  18
ENDBRANCH  16  17
ENDBRANCH  14  15
ENDBRANCH   1  14
TORSDOF 6
ENDMDL
MODEL 4
REMARK VINA RESULT:      -6.6      1.706      2.782
REMARK  6 active torsions:
REMARK  status: ('A' for Active; 'I' for Inactive)
REMARK    1  A    between atoms: C2_2  and  C3_3 
REMARK    2  A    between atoms: C3_3  and  C4_4 
REMARK    3  A    between atoms: C4_4  and  C5_5 
REMARK    4  A    between atoms: N1_6  and  C6_7 
REMARK    5  A    between atoms: C6_7  and  C7_8 
REMARK    6  A    between atoms: C9_10  and  C10_11 
ROOT
HETATM    1  C7  UNL     1      23.200  -0.867  54.655  1.00  0.00     0.084 A 
HETATM    2  C8  UNL     1      23.796  -0.508  53.438  1.00  0.00     0.066 A 
HETATM    3  C9  UNL     1      25.190  -0.664  53.542  1.00  0.00     0.088 A 
HETATM    4  O1  UNL     1      25.345  -1.093  54.770  1.00  0.00    -0.217 OA
HETATM    5  N3  UNL     1      24.246  -1.215  55.414  1.00  0.00    -0.131 NA
ENDROOT
BRANCH   3   6
HETATM    6  C10 UNL     1      25.974  -0.336  52.366  1.00  0.00     0.080 A 
HETATM    7  C11 UNL     1      27.403  -0.950  52.422  1.00  0.00     0.033 A 
HETATM    8  C12 UNL     1      26.947   0.302  52.363  1.00  0.00     0.035 A 
HETATM    9  C13 UNL     1      26.616   1.529  51.434  1.00  0.00     0.034 A 
HETATM   10  N2  UNL     1      27.689   0.261  53.821  1.00  0.00    -0.407 N 
HETATM   11  C14 UNL     1      26.598   1.129  52.451  1.00  0.00     0.018 A 
HETATM   12  C15 UNL     1      27.085   1.658  53.765  1.00  0.00     0.130 A 
HETATM   13  C16 UNL     1      28.339   0.192  55.069  1.00  0.00     0.144 C 
ENDBRANCH   3   6
BRANCH   1  14
HETATM   14  C6  UNL     1      21.750  -0.838  55.003  1.00  0.00     0.209 C 
BRANCH  14  15
HETATM   15  N1  UNL     1      21.077   0.035  54.051  1.00  0.00    -0.300 NA
HETATM   16  C5  UNL     1      20.088  -0.379  53.355  1.00  0.00     0.083 C 
BRANCH  16  17
HETATM   17  C4  UNL     1      19.354   0.452  52.366  1.00  0.00     0.046 C 
BRANCH  17  18
HETATM   18  C3  UNL     1      18.277  -0.370  51.704  1.00  0.00     0.005 C 
BRANCH  18  19
HETATM   19  C2  UNL     1      17.571  -1.135  52.810  1.00  0.00    -0.004 C 
HETATM   20  C1  UNL     1      16.221  -1.631  52.406  1.00  0.00     0.005 C 
ENDBRANCH  18  19
ENDBRANCH  17  18
ENDBRANCH  16  17
ENDBRANCH  14  15
ENDBRANCH   1  14
TORSDOF 6
ENDMDL
MODEL 5
REMARK VINA RESULT:      -6.6      2.039      3.489
REMARK  6 active torsions:
REMARK  status: ('A' for Active; 'I' for Inactive)
REMARK    1  A    between atoms: C2_2  and  C3_3 
REMARK    2  A    between atoms: C3_3  and  C4_4 
REMARK    3  A    between atoms: C4_4  and  C5_5 
REMARK    4  A    between atoms: N1_6  and  C6_7 
REMARK    5  A    between atoms: C6_7  and  C7_8 
REMARK    6  A    between atoms: C9_10  and  C10_11 
ROOT
HETATM    1  C7  UNL     1      23.321   2.417  52.057  1.00  0.00     0.084 A 
HETATM    2  C8  UNL     1      23.839   1.141  52.317  1.00  0.00     0.066 A 
HETATM    3  C9  UNL     1      24.813   1.234  53.326  1.00  0.00     0.088 A 
HETATM    4  O1  UNL     1      24.825   2.514  53.604  1.00  0.00    -0.217 OA
HETATM    5  N3  UNL     1      23.997   3.198  52.907  1.00  0.00    -0.131 NA
ENDROOT
BRANCH   3   6
HETATM    6  C10 UNL     1      25.460  -0.002  53.727  1.00  0.00     0.080 A 
HETATM    7  C11 UNL     1      26.507   0.222  54.857  1.00  0.00     0.033 A 
HETATM    8  C12 UNL     1      26.593  -0.238  53.607  1.00  0.00     0.035 A 
HETATM    9  C13 UNL     1      26.639  -1.512  52.685  1.00  0.00     0.034 A 
HETATM   10  N2  UNL     1      27.482   1.135  53.544  1.00  0.00    -0.407 N 
HETATM   11  C14 UNL     1      26.627  -0.420  52.725  1.00  0.00     0.018 A 
HETATM   12  C15 UNL     1      27.494   0.633  52.107  1.00  0.00     0.130 A 
HETATM   13  C16 UNL     1      28.243   2.321  53.525  1.00  0.00     0.144 C 
ENDBRANCH   3   6
BRANCH   1  14
HETATM   14  C6  UNL     1      22.283   2.792  51.053  1.00  0.00     0.209 C 
BRANCH  14  15
HETATM   15  N1  UNL     1      21.214   1.806  51.123  1.00  0.00    -0.300 NA
HETATM   16  C5  UNL     1      20.584   1.586  52.214  1.00  0.00     0.083 C 
BRANCH  16  17
HETATM   17  C4  UNL     1      19.485   0.597  52.361  1.00  0.00     0.046 C 
BRANCH  17  18
HETATM   18  C3  UNL     1      19.912  -0.510  53.291  1.00  0.00     0.005 C 
BRANCH  18  19
HETATM   19  C2  UNL     1      20.821   0.120  54.331  1.00  0.00    -0.004 C 
HETATM   20  C1  UNL     1      21.856  -0.824  54.849  1.00  0.00     0.005 C 
ENDBRANCH  18  19
ENDBRANCH  17  18
ENDBRANCH  16  17
ENDBRANCH  14  15
ENDBRANCH   1  14
TORSDOF 6
ENDMDL
MODEL 6
REMARK VINA RESULT:      -6.5      3.601      5.249
REMARK  6 active torsions:
REMARK  status: ('A' for Active; 'I' for Inactive)
REMARK    1  A    between atoms: C2_2  and  C3_3 
REMARK    2  A    between atoms: C3_3  and  C4_4 
REMARK    3  A    between atoms: C4_4  and  C5_5 
REMARK    4  A    between atoms: N1_6  and  C6_7 
REMARK    5  A    between atoms: C6_7  and  C7_8 
REMARK    6  A    between atoms: C9_10  and  C10_11 
ROOT
HETATM    1  C7  UNL     1      23.862   2.822  51.720  1.00  0.00     0.084 A 
HETATM    2  C8  UNL     1      24.309   1.510  51.923  1.00  0.00     0.066 A 
HETATM    3  C9  UNL     1      24.895   1.411  53.197  1.00  0.00     0.088 A 
HETATM    4  O1  UNL     1      24.769   2.627  53.671  1.00  0.00    -0.217 OA
HETATM    5  N3  UNL     1      24.193   3.435  52.862  1.00  0.00    -0.131 NA
ENDROOT
BRANCH   3   6
HETATM    6  C10 UNL     1      25.417   0.113  53.579  1.00  0.00     0.080 A 
HETATM    7  C11 UNL     1      26.357   0.198  54.816  1.00  0.00     0.033 A 
HETATM    8  C12 UNL     1      26.538  -0.195  53.555  1.00  0.00     0.035 A 
HETATM    9  C13 UNL     1      26.596  -1.415  52.562  1.00  0.00     0.034 A 
HETATM   10  N2  UNL     1      27.516   1.113  53.665  1.00  0.00    -0.407 N 
HETATM   11  C14 UNL     1      26.650  -0.329  52.669  1.00  0.00     0.018 A 
HETATM   12  C15 UNL     1      27.640   0.694  52.206  1.00  0.00     0.130 A 
HETATM   13  C16 UNL     1      28.350   2.241  53.795  1.00  0.00     0.144 C 
ENDBRANCH   3   6
BRANCH   1  14
HETATM   14  C6  UNL     1      23.198   3.382  50.507  1.00  0.00     0.209 C 
BRANCH  14  15
HETATM   15  N1  UNL     1      24.238   3.834  49.594  1.00  0.00    -0.300 NA
HETATM   16  C5  UNL     1      24.916   4.891  49.832  1.00  0.00     0.083 C 
BRANCH  16  17
HETATM   17  C4  UNL     1      25.991   5.414  48.949  1.00  0.00     0.046 C 
BRANCH  17  18
HETATM   18  C3  UNL     1      27.171   4.476  48.966  1.00  0.00     0.005 C 
BRANCH  18  19
HETATM   19  C2  UNL     1      28.355   5.254  48.418  1.00  0.00    -0.004 C 
HETATM   20  C1  UNL     1      28.014   6.665  48.068  1.00  0.00     0.005 C 
ENDBRANCH  18  19
ENDBRANCH  17  18
ENDBRANCH  16  17
ENDBRANCH  14  15
ENDBRANCH   1  14
TORSDOF 6
ENDMDL
MODEL 7
REMARK VINA RESULT:      -6.3      4.177      6.394
REMARK  6 active torsions:
REMARK  status: ('A' for Active; 'I' for Inactive)
REMARK    1  A    between atoms: C2_2  and  C3_3 
REMARK    2  A    between atoms: C3_3  and  C4_4 
REMARK    3  A    between atoms: C4_4  and  C5_5 
REMARK    4  A    between atoms: N1_6  and  C6_7 
REMARK    5  A    between atoms: C6_7  and  C7_8 
REMARK    6  A    between atoms: C9_10  and  C10_11 
ROOT
HETATM    1  C7  UNL     1      26.140   2.923  50.867  1.00  0.00     0.084 A 
HETATM    2  C8  UNL     1      25.391   2.232  51.830  1.00  0.00     0.066 A 
HETATM    3  C9  UNL     1      26.256   1.737  52.821  1.00  0.00     0.088 A 
HETATM    4  O1  UNL     1      27.433   2.144  52.412  1.00  0.00    -0.217 OA
HETATM    5  N3  UNL     1      27.393   2.811  51.320  1.00  0.00    -0.131 NA
ENDROOT
BRANCH   3   6
HETATM    6  C10 UNL     1      25.649   0.990  53.906  1.00  0.00     0.080 A 
HETATM    7  C11 UNL     1      26.689   0.566  54.983  1.00  0.00     0.033 A 
HETATM    8  C12 UNL     1      25.880  -0.118  54.173  1.00  0.00     0.035 A 
HETATM    9  C13 UNL     1      24.500  -0.860  54.027  1.00  0.00     0.034 A 
HETATM   10  N2  UNL     1      27.367  -0.558  53.647  1.00  0.00    -0.407 N 
HETATM   11  C14 UNL     1      25.416  -0.540  53.525  1.00  0.00     0.018 A 
HETATM   12  C15 UNL     1      26.423  -1.261  52.682  1.00  0.00     0.130 A 
HETATM   13  C16 UNL     1      28.661  -0.916  53.221  1.00  0.00     0.144 C 
ENDBRANCH   3   6
BRANCH   1  14
HETATM   14  C6  UNL     1      25.639   3.594  49.632  1.00  0.00     0.209 C 
BRANCH  14  15
HETATM   15  N1  UNL     1      26.758   4.291  49.014  1.00  0.00    -0.300 NA
HETATM   16  C5  UNL     1      26.729   5.554  48.822  1.00  0.00     0.083 C 
BRANCH  16  17
HETATM   17  C4  UNL     1      27.831   6.332  48.198  1.00  0.00     0.046 C 
BRANCH  17  18
HETATM   18  C3  UNL     1      29.123   5.562  48.297  1.00  0.00     0.005 C 
BRANCH  18  19
HETATM   19  C2  UNL     1      30.176   6.380  47.569  1.00  0.00    -0.004 C 
HETATM   20  C1  UNL     1      29.716   7.763  47.242  1.00  0.00     0.005 C 
ENDBRANCH  18  19
ENDBRANCH  17  18
ENDBRANCH  16  17
ENDBRANCH  14  15
ENDBRANCH   1  14
TORSDOF 6
ENDMDL
MODEL 8
REMARK VINA RESULT:      -6.2      2.268      6.799
REMARK  6 active torsions:
REMARK  status: ('A' for Active; 'I' for Inactive)
REMARK    1  A    between atoms: C2_2  and  C3_3 
REMARK    2  A    between atoms: C3_3  and  C4_4 
REMARK    3  A    between atoms: C4_4  and  C5_5 
REMARK    4  A    between atoms: N1_6  and  C6_7 
REMARK    5  A    between atoms: C6_7  and  C7_8 
REMARK    6  A    between atoms: C9_10  and  C10_11 
ROOT
HETATM    1  C7  UNL     1      25.423   2.470  52.012  1.00  0.00     0.084 A 
HETATM    2  C8  UNL     1      24.269   2.363  51.223  1.00  0.00     0.066 A 
HETATM    3  C9  UNL     1      23.137   2.367  52.057  1.00  0.00     0.088 A 
HETATM    4  O1  UNL     1      23.657   2.473  53.255  1.00  0.00    -0.217 OA
HETATM    5  N3  UNL     1      24.935   2.533  53.255  1.00  0.00    -0.131 NA
ENDROOT
BRANCH   3   6
HETATM    6  C10 UNL     1      21.844   2.263  51.406  1.00  0.00     0.080 A 
HETATM    7  C11 UNL     1      20.666   2.404  52.413  1.00  0.00     0.033 A 
HETATM    8  C12 UNL     1      21.061   1.426  51.596  1.00  0.00     0.035 A 
HETATM    9  C13 UNL     1      20.866   0.736  50.195  1.00  0.00     0.034 A 
HETATM   10  N2  UNL     1      21.255   0.754  53.076  1.00  0.00    -0.407 N 
HETATM   11  C14 UNL     1      21.432   0.749  51.129  1.00  0.00     0.018 A 
HETATM   12  C15 UNL     1      21.780  -0.314  52.127  1.00  0.00     0.130 A 
HETATM   13  C16 UNL     1      21.408   0.207  54.365  1.00  0.00     0.144 C 
ENDBRANCH   3   6
BRANCH   1  14
HETATM   14  C6  UNL     1      26.842   2.486  51.552  1.00  0.00     0.209 C 
BRANCH  14  15
HETATM   15  N1  UNL     1      27.631   1.716  52.504  1.00  0.00    -0.300 NA
HETATM   16  C5  UNL     1      28.434   2.289  53.317  1.00  0.00     0.083 C 
BRANCH  16  17
HETATM   17  C4  UNL     1      29.270   1.570  54.314  1.00  0.00     0.046 C 
BRANCH  17  18
HETATM   18  C3  UNL     1      28.760   0.163  54.493  1.00  0.00     0.005 C 
BRANCH  18  19
HETATM   19  C2  UNL     1      29.792  -0.758  53.868  1.00  0.00    -0.004 C 
HETATM   20  C1  UNL     1      29.184  -1.947  53.198  1.00  0.00     0.005 C 
ENDBRANCH  18  19
ENDBRANCH  17  18
ENDBRANCH  16  17
ENDBRANCH  14  15
ENDBRANCH   1  14
TORSDOF 6
ENDMDL
MODEL 9
REMARK VINA RESULT:      -6.2      2.099      3.405
REMARK  6 active torsions:
REMARK  status: ('A' for Active; 'I' for Inactive)
REMARK    1  A    between atoms: C2_2  and  C3_3 
REMARK    2  A    between atoms: C3_3  and  C4_4 
REMARK    3  A    between atoms: C4_4  and  C5_5 
REMARK    4  A    between atoms: N1_6  and  C6_7 
REMARK    5  A    between atoms: C6_7  and  C7_8 
REMARK    6  A    between atoms: C9_10  and  C10_11 
ROOT
HETATM    1  C7  UNL     1      24.182   2.903  51.757  1.00  0.00     0.084 A 
HETATM    2  C8  UNL     1      25.177   1.976  51.416  1.00  0.00     0.066 A 
HETATM    3  C9  UNL     1      25.991   1.737  52.538  1.00  0.00     0.088 A 
HETATM    4  O1  UNL     1      25.457   2.506  53.455  1.00  0.00    -0.217 OA
HETATM    5  N3  UNL     1      24.442   3.168  53.042  1.00  0.00    -0.131 NA
ENDROOT
BRANCH   3   6
HETATM    6  C10 UNL     1      27.081   0.796  52.367  1.00  0.00     0.080 A 
HETATM    7  C11 UNL     1      26.575  -0.666  52.194  1.00  0.00     0.033 A 
HETATM    8  C12 UNL     1      27.348  -0.066  53.101  1.00  0.00     0.035 A 
HETATM    9  C13 UNL     1      28.820   0.244  53.563  1.00  0.00     0.034 A 
HETATM   10  N2  UNL     1      26.046  -0.518  53.985  1.00  0.00    -0.407 N 
HETATM   11  C14 UNL     1      27.756   0.401  53.756  1.00  0.00     0.018 A 
HETATM   12  C15 UNL     1      26.907   0.246  54.981  1.00  0.00     0.130 A 
HETATM   13  C16 UNL     1      24.912  -0.923  54.715  1.00  0.00     0.144 C 
ENDBRANCH   3   6
BRANCH   1  14
HETATM   14  C6  UNL     1      23.115   3.459  50.875  1.00  0.00     0.209 C 
BRANCH  14  15
HETATM   15  N1  UNL     1      22.192   2.381  50.552  1.00  0.00    -0.300 NA
HETATM   16  C5  UNL     1      21.445   1.856  51.447  1.00  0.00     0.083 C 
BRANCH  16  17
HETATM   17  C4  UNL     1      20.480   0.755  51.193  1.00  0.00     0.046 C 
BRANCH  17  18
HETATM   18  C3  UNL     1      20.251  -0.029  52.460  1.00  0.00     0.005 C 
BRANCH  18  19
HETATM   19  C2  UNL     1      21.495   0.145  53.312  1.00  0.00    -0.004 C 
HETATM   20  C1  UNL     1      21.289  -0.259  54.735  1.00  0.00     0.005 C 
ENDBRANCH  18  19
ENDBRANCH  17  18
ENDBRANCH  16  17
ENDBRANCH  14  15
ENDBRANCH   1  14
TORSDOF 6
ENDMDL
