MODEL 1
REMARK VINA RESULT:      -6.8      0.000      0.000
REMARK  6 active torsions:
REMARK  status: ('A' for Active; 'I' for Inactive)
REMARK    1  A    between atoms: C4_5  and  C5_6 
REMARK    2  A    between atoms: C6_7  and  S1_8 
REMARK    3  A    between atoms: S1_8  and  N1_11 
REMARK    4  A    between atoms: N1_11  and  C7_12 
REMARK    5  A    between atoms: C7_12  and  C9_14 
REMARK    6  A    between atoms: C9_14  and  C10_15 
ROOT
HETATM    1  C1  UNL     1      29.441   5.779  48.103  1.00  0.00     0.019 C 
HETATM    2  C2  UNL     1      28.313   5.463  48.416  1.00  0.00    -0.065 C 
HETATM    3  C3  UNL     1      26.970   5.096  48.764  1.00  0.00     0.086 C 
HETATM    4 CL1  UNL     1      25.603   6.160  48.499  1.00  0.00    -0.074 Cl
HETATM    5  C4  UNL     1      26.721   3.917  49.309  1.00  0.00     0.034 C 
ENDROOT
BRANCH   5   6
HETATM    6  C5  UNL     1      25.379   3.450  49.701  1.00  0.00     0.015 C 
HETATM    7  C6  UNL     1      24.823   3.728  50.892  1.00  0.00     0.131 C 
BRANCH   7   8
HETATM    8  S1  UNL     1      23.214   3.095  51.199  1.00  0.00     0.252 S 
HETATM    9  O1  UNL     1      22.677   3.780  52.417  1.00  0.00    -0.201 OA
HETATM   10  O2  UNL     1      22.286   3.448  50.071  1.00  0.00    -0.201 OA
BRANCH   8  11
HETATM   11  N1  UNL     1      23.266   1.374  51.420  1.00  0.00    -0.289 N 
HETATM   12  H5  UNL     1      23.187   0.729  50.602  1.00  0.00     0.178 HD
BRANCH  11  13
HETATM   13  C7  UNL     1      23.422   0.943  52.768  1.00  0.00    -0.001 C 
HETATM   14  C8  UNL     1      22.309   0.491  53.360  1.00  0.00     0.059 C 
BRANCH  13  15
HETATM   15  C9  UNL     1      24.767   1.043  53.340  1.00  0.00     0.064 C 
BRANCH  15  16
HETATM   16  C10 UNL     1      25.477  -0.279  53.516  1.00  0.00     0.044 C 
HETATM   17  C11 UNL     1      26.475  -0.001  54.614  1.00  0.00     0.005 C 
HETATM   18  C12 UNL     1      27.590   0.512  54.068  1.00  0.00     0.131 C 
HETATM   19  O3  UNL     1      27.355   0.574  52.686  1.00  0.00    -0.358 OA
HETATM   20  C13 UNL     1      26.485  -0.522  52.409  1.00  0.00     0.131 C 
HETATM   21  C14 UNL     1      27.248  -1.776  52.688  1.00  0.00     0.040 C 
ENDBRANCH  15  16
ENDBRANCH  13  15
ENDBRANCH  11  13
ENDBRANCH   8  11
ENDBRANCH   7   8
ENDBRANCH   5   6
TORSDOF 6
ENDMDL
MODEL 2
REMARK VINA RESULT:      -6.5      3.170      5.162
REMARK  6 active torsions:
REMARK  status: ('A' for Active; 'I' for Inactive)
REMARK    1  A    between atoms: C4_5  and  C5_6 
REMARK    2  A    between atoms: C6_7  and  S1_8 
REMARK    3  A    between atoms: S1_8  and  N1_11 
REMARK    4  A    between atoms: N1_11  and  C7_12 
REMARK    5  A    between atoms: C7_12  and  C9_14 
REMARK    6  A    between atoms: C9_14  and  C10_15 
ROOT
HETATM    1  C1  UNL     1      29.916  -1.119  53.800  1.00  0.00     0.019 C 
HETATM    2  C2  UNL     1      29.153  -0.225  53.501  1.00  0.00    -0.065 C 
HETATM    3  C3  UNL     1      28.270   0.847  53.140  1.00  0.00     0.086 C 
HETATM    4 CL1  UNL     1      28.532   2.500  53.659  1.00  0.00    -0.074 Cl
HETATM    5  C4  UNL     1      27.208   0.611  52.387  1.00  0.00     0.034 C 
ENDROOT
BRANCH   5   6
HETATM    6  C5  UNL     1      26.245   1.643  51.965  1.00  0.00     0.015 C 
HETATM    7  C6  UNL     1      26.485   2.508  50.965  1.00  0.00     0.131 C 
BRANCH   7   8
HETATM    8  S1  UNL     1      25.230   3.677  50.587  1.00  0.00     0.252 S 
HETATM    9  O1  UNL     1      25.894   4.910  50.063  1.00  0.00    -0.201 OA
HETATM   10  O2  UNL     1      24.352   3.165  49.480  1.00  0.00    -0.201 OA
BRANCH   8  11
HETATM   11  N1  UNL     1      24.279   4.028  51.996  1.00  0.00    -0.289 N 
HETATM   12  H5  UNL     1      24.729   4.121  52.934  1.00  0.00     0.178 HD
BRANCH  11  13
HETATM   13  C7  UNL     1      22.882   4.172  51.761  1.00  0.00    -0.001 C 
HETATM   14  C8  UNL     1      22.514   5.309  51.158  1.00  0.00     0.059 C 
BRANCH  13  15
HETATM   15  C9  UNL     1      22.022   3.070  52.202  1.00  0.00     0.064 C 
BRANCH  15  16
HETATM   16  C10 UNL     1      22.693   1.717  52.223  1.00  0.00     0.044 C 
HETATM   17  C11 UNL     1      22.047   0.983  51.073  1.00  0.00     0.005 C 
HETATM   18  C12 UNL     1      20.910   0.413  51.506  1.00  0.00     0.131 C 
HETATM   19  O3  UNL     1      20.801   0.743  52.865  1.00  0.00    -0.358 OA
HETATM   20  C13 UNL     1      22.146   0.839  53.332  1.00  0.00     0.131 C 
HETATM   21  C14 UNL     1      22.746  -0.525  53.239  1.00  0.00     0.040 C 
ENDBRANCH  15  16
ENDBRANCH  13  15
ENDBRANCH  11  13
ENDBRANCH   8  11
ENDBRANCH   7   8
ENDBRANCH   5   6
TORSDOF 6
ENDMDL
MODEL 3
REMARK VINA RESULT:      -6.4      3.625      6.142
REMARK  6 active torsions:
REMARK  status: ('A' for Active; 'I' for Inactive)
REMARK    1  A    between atoms: C4_5  and  C5_6 
REMARK    2  A    between atoms: C6_7  and  S1_8 
REMARK    3  A    between atoms: S1_8  and  N1_11 
REMARK    4  A    between atoms: N1_11  and  C7_12 
REMARK    5  A    between atoms: C7_12  and  C9_14 
REMARK    6  A    between atoms: C9_14  and  C10_15 
ROOT
HETATM    1  C1  UNL     1      30.001  -0.384  53.542  1.00  0.00     0.019 C 
HETATM    2  C2  UNL     1      28.831  -0.637  53.353  1.00  0.00    -0.065 C 
HETATM    3  C3  UNL     1      27.449  -0.960  53.137  1.00  0.00     0.086 C 
HETATM    4 CL1  UNL     1      26.940  -2.413  52.300  1.00  0.00    -0.074 Cl
HETATM    5  C4  UNL     1      26.499  -0.150  53.573  1.00  0.00     0.034 C 
ENDROOT
BRANCH   5   6
HETATM    6  C5  UNL     1      25.056  -0.394  53.400  1.00  0.00     0.015 C 
HETATM    7  C6  UNL     1      24.226  -0.651  54.425  1.00  0.00     0.131 C 
BRANCH   7   8
HETATM    8  S1  UNL     1      22.533  -0.919  54.045  1.00  0.00     0.252 S 
HETATM    9  O1  UNL     1      22.467  -1.768  52.815  1.00  0.00    -0.201 OA
HETATM   10  O2  UNL     1      21.867  -1.706  55.140  1.00  0.00    -0.201 OA
BRANCH   8  11
HETATM   11  N1  UNL     1      21.713   0.592  53.808  1.00  0.00    -0.289 N 
HETATM   12  H5  UNL     1      21.376   1.151  54.625  1.00  0.00     0.178 HD
BRANCH  11  13
HETATM   13  C7  UNL     1      21.550   0.984  52.449  1.00  0.00    -0.001 C 
HETATM   14  C8  UNL     1      20.419   0.573  51.863  1.00  0.00     0.059 C 
BRANCH  13  15
HETATM   15  C9  UNL     1      22.629   1.782  51.860  1.00  0.00     0.064 C 
BRANCH  15  16
HETATM   16  C10 UNL     1      22.182   3.086  51.239  1.00  0.00     0.044 C 
HETATM   17  C11 UNL     1      23.351   3.483  50.370  1.00  0.00     0.005 C 
HETATM   18  C12 UNL     1      24.239   4.157  51.118  1.00  0.00     0.131 C 
HETATM   19  O3  UNL     1      23.699   4.211  52.412  1.00  0.00    -0.358 OA
HETATM   20  C13 UNL     1      22.284   4.236  52.222  1.00  0.00     0.131 C 
HETATM   21  C14 UNL     1      21.952   5.519  51.534  1.00  0.00     0.040 C 
ENDBRANCH  15  16
ENDBRANCH  13  15
ENDBRANCH  11  13
ENDBRANCH   8  11
ENDBRANCH   7   8
ENDBRANCH   5   6
TORSDOF 6
ENDMDL
MODEL 4
REMARK VINA RESULT:      -6.3      2.933      5.833
REMARK  6 active torsions:
REMARK  status: ('A' for Active; 'I' for Inactive)
REMARK    1  A    between atoms: C4_5  and  C5_6 
REMARK    2  A    between atoms: C6_7  and  S1_8 
REMARK    3  A    between atoms: S1_8  and  N1_11 
REMARK    4  A    between atoms: N1_11  and  C7_12 
REMARK    5  A    between atoms: C7_12  and  C9_14 
REMARK    6  A    between atoms: C9_14  and  C10_15 
ROOT
HETATM    1  C1  UNL     1      17.850  -1.261  53.051  1.00  0.00     0.019 C 
HETATM    2  C2  UNL     1      18.608  -0.567  52.409  1.00  0.00    -0.065 C 
HETATM    3  C3  UNL     1      19.488   0.270  51.643  1.00  0.00     0.086 C 
HETATM    4 CL1  UNL     1      19.062   0.884  50.058  1.00  0.00    -0.074 Cl
HETATM    5  C4  UNL     1      20.673   0.608  52.123  1.00  0.00     0.034 C 
ENDROOT
BRANCH   5   6
HETATM    6  C5  UNL     1      21.643   1.460  51.415  1.00  0.00     0.015 C 
HETATM    7  C6  UNL     1      22.120   2.610  51.922  1.00  0.00     0.131 C 
BRANCH   7   8
HETATM    8  S1  UNL     1      23.272   3.507  50.947  1.00  0.00     0.252 S 
HETATM    9  O1  UNL     1      23.530   2.720  49.701  1.00  0.00    -0.201 OA
HETATM   10  O2  UNL     1      22.680   4.817  50.506  1.00  0.00    -0.201 OA
BRANCH   8  11
HETATM   11  N1  UNL     1      24.741   3.778  51.831  1.00  0.00    -0.289 N 
HETATM   12  H5  UNL     1      24.920   4.695  52.300  1.00  0.00     0.178 HD
BRANCH  11  13
HETATM   13  C7  UNL     1      25.642   2.676  51.857  1.00  0.00    -0.001 C 
HETATM   14  C8  UNL     1      26.581   2.678  50.903  1.00  0.00     0.059 C 
BRANCH  13  15
HETATM   15  C9  UNL     1      25.437   1.683  52.914  1.00  0.00     0.064 C 
BRANCH  15  16
HETATM   16  C10 UNL     1      25.553   0.246  52.461  1.00  0.00     0.044 C 
HETATM   17  C11 UNL     1      24.547  -0.480  53.321  1.00  0.00     0.005 C 
HETATM   18  C12 UNL     1      25.131  -0.813  54.484  1.00  0.00     0.131 C 
HETATM   19  O3  UNL     1      26.449  -0.340  54.409  1.00  0.00    -0.358 OA
HETATM   20  C13 UNL     1      26.793  -0.419  53.026  1.00  0.00     0.131 C 
HETATM   21  C14 UNL     1      26.803  -1.866  52.654  1.00  0.00     0.040 C 
ENDBRANCH  15  16
ENDBRANCH  13  15
ENDBRANCH  11  13
ENDBRANCH   8  11
ENDBRANCH   7   8
ENDBRANCH   5   6
TORSDOF 6
ENDMDL
MODEL 5
REMARK VINA RESULT:      -6.1      3.067      5.739
REMARK  6 active torsions:
REMARK  status: ('A' for Active; 'I' for Inactive)
REMARK    1  A    between atoms: C4_5  and  C5_6 
REMARK    2  A    between atoms: C6_7  and  S1_8 
REMARK    3  A    between atoms: S1_8  and  N1_11 
REMARK    4  A    between atoms: N1_11  and  C7_12 
REMARK    5  A    between atoms: C7_12  and  C9_14 
REMARK    6  A    between atoms: C9_14  and  C10_15 
ROOT
HETATM    1  C1  UNL     1      29.969  -0.892  53.465  1.00  0.00     0.019 C 
HETATM    2  C2  UNL     1      28.812  -0.542  53.562  1.00  0.00    -0.065 C 
HETATM    3  C3  UNL     1      27.450  -0.109  53.691  1.00  0.00     0.086 C 
HETATM    4 CL1  UNL     1      26.738   0.320  55.233  1.00  0.00    -0.074 Cl
HETATM    5  C4  UNL     1      26.674  -0.020  52.622  1.00  0.00     0.034 C 
ENDROOT
BRANCH   5   6
HETATM    6  C5  UNL     1      25.267   0.414  52.652  1.00  0.00     0.015 C 
HETATM    7  C6  UNL     1      24.281  -0.326  53.187  1.00  0.00     0.131 C 
BRANCH   7   8
HETATM    8  S1  UNL     1      22.656   0.338  53.142  1.00  0.00     0.252 S 
HETATM    9  O1  UNL     1      21.925  -0.314  52.010  1.00  0.00    -0.201 OA
HETATM   10  O2  UNL     1      21.906  -0.021  54.394  1.00  0.00    -0.201 OA
BRANCH   8  11
HETATM   11  N1  UNL     1      22.706   2.062  52.944  1.00  0.00    -0.289 N 
HETATM   12  H5  UNL     1      23.165   2.668  53.662  1.00  0.00     0.178 HD
BRANCH  11  13
HETATM   13  C7  UNL     1      22.088   2.552  51.759  1.00  0.00    -0.001 C 
HETATM   14  C8  UNL     1      20.805   2.914  51.886  1.00  0.00     0.059 C 
BRANCH  13  15
HETATM   15  C9  UNL     1      22.920   2.602  50.554  1.00  0.00     0.064 C 
BRANCH  15  16
HETATM   16  C10 UNL     1      24.274   3.245  50.749  1.00  0.00     0.044 C 
HETATM   17  C11 UNL     1      23.944   4.695  51.010  1.00  0.00     0.005 C 
HETATM   18  C12 UNL     1      23.825   5.331  49.833  1.00  0.00     0.131 C 
HETATM   19  O3  UNL     1      24.063   4.366  48.842  1.00  0.00    -0.358 OA
HETATM   20  C13 UNL     1      24.989   3.453  49.429  1.00  0.00     0.131 C 
HETATM   21  C14 UNL     1      26.263   4.199  49.656  1.00  0.00     0.040 C 
ENDBRANCH  15  16
ENDBRANCH  13  15
ENDBRANCH  11  13
ENDBRANCH   8  11
ENDBRANCH   7   8
ENDBRANCH   5   6
TORSDOF 6
ENDMDL
MODEL 6
REMARK VINA RESULT:      -5.8      3.308      5.916
REMARK  6 active torsions:
REMARK  status: ('A' for Active; 'I' for Inactive)
REMARK    1  A    between atoms: C4_5  and  C5_6 
REMARK    2  A    between atoms: C6_7  and  S1_8 
REMARK    3  A    between atoms: S1_8  and  N1_11 
REMARK    4  A    between atoms: N1_11  and  C7_12 
REMARK    5  A    between atoms: C7_12  and  C9_14 
REMARK    6  A    between atoms: C9_14  and  C10_15 
ROOT
HETATM    1  C1  UNL     1      28.692  -1.103  53.395  1.00  0.00     0.019 C 
HETATM    2  C2  UNL     1      27.612  -0.594  53.184  1.00  0.00    -0.065 C 
HETATM    3  C3  UNL     1      26.340   0.012  52.910  1.00  0.00     0.086 C 
HETATM    4 CL1  UNL     1      26.174   1.457  51.933  1.00  0.00    -0.074 Cl
HETATM    5  C4  UNL     1      25.230  -0.517  53.401  1.00  0.00     0.034 C 
ENDROOT
BRANCH   5   6
HETATM    6  C5  UNL     1      23.881   0.030  53.176  1.00  0.00     0.015 C 
HETATM    7  C6  UNL     1      22.791  -0.741  53.023  1.00  0.00     0.131 C 
BRANCH   7   8
HETATM    8  S1  UNL     1      21.256   0.071  52.763  1.00  0.00     0.252 S 
HETATM    9  O1  UNL     1      20.882  -0.103  51.325  1.00  0.00    -0.201 OA
HETATM   10  O2  UNL     1      20.171  -0.588  53.567  1.00  0.00    -0.201 OA
BRANCH   8  11
HETATM   11  N1  UNL     1      21.376   1.752  53.180  1.00  0.00    -0.289 N 
HETATM   12  H5  UNL     1      21.574   2.045  54.163  1.00  0.00     0.178 HD
BRANCH  11  13
HETATM   13  C7  UNL     1      21.188   2.658  52.097  1.00  0.00    -0.001 C 
HETATM   14  C8  UNL     1      19.914   2.945  51.802  1.00  0.00     0.059 C 
BRANCH  13  15
HETATM   15  C9  UNL     1      22.398   3.161  51.442  1.00  0.00     0.064 C 
BRANCH  15  16
HETATM   16  C10 UNL     1      22.818   2.388  50.214  1.00  0.00     0.044 C 
HETATM   17  C11 UNL     1      23.946   3.215  49.644  1.00  0.00     0.005 C 
HETATM   18  C12 UNL     1      23.428   4.168  48.852  1.00  0.00     0.131 C 
HETATM   19  O3  UNL     1      22.036   3.992  48.887  1.00  0.00    -0.358 OA
HETATM   20  C13 UNL     1      21.846   2.589  49.068  1.00  0.00     0.131 C 
HETATM   21  C14 UNL     1      22.362   1.910  47.842  1.00  0.00     0.040 C 
ENDBRANCH  15  16
ENDBRANCH  13  15
ENDBRANCH  11  13
ENDBRANCH   8  11
ENDBRANCH   7   8
ENDBRANCH   5   6
TORSDOF 6
ENDMDL
MODEL 7
REMARK VINA RESULT:      -5.8      2.469      3.332
REMARK  6 active torsions:
REMARK  status: ('A' for Active; 'I' for Inactive)
REMARK    1  A    between atoms: C4_5  and  C5_6 
REMARK    2  A    between atoms: C6_7  and  S1_8 
REMARK    3  A    between atoms: S1_8  and  N1_11 
REMARK    4  A    between atoms: N1_11  and  C7_12 
REMARK    5  A    between atoms: C7_12  and  C9_14 
REMARK    6  A    between atoms: C9_14  and  C10_15 
ROOT
HETATM    1  C1  UNL     1      23.607   9.341  48.094  1.00  0.00     0.019 C 
HETATM    2  C2  UNL     1      23.893   8.411  48.818  1.00  0.00    -0.065 C 
HETATM    3  C3  UNL     1      24.249   7.325  49.686  1.00  0.00     0.086 C 
HETATM    4 CL1  UNL     1      25.911   6.845  49.965  1.00  0.00    -0.074 Cl
HETATM    5  C4  UNL     1      23.308   6.639  50.316  1.00  0.00     0.034 C 
ENDROOT
BRANCH   5   6
HETATM    6  C5  UNL     1      23.573   5.511  51.225  1.00  0.00     0.015 C 
HETATM    7  C6  UNL     1      23.232   4.242  50.941  1.00  0.00     0.131 C 
BRANCH   7   8
HETATM    8  S1  UNL     1      23.620   3.014  52.135  1.00  0.00     0.252 S 
HETATM    9  O1  UNL     1      24.105   3.710  53.368  1.00  0.00    -0.201 OA
HETATM   10  O2  UNL     1      22.383   2.259  52.533  1.00  0.00    -0.201 OA
BRANCH   8  11
HETATM   11  N1  UNL     1      24.820   1.922  51.520  1.00  0.00    -0.289 N 
HETATM   12  H5  UNL     1      24.552   0.971  51.178  1.00  0.00     0.178 HD
BRANCH  11  13
HETATM   13  C7  UNL     1      26.153   2.423  51.525  1.00  0.00    -0.001 C 
HETATM   14  C8  UNL     1      26.526   3.078  50.418  1.00  0.00     0.059 C 
BRANCH  13  15
HETATM   15  C9  UNL     1      26.950   2.166  52.727  1.00  0.00     0.064 C 
BRANCH  15  16
HETATM   16  C10 UNL     1      27.740   0.878  52.696  1.00  0.00     0.044 C 
HETATM   17  C11 UNL     1      26.936  -0.053  53.571  1.00  0.00     0.005 C 
HETATM   18  C12 UNL     1      27.304   0.128  54.850  1.00  0.00     0.131 C 
HETATM   19  O3  UNL     1      28.296   1.120  54.835  1.00  0.00    -0.358 OA
HETATM   20  C13 UNL     1      28.966   0.954  53.585  1.00  0.00     0.131 C 
HETATM   21  C14 UNL     1      29.647  -0.375  53.621  1.00  0.00     0.040 C 
ENDBRANCH  15  16
ENDBRANCH  13  15
ENDBRANCH  11  13
ENDBRANCH   8  11
ENDBRANCH   7   8
ENDBRANCH   5   6
TORSDOF 6
ENDMDL
MODEL 8
REMARK VINA RESULT:      -5.7      3.304      7.606
REMARK  6 active torsions:
REMARK  status: ('A' for Active; 'I' for Inactive)
REMARK    1  A    between atoms: C4_5  and  C5_6 
REMARK    2  A    between atoms: C6_7  and  S1_8 
REMARK    3  A    between atoms: S1_8  and  N1_11 
REMARK    4  A    between atoms: N1_11  and  C7_12 
REMARK    5  A    between atoms: C7_12  and  C9_14 
REMARK    6  A    between atoms: C9_14  and  C10_15 
ROOT
HETATM    1  C1  UNL     1      21.547  -1.828  54.561  1.00  0.00     0.019 C 
HETATM    2  C2  UNL     1      21.871  -0.937  53.805  1.00  0.00    -0.065 C 
HETATM    3  C3  UNL     1      22.231   0.128  52.912  1.00  0.00     0.086 C 
HETATM    4 CL1  UNL     1      21.262   0.557  51.517  1.00  0.00    -0.074 Cl
HETATM    5  C4  UNL     1      23.333   0.830  53.121  1.00  0.00     0.034 C 
ENDROOT
BRANCH   5   6
HETATM    6  C5  UNL     1      23.786   1.939  52.263  1.00  0.00     0.015 C 
HETATM    7  C6  UNL     1      24.969   1.939  51.626  1.00  0.00     0.131 C 
BRANCH   7   8
HETATM    8  S1  UNL     1      25.356   3.339  50.641  1.00  0.00     0.252 S 
HETATM    9  O1  UNL     1      26.840   3.370  50.449  1.00  0.00    -0.201 OA
HETATM   10  O2  UNL     1      24.755   3.200  49.270  1.00  0.00    -0.201 OA
BRANCH   8  11
HETATM   11  N1  UNL     1      24.793   4.795  51.399  1.00  0.00    -0.289 N 
HETATM   12  H5  UNL     1      24.627   4.830  52.430  1.00  0.00     0.178 HD
BRANCH  11  13
HETATM   13  C7  UNL     1      24.587   5.895  50.518  1.00  0.00    -0.001 C 
HETATM   14  C8  UNL     1      23.309   6.171  50.231  1.00  0.00     0.059 C 
BRANCH  13  15
HETATM   15  C9  UNL     1      25.786   6.585  50.035  1.00  0.00     0.064 C 
BRANCH  15  16
HETATM   16  C10 UNL     1      25.908   6.659  48.531  1.00  0.00     0.044 C 
HETATM   17  C11 UNL     1      27.366   6.362  48.278  1.00  0.00     0.005 C 
HETATM   18  C12 UNL     1      28.066   7.503  48.379  1.00  0.00     0.131 C 
HETATM   19  O3  UNL     1      27.134   8.508  48.680  1.00  0.00    -0.358 OA
HETATM   20  C13 UNL     1      25.926   8.095  48.042  1.00  0.00     0.131 C 
HETATM   21  C14 UNL     1      26.170   8.124  46.569  1.00  0.00     0.040 C 
ENDBRANCH  15  16
ENDBRANCH  13  15
ENDBRANCH  11  13
ENDBRANCH   8  11
ENDBRANCH   7   8
ENDBRANCH   5   6
TORSDOF 6
ENDMDL
MODEL 9
REMARK VINA RESULT:      -5.5      3.219      5.966
REMARK  6 active torsions:
REMARK  status: ('A' for Active; 'I' for Inactive)
REMARK    1  A    between atoms: C4_5  and  C5_6 
REMARK    2  A    between atoms: C6_7  and  S1_8 
REMARK    3  A    between atoms: S1_8  and  N1_11 
REMARK    4  A    between atoms: N1_11  and  C7_12 
REMARK    5  A    between atoms: C7_12  and  C9_14 
REMARK    6  A    between atoms: C9_14  and  C10_15 
ROOT
HETATM    1  C1  UNL     1      26.970  -1.680  52.675  1.00  0.00     0.019 C 
HETATM    2  C2  UNL     1      26.687  -0.515  52.495  1.00  0.00    -0.065 C 
HETATM    3  C3  UNL     1      26.375   0.868  52.270  1.00  0.00     0.086 C 
HETATM    4 CL1  UNL     1      27.534   2.153  52.543  1.00  0.00    -0.074 Cl
HETATM    5  C4  UNL     1      25.174   1.218  51.841  1.00  0.00     0.034 C 
ENDROOT
BRANCH   5   6
HETATM    6  C5  UNL     1      24.758   2.608  51.581  1.00  0.00     0.015 C 
HETATM    7  C6  UNL     1      24.790   3.168  50.360  1.00  0.00     0.131 C 
BRANCH   7   8
HETATM    8  S1  UNL     1      24.260   4.837  50.223  1.00  0.00     0.252 S 
HETATM    9  O1  UNL     1      25.478   5.705  50.203  1.00  0.00    -0.201 OA
HETATM   10  O2  UNL     1      23.559   5.059  48.911  1.00  0.00    -0.201 OA
BRANCH   8  11
HETATM   11  N1  UNL     1      23.213   5.256  51.542  1.00  0.00    -0.289 N 
HETATM   12  H5  UNL     1      23.549   5.196  52.530  1.00  0.00     0.178 HD
BRANCH  11  13
HETATM   13  C7  UNL     1      21.905   5.673  51.166  1.00  0.00    -0.001 C 
HETATM   14  C8  UNL     1      21.767   6.982  50.917  1.00  0.00     0.059 C 
BRANCH  13  15
HETATM   15  C9  UNL     1      20.875   4.633  51.098  1.00  0.00     0.064 C 
BRANCH  15  16
HETATM   16  C10 UNL     1      21.284   3.302  51.685  1.00  0.00     0.044 C 
HETATM   17  C11 UNL     1      21.126   2.342  50.530  1.00  0.00     0.005 C 
HETATM   18  C12 UNL     1      19.852   1.919  50.489  1.00  0.00     0.131 C 
HETATM   19  O3  UNL     1      19.194   2.555  51.552  1.00  0.00    -0.358 OA
HETATM   20  C13 UNL     1      20.192   2.719  52.560  1.00  0.00     0.131 C 
HETATM   21  C14 UNL     1      20.587   1.353  53.018  1.00  0.00     0.040 C 
ENDBRANCH  15  16
ENDBRANCH  13  15
ENDBRANCH  11  13
ENDBRANCH   8  11
ENDBRANCH   7   8
ENDBRANCH   5   6
TORSDOF 6
ENDMDL
