MODEL 1
REMARK VINA RESULT:      -8.5      0.000      0.000
REMARK  5 active torsions:
REMARK  status: ('A' for Active; 'I' for Inactive)
REMARK    1  A    between atoms: C2_2  and  O1_3 
REMARK    2  A    between atoms: O1_3  and  C3_4 
REMARK    3  A    between atoms: C7_8  and  N1_9 
REMARK    4  A    between atoms: N1_9  and  C8_10 
REMARK    5  A    between atoms: C16_22  and  O2_23 
ROOT
HETATM    1  C3  UNL     1      19.704   0.375  52.226  1.00  0.00     0.140 A 
HETATM    2  C4  UNL     1      20.768   1.005  51.578  1.00  0.00     0.139 A 
HETATM    3  C5  UNL     1      22.058   0.855  52.005  1.00  0.00     0.121 A 
HETATM    4  C6  UNL     1      22.370   0.083  53.087  1.00  0.00     0.078 A 
HETATM    5  C7  UNL     1      23.687  -0.022  53.460  1.00  0.00     0.145 A 
HETATM    6  N2  UNL     1      23.912  -0.791  54.522  1.00  0.00    -0.223 NA
HETATM    7  C14 UNL     1      22.933  -1.420  55.186  1.00  0.00     0.236 A 
HETATM    8  N3  UNL     1      21.654  -1.302  54.800  1.00  0.00    -0.238 NA
HETATM    9  C15 UNL     1      21.333  -0.548  53.741  1.00  0.00     0.111 A 
HETATM   10  C16 UNL     1      20.022  -0.412  53.329  1.00  0.00     0.132 A 
HETATM   11  O3  UNL     1      22.999   1.536  51.263  1.00  0.00    -0.345 OA
HETATM   12  C17 UNL     1      22.669   1.965  49.965  1.00  0.00     0.202 C 
HETATM   13  C18 UNL     1      21.311   2.679  49.966  1.00  0.00     0.202 C 
HETATM   14  O4  UNL     1      20.357   1.768  50.491  1.00  0.00    -0.343 OA
ENDROOT
BRANCH   5  15
HETATM   15  N1  UNL     1      24.784   0.618  52.835  1.00  0.00    -0.340 N 
HETATM   16  H6  UNL     1      24.958   1.342  52.118  1.00  0.00     0.167 HD
BRANCH  15  17
HETATM   17  C8  UNL     1      26.133   0.274  53.183  1.00  0.00     0.035 A 
HETATM   18  C9  UNL     1      26.963   1.207  53.787  1.00  0.00     0.032 A 
HETATM   19  C10 UNL     1      28.271   0.955  54.123  1.00  0.00     0.046 A 
HETATM   20  C11 UNL     1      28.826  -0.278  53.863  1.00  0.00     0.138 A 
HETATM   21  F1  UNL     1      30.099  -0.603  54.161  1.00  0.00    -0.204 F 
HETATM   22  C12 UNL     1      28.065  -1.250  53.269  1.00  0.00     0.074 A 
HETATM   23 CL1  UNL     1      28.673  -2.861  52.892  1.00  0.00    -0.081 Cl
HETATM   24  C13 UNL     1      26.765  -0.942  52.956  1.00  0.00     0.056 A 
ENDBRANCH  15  17
ENDBRANCH   5  15
BRANCH  10  25
HETATM   25  O2  UNL     1      19.070  -1.115  54.095  1.00  0.00    -0.356 OA
HETATM   26  H11 UNL     1      18.362  -1.637  53.583  1.00  0.00     0.218 HD
ENDBRANCH  10  25
BRANCH   1  27
HETATM   27  O1  UNL     1      18.349   0.391  51.967  1.00  0.00    -0.346 OA
BRANCH  27  28
HETATM   28  C2  UNL     1      17.713  -0.438  51.042  1.00  0.00     0.171 C 
HETATM   29  C1  UNL     1      16.999   0.283  49.941  1.00  0.00     0.034 C 
ENDBRANCH  27  28
ENDBRANCH   1  27
TORSDOF 5
ENDMDL
MODEL 2
REMARK VINA RESULT:      -8.4      4.330      7.298
REMARK  5 active torsions:
REMARK  status: ('A' for Active; 'I' for Inactive)
REMARK    1  A    between atoms: C2_2  and  O1_3 
REMARK    2  A    between atoms: O1_3  and  C3_4 
REMARK    3  A    between atoms: C7_8  and  N1_9 
REMARK    4  A    between atoms: N1_9  and  C8_10 
REMARK    5  A    between atoms: C16_22  and  O2_23 
ROOT
HETATM    1  C3  UNL     1      26.083  -0.015  54.504  1.00  0.00     0.140 A 
HETATM    2  C4  UNL     1      25.716   0.626  53.319  1.00  0.00     0.139 A 
HETATM    3  C5  UNL     1      24.450   0.524  52.811  1.00  0.00     0.121 A 
HETATM    4  C6  UNL     1      23.484  -0.209  53.437  1.00  0.00     0.078 A 
HETATM    5  C7  UNL     1      22.235  -0.268  52.870  1.00  0.00     0.145 A 
HETATM    6  N2  UNL     1      21.347  -1.001  53.536  1.00  0.00    -0.223 NA
HETATM    7  C14 UNL     1      21.640  -1.640  54.677  1.00  0.00     0.236 A 
HETATM    8  N3  UNL     1      22.869  -1.566  55.211  1.00  0.00    -0.238 NA
HETATM    9  C15 UNL     1      23.826  -0.851  54.609  1.00  0.00     0.111 A 
HETATM   10  C16 UNL     1      25.098  -0.763  55.142  1.00  0.00     0.132 A 
HETATM   11  O3  UNL     1      24.238   1.213  51.637  1.00  0.00    -0.345 OA
HETATM   12  C17 UNL     1      25.125   2.243  51.277  1.00  0.00     0.202 C 
HETATM   13  C18 UNL     1      26.579   1.770  51.411  1.00  0.00     0.202 C 
HETATM   14  O4  UNL     1      26.760   1.347  52.753  1.00  0.00    -0.343 OA
ENDROOT
BRANCH   5  15
HETATM   15  N1  UNL     1      21.838   0.354  51.661  1.00  0.00    -0.340 N 
HETATM   16  H6  UNL     1      22.100   0.351  50.662  1.00  0.00     0.167 HD
BRANCH  15  17
HETATM   17  C8  UNL     1      20.764   1.305  51.642  1.00  0.00     0.035 A 
HETATM   18  C9  UNL     1      20.999   2.638  51.948  1.00  0.00     0.032 A 
HETATM   19  C10 UNL     1      20.015   3.596  51.975  1.00  0.00     0.046 A 
HETATM   20  C11 UNL     1      18.712   3.256  51.688  1.00  0.00     0.138 A 
HETATM   21  F1  UNL     1      17.691   4.136  51.693  1.00  0.00    -0.204 F 
HETATM   22  C12 UNL     1      18.404   1.959  51.375  1.00  0.00     0.074 A 
HETATM   23 CL1  UNL     1      16.772   1.415  50.991  1.00  0.00    -0.081 Cl
HETATM   24  C13 UNL     1      19.428   1.045  51.363  1.00  0.00     0.056 A 
ENDBRANCH  15  17
ENDBRANCH   5  15
BRANCH  10  25
HETATM   25  O2  UNL     1      25.301  -1.471  56.343  1.00  0.00    -0.356 OA
HETATM   26  H11 UNL     1      26.140  -1.246  56.873  1.00  0.00     0.218 HD
ENDBRANCH  10  25
BRANCH   1  27
HETATM   27  O1  UNL     1      27.284  -0.045  55.181  1.00  0.00    -0.346 OA
BRANCH  27  28
HETATM   28  C2  UNL     1      28.534   0.099  54.578  1.00  0.00     0.171 C 
HETATM   29  C1  UNL     1      28.962  -1.062  53.735  1.00  0.00     0.034 C 
ENDBRANCH  27  28
ENDBRANCH   1  27
TORSDOF 5
ENDMDL
MODEL 3
REMARK VINA RESULT:      -8.2      1.504      3.226
REMARK  5 active torsions:
REMARK  status: ('A' for Active; 'I' for Inactive)
REMARK    1  A    between atoms: C2_2  and  O1_3 
REMARK    2  A    between atoms: O1_3  and  C3_4 
REMARK    3  A    between atoms: C7_8  and  N1_9 
REMARK    4  A    between atoms: N1_9  and  C8_10 
REMARK    5  A    between atoms: C16_22  and  O2_23 
ROOT
HETATM    1  C3  UNL     1      20.608   0.441  51.353  1.00  0.00     0.140 A 
HETATM    2  C4  UNL     1      21.221  -0.023  52.517  1.00  0.00     0.139 A 
HETATM    3  C5  UNL     1      22.498   0.338  52.848  1.00  0.00     0.121 A 
HETATM    4  C6  UNL     1      23.236   1.170  52.057  1.00  0.00     0.078 A 
HETATM    5  C7  UNL     1      24.511   1.490  52.451  1.00  0.00     0.145 A 
HETATM    6  N2  UNL     1      25.168   2.305  51.629  1.00  0.00    -0.223 NA
HETATM    7  C14 UNL     1      24.632   2.783  50.498  1.00  0.00     0.236 A 
HETATM    8  N3  UNL     1      23.383   2.455  50.135  1.00  0.00    -0.238 NA
HETATM    9  C15 UNL     1      22.648   1.640  50.901  1.00  0.00     0.111 A 
HETATM   10  C16 UNL     1      21.360   1.290  50.545  1.00  0.00     0.132 A 
HETATM   11  O3  UNL     1      22.966  -0.199  54.028  1.00  0.00    -0.345 OA
HETATM   12  C17 UNL     1      22.047  -0.699  54.967  1.00  0.00     0.202 C 
HETATM   13  C18 UNL     1      21.028  -1.620  54.280  1.00  0.00     0.202 C 
HETATM   14  O4  UNL     1      20.399  -0.863  53.259  1.00  0.00    -0.343 OA
ENDROOT
BRANCH   5  15
HETATM   15  N1  UNL     1      25.167   1.021  53.615  1.00  0.00    -0.340 N 
HETATM   16  H6  UNL     1      24.944   0.806  54.601  1.00  0.00     0.167 HD
BRANCH  15  17
HETATM   17  C8  UNL     1      26.566   0.705  53.594  1.00  0.00     0.035 A 
HETATM   18  C9  UNL     1      27.515   1.703  53.757  1.00  0.00     0.032 A 
HETATM   19  C10 UNL     1      28.869   1.477  53.722  1.00  0.00     0.046 A 
HETATM   20  C11 UNL     1      29.353   0.204  53.516  1.00  0.00     0.138 A 
HETATM   21  F1  UNL     1      30.664  -0.099  53.467  1.00  0.00    -0.204 F 
HETATM   22  C12 UNL     1      28.474  -0.833  53.347  1.00  0.00     0.074 A 
HETATM   23 CL1  UNL     1      28.982  -2.499  53.079  1.00  0.00    -0.081 Cl
HETATM   24  C13 UNL     1      27.132  -0.547  53.393  1.00  0.00     0.056 A 
ENDBRANCH  15  17
ENDBRANCH   5  15
BRANCH  10  25
HETATM   25  O2  UNL     1      20.892   1.846  49.338  1.00  0.00    -0.356 OA
HETATM   26  H11 UNL     1      20.962   2.857  49.239  1.00  0.00     0.218 HD
ENDBRANCH  10  25
BRANCH   1  27
HETATM   27  O1  UNL     1      19.351   0.205  50.836  1.00  0.00    -0.346 OA
BRANCH  27  28
HETATM   28  C2  UNL     1      18.178   0.789  51.317  1.00  0.00     0.171 C 
HETATM   29  C1  UNL     1      16.962  -0.080  51.226  1.00  0.00     0.034 C 
ENDBRANCH  27  28
ENDBRANCH   1  27
TORSDOF 5
ENDMDL
MODEL 4
REMARK VINA RESULT:      -8.1      4.524      8.165
REMARK  5 active torsions:
REMARK  status: ('A' for Active; 'I' for Inactive)
REMARK    1  A    between atoms: C2_2  and  O1_3 
REMARK    2  A    between atoms: O1_3  and  C3_4 
REMARK    3  A    between atoms: C7_8  and  N1_9 
REMARK    4  A    between atoms: N1_9  and  C8_10 
REMARK    5  A    between atoms: C16_22  and  O2_23 
ROOT
HETATM    1  C3  UNL     1      27.486   0.476  54.005  1.00  0.00     0.140 A 
HETATM    2  C4  UNL     1      26.144   0.112  54.134  1.00  0.00     0.139 A 
HETATM    3  C5  UNL     1      25.173   0.660  53.344  1.00  0.00     0.121 A 
HETATM    4  C6  UNL     1      25.466   1.590  52.388  1.00  0.00     0.078 A 
HETATM    5  C7  UNL     1      24.440   2.097  51.630  1.00  0.00     0.145 A 
HETATM    6  N2  UNL     1      24.803   2.998  50.720  1.00  0.00    -0.223 NA
HETATM    7  C14 UNL     1      26.073   3.388  50.549  1.00  0.00     0.236 A 
HETATM    8  N3  UNL     1      27.058   2.875  51.302  1.00  0.00    -0.238 NA
HETATM    9  C15 UNL     1      26.786   1.963  52.243  1.00  0.00     0.111 A 
HETATM   10  C16 UNL     1      27.785   1.424  53.030  1.00  0.00     0.132 A 
HETATM   11  O3  UNL     1      23.897   0.201  53.588  1.00  0.00    -0.345 OA
HETATM   12  C17 UNL     1      23.725  -1.012  54.279  1.00  0.00     0.202 C 
HETATM   13  C18 UNL     1      24.597  -1.037  55.542  1.00  0.00     0.202 C 
HETATM   14  O4  UNL     1      25.940  -0.836  55.129  1.00  0.00    -0.343 OA
ENDROOT
BRANCH   5  15
HETATM   15  N1  UNL     1      23.069   1.763  51.751  1.00  0.00    -0.340 N 
HETATM   16  H6  UNL     1      22.437   1.303  52.426  1.00  0.00     0.167 HD
BRANCH  15  17
HETATM   17  C8  UNL     1      22.139   2.085  50.708  1.00  0.00     0.035 A 
HETATM   18  C9  UNL     1      21.963   1.229  49.632  1.00  0.00     0.032 A 
HETATM   19  C10 UNL     1      21.111   1.486  48.586  1.00  0.00     0.046 A 
HETATM   20  C11 UNL     1      20.371   2.648  48.568  1.00  0.00     0.138 A 
HETATM   21  F1  UNL     1      19.515   2.973  47.580  1.00  0.00    -0.204 F 
HETATM   22  C12 UNL     1      20.491   3.542  49.598  1.00  0.00     0.074 A 
HETATM   23 CL1  UNL     1      19.593   5.056  49.677  1.00  0.00    -0.081 Cl
HETATM   24  C13 UNL     1      21.358   3.231  50.616  1.00  0.00     0.056 A 
ENDBRANCH  15  17
ENDBRANCH   5  15
BRANCH  10  25
HETATM   25  O2  UNL     1      29.085   1.901  52.769  1.00  0.00    -0.356 OA
HETATM   26  H11 UNL     1      29.215   2.442  51.916  1.00  0.00     0.218 HD
ENDBRANCH  10  25
BRANCH   1  27
HETATM   27  O1  UNL     1      28.608   0.056  54.688  1.00  0.00    -0.346 OA
BRANCH  27  28
HETATM   28  C2  UNL     1      29.611  -0.744  54.141  1.00  0.00     0.171 C 
HETATM   29  C1  UNL     1      29.119  -1.874  53.290  1.00  0.00     0.034 C 
ENDBRANCH  27  28
ENDBRANCH   1  27
TORSDOF 5
ENDMDL
MODEL 5
REMARK VINA RESULT:      -8.0      4.326      8.083
REMARK  5 active torsions:
REMARK  status: ('A' for Active; 'I' for Inactive)
REMARK    1  A    between atoms: C2_2  and  O1_3 
REMARK    2  A    between atoms: O1_3  and  C3_4 
REMARK    3  A    between atoms: C7_8  and  N1_9 
REMARK    4  A    between atoms: N1_9  and  C8_10 
REMARK    5  A    between atoms: C16_22  and  O2_23 
ROOT
HETATM    1  C3  UNL     1      27.129   1.177  53.873  1.00  0.00     0.140 A 
HETATM    2  C4  UNL     1      25.997   0.432  54.210  1.00  0.00     0.139 A 
HETATM    3  C5  UNL     1      24.843   0.511  53.481  1.00  0.00     0.121 A 
HETATM    4  C6  UNL     1      24.740   1.322  52.388  1.00  0.00     0.078 A 
HETATM    5  C7  UNL     1      23.551   1.351  51.703  1.00  0.00     0.145 A 
HETATM    6  N2  UNL     1      23.526   2.164  50.650  1.00  0.00    -0.223 NA
HETATM    7  C14 UNL     1      24.579   2.904  50.277  1.00  0.00     0.236 A 
HETATM    8  N3  UNL     1      25.731   2.857  50.964  1.00  0.00    -0.238 NA
HETATM    9  C15 UNL     1      25.847   2.066  52.037  1.00  0.00     0.111 A 
HETATM   10  C16 UNL     1      27.023   2.004  52.758  1.00  0.00     0.132 A 
HETATM   11  O3  UNL     1      23.814  -0.284  53.935  1.00  0.00    -0.345 OA
HETATM   12  C17 UNL     1      24.105  -1.363  54.788  1.00  0.00     0.202 C 
HETATM   13  C18 UNL     1      25.027  -0.910  55.929  1.00  0.00     0.202 C 
HETATM   14  O4  UNL     1      26.193  -0.362  55.333  1.00  0.00    -0.343 OA
ENDROOT
BRANCH   5  15
HETATM   15  N1  UNL     1      22.381   0.623  52.031  1.00  0.00    -0.340 N 
HETATM   16  H6  UNL     1      22.122  -0.294  52.432  1.00  0.00     0.167 HD
BRANCH  15  17
HETATM   17  C8  UNL     1      21.079   1.177  51.796  1.00  0.00     0.035 A 
HETATM   18  C9  UNL     1      20.750   2.433  52.284  1.00  0.00     0.032 A 
HETATM   19  C10 UNL     1      19.516   3.013  52.120  1.00  0.00     0.046 A 
HETATM   20  C11 UNL     1      18.523   2.344  51.439  1.00  0.00     0.138 A 
HETATM   21  F1  UNL     1      17.288   2.843  51.237  1.00  0.00    -0.204 F 
HETATM   22  C12 UNL     1      18.775   1.098  50.928  1.00  0.00     0.074 A 
HETATM   23 CL1  UNL     1      17.580   0.155  50.040  1.00  0.00    -0.081 Cl
HETATM   24  C13 UNL     1      20.027   0.570  51.122  1.00  0.00     0.056 A 
ENDBRANCH  15  17
ENDBRANCH   5  15
BRANCH  10  25
HETATM   25  O2  UNL     1      28.069   2.821  52.283  1.00  0.00    -0.356 OA
HETATM   26  H11 UNL     1      28.943   2.357  52.043  1.00  0.00     0.218 HD
ENDBRANCH  10  25
BRANCH   1  27
HETATM   27  O1  UNL     1      28.374   1.248  54.462  1.00  0.00    -0.346 OA
BRANCH  27  28
HETATM   28  C2  UNL     1      29.494   0.540  54.026  1.00  0.00     0.171 C 
HETATM   29  C1  UNL     1      29.210  -0.852  53.552  1.00  0.00     0.034 C 
ENDBRANCH  27  28
ENDBRANCH   1  27
TORSDOF 5
ENDMDL
MODEL 6
REMARK VINA RESULT:      -8.0      4.096      7.332
REMARK  5 active torsions:
REMARK  status: ('A' for Active; 'I' for Inactive)
REMARK    1  A    between atoms: C2_2  and  O1_3 
REMARK    2  A    between atoms: O1_3  and  C3_4 
REMARK    3  A    between atoms: C7_8  and  N1_9 
REMARK    4  A    between atoms: N1_9  and  C8_10 
REMARK    5  A    between atoms: C16_22  and  O2_23 
ROOT
HETATM    1  C3  UNL     1      25.891   0.688  52.624  1.00  0.00     0.140 A 
HETATM    2  C4  UNL     1      24.956   1.550  52.048  1.00  0.00     0.139 A 
HETATM    3  C5  UNL     1      23.629   1.490  52.372  1.00  0.00     0.121 A 
HETATM    4  C6  UNL     1      23.153   0.584  53.276  1.00  0.00     0.078 A 
HETATM    5  C7  UNL     1      21.809   0.580  53.554  1.00  0.00     0.145 A 
HETATM    6  N2  UNL     1      21.419  -0.331  54.442  1.00  0.00    -0.223 NA
HETATM    7  C14 UNL     1      22.269  -1.185  55.028  1.00  0.00     0.236 A 
HETATM    8  N3  UNL     1      23.579  -1.160  54.740  1.00  0.00    -0.238 NA
HETATM    9  C15 UNL     1      24.060  -0.277  53.857  1.00  0.00     0.111 A 
HETATM   10  C16 UNL     1      25.405  -0.236  53.544  1.00  0.00     0.132 A 
HETATM   11  O3  UNL     1      22.830   2.406  51.724  1.00  0.00    -0.345 OA
HETATM   12  C17 UNL     1      23.421   3.539  51.137  1.00  0.00     0.202 C 
HETATM   13  C18 UNL     1      24.634   3.131  50.289  1.00  0.00     0.202 C 
HETATM   14  O4  UNL     1      25.529   2.436  51.143  1.00  0.00    -0.343 OA
ENDROOT
BRANCH   5  15
HETATM   15  N1  UNL     1      20.834   1.427  52.973  1.00  0.00    -0.340 N 
HETATM   16  H6  UNL     1      20.600   2.433  52.937  1.00  0.00     0.167 HD
BRANCH  15  17
HETATM   17  C8  UNL     1      19.779   0.889  52.164  1.00  0.00     0.035 A 
HETATM   18  C9  UNL     1      19.616   1.305  50.851  1.00  0.00     0.032 A 
HETATM   19  C10 UNL     1      18.613   0.853  50.029  1.00  0.00     0.046 A 
HETATM   20  C11 UNL     1      17.698  -0.065  50.496  1.00  0.00     0.138 A 
HETATM   21  F1  UNL     1      16.687  -0.556  49.754  1.00  0.00    -0.204 F 
HETATM   22  C12 UNL     1      17.796  -0.522  51.784  1.00  0.00     0.074 A 
HETATM   23 CL1  UNL     1      16.682  -1.695  52.483  1.00  0.00    -0.081 Cl
HETATM   24  C13 UNL     1      18.819  -0.035  52.558  1.00  0.00     0.056 A 
ENDBRANCH  15  17
ENDBRANCH   5  15
BRANCH  10  25
HETATM   25  O2  UNL     1      26.212  -1.176  54.216  1.00  0.00    -0.356 OA
HETATM   26  H11 UNL     1      26.437  -0.979  55.189  1.00  0.00     0.218 HD
ENDBRANCH  10  25
BRANCH   1  27
HETATM   27  O1  UNL     1      27.254   0.579  52.441  1.00  0.00    -0.346 OA
BRANCH  27  28
HETATM   28  C2  UNL     1      28.202   1.378  53.080  1.00  0.00     0.171 C 
HETATM   29  C1  UNL     1      29.197   0.629  53.910  1.00  0.00     0.034 C 
ENDBRANCH  27  28
ENDBRANCH   1  27
TORSDOF 5
ENDMDL
MODEL 7
REMARK VINA RESULT:      -7.5      4.688      8.305
REMARK  5 active torsions:
REMARK  status: ('A' for Active; 'I' for Inactive)
REMARK    1  A    between atoms: C2_2  and  O1_3 
REMARK    2  A    between atoms: O1_3  and  C3_4 
REMARK    3  A    between atoms: C7_8  and  N1_9 
REMARK    4  A    between atoms: N1_9  and  C8_10 
REMARK    5  A    between atoms: C16_22  and  O2_23 
ROOT
HETATM    1  C3  UNL     1      26.217   1.260  52.484  1.00  0.00     0.140 A 
HETATM    2  C4  UNL     1      25.041   0.726  53.013  1.00  0.00     0.139 A 
HETATM    3  C5  UNL     1      23.833   1.343  52.842  1.00  0.00     0.121 A 
HETATM    4  C6  UNL     1      23.717   2.512  52.145  1.00  0.00     0.078 A 
HETATM    5  C7  UNL     1      22.473   3.076  52.013  1.00  0.00     0.145 A 
HETATM    6  N2  UNL     1      22.439   4.212  51.322  1.00  0.00    -0.223 NA
HETATM    7  C14 UNL     1      23.534   4.773  50.791  1.00  0.00     0.236 A 
HETATM    8  N3  UNL     1      24.739   4.201  50.934  1.00  0.00    -0.238 NA
HETATM    9  C15 UNL     1      24.868   3.056  51.614  1.00  0.00     0.111 A 
HETATM   10  C16 UNL     1      26.099   2.451  51.774  1.00  0.00     0.132 A 
HETATM   11  O3  UNL     1      22.763   0.696  53.421  1.00  0.00    -0.345 OA
HETATM   12  C17 UNL     1      22.884  -0.663  53.759  1.00  0.00     0.202 C 
HETATM   13  C18 UNL     1      24.189  -0.908  54.529  1.00  0.00     0.202 C 
HETATM   14  O4  UNL     1      25.254  -0.460  53.705  1.00  0.00    -0.343 OA
ENDROOT
BRANCH   5  15
HETATM   15  N1  UNL     1      21.265   2.570  52.554  1.00  0.00    -0.340 N 
HETATM   16  H6  UNL     1      20.891   2.259  53.466  1.00  0.00     0.167 HD
BRANCH  15  17
HETATM   17  C8  UNL     1      20.117   2.360  51.720  1.00  0.00     0.035 A 
HETATM   18  C9  UNL     1      20.045   1.255  50.886  1.00  0.00     0.032 A 
HETATM   19  C10 UNL     1      18.989   1.006  50.043  1.00  0.00     0.046 A 
HETATM   20  C11 UNL     1      17.924   1.877  49.994  1.00  0.00     0.138 A 
HETATM   21  F1  UNL     1      16.853   1.705  49.196  1.00  0.00    -0.204 F 
HETATM   22  C12 UNL     1      17.924   2.991  50.792  1.00  0.00     0.074 A 
HETATM   23 CL1  UNL     1      16.614   4.170  50.811  1.00  0.00    -0.081 Cl
HETATM   24  C13 UNL     1      19.006   3.187  51.614  1.00  0.00     0.056 A 
ENDBRANCH  15  17
ENDBRANCH   5  15
BRANCH  10  25
HETATM   25  O2  UNL     1      27.185   3.122  51.176  1.00  0.00    -0.356 OA
HETATM   26  H11 UNL     1      28.079   3.073  51.660  1.00  0.00     0.218 HD
ENDBRANCH  10  25
BRANCH   1  27
HETATM   27  O1  UNL     1      27.520   0.809  52.538  1.00  0.00    -0.346 OA
BRANCH  27  28
HETATM   28  C2  UNL     1      28.366   0.973  53.635  1.00  0.00     0.171 C 
HETATM   29  C1  UNL     1      29.501  -0.002  53.703  1.00  0.00     0.034 C 
ENDBRANCH  27  28
ENDBRANCH   1  27
TORSDOF 5
ENDMDL
MODEL 8
REMARK VINA RESULT:      -7.2      4.784      7.698
REMARK  5 active torsions:
REMARK  status: ('A' for Active; 'I' for Inactive)
REMARK    1  A    between atoms: C2_2  and  O1_3 
REMARK    2  A    between atoms: O1_3  and  C3_4 
REMARK    3  A    between atoms: C7_8  and  N1_9 
REMARK    4  A    between atoms: N1_9  and  C8_10 
REMARK    5  A    between atoms: C16_22  and  O2_23 
ROOT
HETATM    1  C3  UNL     1      25.764   5.609  49.041  1.00  0.00     0.140 A 
HETATM    2  C4  UNL     1      24.545   5.766  49.703  1.00  0.00     0.139 A 
HETATM    3  C5  UNL     1      24.112   4.864  50.634  1.00  0.00     0.121 A 
HETATM    4  C6  UNL     1      24.850   3.764  50.964  1.00  0.00     0.078 A 
HETATM    5  C7  UNL     1      24.354   2.900  51.908  1.00  0.00     0.145 A 
HETATM    6  N2  UNL     1      25.129   1.852  52.176  1.00  0.00    -0.223 NA
HETATM    7  C14 UNL     1      26.308   1.646  51.574  1.00  0.00     0.236 A 
HETATM    8  N3  UNL     1      26.771   2.507  50.655  1.00  0.00    -0.238 NA
HETATM    9  C15 UNL     1      26.058   3.590  50.322  1.00  0.00     0.111 A 
HETATM   10  C16 UNL     1      26.517   4.487  49.377  1.00  0.00     0.132 A 
HETATM   11  O3  UNL     1      22.890   5.155  51.202  1.00  0.00    -0.345 OA
HETATM   12  C17 UNL     1      22.392   6.468  51.122  1.00  0.00     0.202 C 
HETATM   13  C18 UNL     1      22.498   6.993  49.684  1.00  0.00     0.202 C 
HETATM   14  O4  UNL     1      23.863   6.910  49.305  1.00  0.00    -0.343 OA
ENDROOT
BRANCH   5  15
HETATM   15  N1  UNL     1      23.114   3.022  52.581  1.00  0.00    -0.340 N 
HETATM   16  H6  UNL     1      22.642   3.673  53.230  1.00  0.00     0.167 HD
BRANCH  15  17
HETATM   17  C8  UNL     1      22.093   2.026  52.431  1.00  0.00     0.035 A 
HETATM   18  C9  UNL     1      21.147   2.134  51.423  1.00  0.00     0.032 A 
HETATM   19  C10 UNL     1      20.128   1.232  51.237  1.00  0.00     0.046 A 
HETATM   20  C11 UNL     1      20.003   0.148  52.076  1.00  0.00     0.138 A 
HETATM   21  F1  UNL     1      19.032  -0.779  51.962  1.00  0.00    -0.204 F 
HETATM   22  C12 UNL     1      20.903  -0.026  53.095  1.00  0.00     0.074 A 
HETATM   23 CL1  UNL     1      20.838  -1.376  54.225  1.00  0.00    -0.081 Cl
HETATM   24  C13 UNL     1      21.900   0.907  53.232  1.00  0.00     0.056 A 
ENDBRANCH  15  17
ENDBRANCH   5  15
BRANCH  10  25
HETATM   25  O2  UNL     1      27.767   4.179  48.805  1.00  0.00    -0.356 OA
HETATM   26  H11 UNL     1      27.868   3.256  48.389  1.00  0.00     0.218 HD
ENDBRANCH  10  25
BRANCH   1  27
HETATM   27  O1  UNL     1      26.380   6.386  48.083  1.00  0.00    -0.346 OA
BRANCH  27  28
HETATM   28  C2  UNL     1      27.199   7.480  48.362  1.00  0.00     0.171 C 
HETATM   29  C1  UNL     1      28.550   7.433  47.717  1.00  0.00     0.034 C 
ENDBRANCH  27  28
ENDBRANCH   1  27
TORSDOF 5
ENDMDL
MODEL 9
REMARK VINA RESULT:      -7.1      4.801      6.289
REMARK  5 active torsions:
REMARK  status: ('A' for Active; 'I' for Inactive)
REMARK    1  A    between atoms: C2_2  and  O1_3 
REMARK    2  A    between atoms: O1_3  and  C3_4 
REMARK    3  A    between atoms: C7_8  and  N1_9 
REMARK    4  A    between atoms: N1_9  and  C8_10 
REMARK    5  A    between atoms: C16_22  and  O2_23 
ROOT
HETATM    1  C3  UNL     1      21.169   0.898  50.834  1.00  0.00     0.140 A 
HETATM    2  C4  UNL     1      22.381   1.156  51.477  1.00  0.00     0.139 A 
HETATM    3  C5  UNL     1      23.245   2.113  51.022  1.00  0.00     0.121 A 
HETATM    4  C6  UNL     1      22.964   2.865  49.917  1.00  0.00     0.078 A 
HETATM    5  C7  UNL     1      23.877   3.809  49.518  1.00  0.00     0.145 A 
HETATM    6  N2  UNL     1      23.535   4.501  48.434  1.00  0.00    -0.223 NA
HETATM    7  C14 UNL     1      22.387   4.300  47.775  1.00  0.00     0.236 A 
HETATM    8  N3  UNL     1      21.510   3.371  48.187  1.00  0.00    -0.238 NA
HETATM    9  C15 UNL     1      21.771   2.627  49.268  1.00  0.00     0.111 A 
HETATM   10  C16 UNL     1      20.883   1.665  49.708  1.00  0.00     0.132 A 
HETATM   11  O3  UNL     1      24.399   2.253  51.761  1.00  0.00    -0.345 OA
HETATM   12  C17 UNL     1      24.438   1.752  53.074  1.00  0.00     0.202 C 
HETATM   13  C18 UNL     1      23.899   0.315  53.115  1.00  0.00     0.202 C 
HETATM   14  O4  UNL     1      22.582   0.345  52.587  1.00  0.00    -0.343 OA
ENDROOT
BRANCH   5  15
HETATM   15  N1  UNL     1      25.122   4.080  50.136  1.00  0.00    -0.340 N 
HETATM   16  H6  UNL     1      25.645   3.807  50.985  1.00  0.00     0.167 HD
BRANCH  15  17
HETATM   17  C8  UNL     1      26.058   4.988  49.539  1.00  0.00     0.035 A 
HETATM   18  C9  UNL     1      27.205   4.512  48.921  1.00  0.00     0.032 A 
HETATM   19  C10 UNL     1      28.156   5.324  48.354  1.00  0.00     0.046 A 
HETATM   20  C11 UNL     1      28.000   6.692  48.377  1.00  0.00     0.138 A 
HETATM   21  F1  UNL     1      28.886   7.556  47.844  1.00  0.00    -0.204 F 
HETATM   22  C12 UNL     1      26.890   7.236  48.970  1.00  0.00     0.074 A 
HETATM   23 CL1  UNL     1      26.589   8.970  49.056  1.00  0.00    -0.081 Cl
HETATM   24  C13 UNL     1      25.974   6.375  49.520  1.00  0.00     0.056 A 
ENDBRANCH  15  17
ENDBRANCH   5  15
BRANCH  10  25
HETATM   25  O2  UNL     1      19.706   1.533  48.944  1.00  0.00    -0.356 OA
HETATM   26  H11 UNL     1      19.145   0.698  49.103  1.00  0.00     0.218 HD
ENDBRANCH  10  25
BRANCH   1  27
HETATM   27  O1  UNL     1      20.168  -0.008  51.119  1.00  0.00    -0.346 OA
BRANCH  27  28
HETATM   28  C2  UNL     1      19.180   0.187  52.084  1.00  0.00     0.171 C 
HETATM   29  C1  UNL     1      17.837  -0.371  51.727  1.00  0.00     0.034 C 
ENDBRANCH  27  28
ENDBRANCH   1  27
TORSDOF 5
ENDMDL
