MODEL 1
REMARK VINA RESULT:      -8.7      0.000      0.000
REMARK  3 active torsions:
REMARK  status: ('A' for Active; 'I' for Inactive)
REMARK    1  A    between atoms: C2_2  and  O2_4 
REMARK    2  A    between atoms: O2_4  and  C3_5 
REMARK    3  A    between atoms: C3_5  and  N1_6 
ROOT
HETATM    1  N1  UNL     1      27.096   2.132  51.985  1.00  0.00    -0.303 N 
HETATM    2  C4  UNL     1      26.676   0.826  51.704  1.00  0.00     0.152 C 
HETATM    3  C5  UNL     1      25.635   0.228  52.616  1.00  0.00     0.100 C 
HETATM    4  C6  UNL     1      24.386   1.010  52.659  1.00  0.00     0.103 C 
HETATM    5  N2  UNL     1      24.886   2.167  52.901  1.00  0.00    -0.229 NA
HETATM    6  C7  UNL     1      24.040   3.286  53.033  1.00  0.00     0.230 C 
HETATM    7  N3  UNL     1      23.664   3.926  52.038  1.00  0.00    -0.263 NA
HETATM    8  C8  UNL     1      23.785   3.949  50.672  1.00  0.00     0.097 C 
HETATM    9  C9  UNL     1      22.556   4.272  49.904  1.00  0.00     0.007 C 
HETATM   10  C10 UNL     1      21.805   3.167  50.200  1.00  0.00    -0.019 C 
HETATM   11  C11 UNL     1      21.455   1.858  50.807  1.00  0.00     0.116 A 
HETATM   12  C12 UNL     1      22.103   0.996  51.621  1.00  0.00     0.030 A 
HETATM   13  C13 UNL     1      20.849   0.217  51.488  1.00  0.00     0.036 A 
HETATM   14  C14 UNL     1      20.102   0.965  50.694  1.00  0.00     0.231 A 
HETATM   15 CL1  UNL     1      18.516   0.885  49.994  1.00  0.00    -0.256 Cl
HETATM   16  N4  UNL     1      23.132   0.405  52.457  1.00  0.00    -0.372 N 
HETATM   17  C15 UNL     1      24.984   4.810  50.386  1.00  0.00     0.037 C 
HETATM   18  C16 UNL     1      25.714   3.728  50.587  1.00  0.00     0.027 C 
HETATM   19  C17 UNL     1      24.614   3.005  49.899  1.00  0.00     0.100 C 
HETATM   20  N5  UNL     1      26.907   3.142  51.102  1.00  0.00    -0.305 N 
HETATM   21  H16 UNL     1      22.896  -0.490  52.897  1.00  0.00     0.161 HD
HETATM   22  H20 UNL     1      27.907   3.412  50.864  1.00  0.00     0.186 HD
ENDROOT
BRANCH   1  23
HETATM   23  C3  UNL     1      27.868   2.374  53.144  1.00  0.00     0.321 C 
BRANCH  23  24
HETATM   24  O2  UNL     1      29.006   1.534  53.127  1.00  0.00    -0.300 OA
BRANCH  24  25
HETATM   25  C2  UNL     1      29.184   0.534  54.054  1.00  0.00     0.256 C 
HETATM   26  C1  UNL     1      29.871  -0.726  53.705  1.00  0.00     0.126 C 
HETATM   27  O1  UNL     1      28.698   0.861  55.155  1.00  0.00    -0.266 OA
ENDBRANCH  24  25
ENDBRANCH  23  24
ENDBRANCH   1  23
TORSDOF 3
ENDMDL
MODEL 2
REMARK VINA RESULT:      -7.9      2.565      3.971
REMARK  3 active torsions:
REMARK  status: ('A' for Active; 'I' for Inactive)
REMARK    1  A    between atoms: C2_2  and  O2_4 
REMARK    2  A    between atoms: O2_4  and  C3_5 
REMARK    3  A    between atoms: C3_5  and  N1_6 
ROOT
HETATM    1  N1  UNL     1      23.745   1.000  52.492  1.00  0.00    -0.303 N 
HETATM    2  C4  UNL     1      23.502  -0.289  52.982  1.00  0.00     0.152 C 
HETATM    3  C5  UNL     1      22.546  -0.415  54.141  1.00  0.00     0.100 C 
HETATM    4  C6  UNL     1      21.204   0.120  53.844  1.00  0.00     0.103 C 
HETATM    5  N2  UNL     1      21.546   1.273  53.395  1.00  0.00    -0.229 NA
HETATM    6  C7  UNL     1      20.560   2.182  52.966  1.00  0.00     0.230 C 
HETATM    7  N3  UNL     1      20.107   2.137  51.811  1.00  0.00    -0.263 NA
HETATM    8  C8  UNL     1      20.228   1.435  50.640  1.00  0.00     0.097 C 
HETATM    9  C9  UNL     1      18.971   1.151  49.904  1.00  0.00     0.007 C 
HETATM   10  C10 UNL     1      18.371   0.304  50.795  1.00  0.00    -0.019 C 
HETATM   11  C11 UNL     1      18.194  -0.501  52.030  1.00  0.00     0.116 A 
HETATM   12  C12 UNL     1      18.946  -0.709  53.132  1.00  0.00     0.030 A 
HETATM   13  C13 UNL     1      17.807  -1.572  53.522  1.00  0.00     0.036 A 
HETATM   14  C14 UNL     1      16.971  -1.460  52.505  1.00  0.00     0.231 A 
HETATM   15 CL1  UNL     1      15.412  -2.084  52.066  1.00  0.00    -0.256 Cl
HETATM   16  N4  UNL     1      20.041  -0.636  54.083  1.00  0.00    -0.372 N 
HETATM   17  C15 UNL     1      21.304   2.135  49.857  1.00  0.00     0.037 C 
HETATM   18  C16 UNL     1      22.170   1.422  50.555  1.00  0.00     0.027 C 
HETATM   19  C17 UNL     1      21.177   0.323  50.437  1.00  0.00     0.100 C 
HETATM   20  N5  UNL     1      23.427   1.345  51.221  1.00  0.00    -0.305 N 
HETATM   21  H16 UNL     1      19.924  -1.172  54.948  1.00  0.00     0.161 HD
HETATM   22  H20 UNL     1      24.384   1.556  50.809  1.00  0.00     0.186 HD
ENDROOT
BRANCH   1  23
HETATM   23  C3  UNL     1      24.474   1.913  53.286  1.00  0.00     0.321 C 
BRANCH  23  24
HETATM   24  O2  UNL     1      25.792   1.428  53.461  1.00  0.00    -0.300 OA
BRANCH  24  25
HETATM   25  C2  UNL     1      26.850   1.927  52.739  1.00  0.00     0.256 C 
HETATM   26  C1  UNL     1      28.130   2.276  53.388  1.00  0.00     0.126 C 
HETATM   27  O1  UNL     1      26.554   2.022  51.530  1.00  0.00    -0.266 OA
ENDBRANCH  24  25
ENDBRANCH  23  24
ENDBRANCH   1  23
TORSDOF 3
ENDMDL
MODEL 3
REMARK VINA RESULT:      -7.8      1.240      1.466
REMARK  3 active torsions:
REMARK  status: ('A' for Active; 'I' for Inactive)
REMARK    1  A    between atoms: C2_2  and  O2_4 
REMARK    2  A    between atoms: O2_4  and  C3_5 
REMARK    3  A    between atoms: C3_5  and  N1_6 
ROOT
HETATM    1  N1  UNL     1      26.357   1.983  52.481  1.00  0.00    -0.303 N 
HETATM    2  C4  UNL     1      25.583   0.835  52.268  1.00  0.00     0.152 C 
HETATM    3  C5  UNL     1      24.203   0.815  52.875  1.00  0.00     0.100 C 
HETATM    4  C6  UNL     1      23.348   1.921  52.405  1.00  0.00     0.103 C 
HETATM    5  N2  UNL     1      24.150   2.898  52.628  1.00  0.00    -0.229 NA
HETATM    6  C7  UNL     1      23.757   4.216  52.324  1.00  0.00     0.230 C 
HETATM    7  N3  UNL     1      23.899   4.679  51.180  1.00  0.00    -0.263 NA
HETATM    8  C8  UNL     1      24.360   4.335  49.936  1.00  0.00     0.097 C 
HETATM    9  C9  UNL     1      23.565   4.815  48.779  1.00  0.00     0.007 C 
HETATM   10  C10 UNL     1      22.420   4.091  48.972  1.00  0.00    -0.019 C 
HETATM   11  C11 UNL     1      21.484   3.135  49.615  1.00  0.00     0.116 A 
HETATM   12  C12 UNL     1      21.553   2.342  50.706  1.00  0.00     0.030 A 
HETATM   13  C13 UNL     1      20.180   1.966  50.291  1.00  0.00     0.036 A 
HETATM   14  C14 UNL     1      19.976   2.688  49.203  1.00  0.00     0.231 A 
HETATM   15 CL1  UNL     1      18.698   2.920  48.052  1.00  0.00    -0.256 Cl
HETATM   16  N4  UNL     1      22.055   1.689  51.902  1.00  0.00    -0.372 N 
HETATM   17  C15 UNL     1      25.819   4.701  49.929  1.00  0.00     0.037 C 
HETATM   18  C16 UNL     1      26.037   3.532  50.503  1.00  0.00     0.027 C 
HETATM   19  C17 UNL     1      24.963   3.027  49.610  1.00  0.00     0.100 C 
HETATM   20  N5  UNL     1      26.770   2.758  51.449  1.00  0.00    -0.305 N 
HETATM   21  H16 UNL     1      21.412   1.041  52.366  1.00  0.00     0.161 HD
HETATM   22  H20 UNL     1      27.826   2.651  51.508  1.00  0.00     0.186 HD
ENDROOT
BRANCH   1  23
HETATM   23  C3  UNL     1      26.845   2.254  53.779  1.00  0.00     0.321 C 
BRANCH  23  24
HETATM   24  O2  UNL     1      27.497   1.103  54.280  1.00  0.00    -0.300 OA
BRANCH  24  25
HETATM   25  C2  UNL     1      28.867   0.993  54.293  1.00  0.00     0.256 C 
HETATM   26  C1  UNL     1      29.551  -0.187  53.726  1.00  0.00     0.126 C 
HETATM   27  O1  UNL     1      29.385   1.994  54.828  1.00  0.00    -0.266 OA
ENDBRANCH  24  25
ENDBRANCH  23  24
ENDBRANCH   1  23
TORSDOF 3
ENDMDL
MODEL 4
REMARK VINA RESULT:      -7.7      3.695      5.745
REMARK  3 active torsions:
REMARK  status: ('A' for Active; 'I' for Inactive)
REMARK    1  A    between atoms: C2_2  and  O2_4 
REMARK    2  A    between atoms: O2_4  and  C3_5 
REMARK    3  A    between atoms: C3_5  and  N1_6 
ROOT
HETATM    1  N1  UNL     1      23.176   2.875  52.447  1.00  0.00    -0.303 N 
HETATM    2  C4  UNL     1      24.541   2.811  52.753  1.00  0.00     0.152 C 
HETATM    3  C5  UNL     1      25.452   2.220  51.706  1.00  0.00     0.100 C 
HETATM    4  C6  UNL     1      25.401   2.943  50.421  1.00  0.00     0.103 C 
HETATM    5  N2  UNL     1      24.128   2.956  50.254  1.00  0.00    -0.229 NA
HETATM    6  C7  UNL     1      23.576   3.567  49.111  1.00  0.00     0.230 C 
HETATM    7  N3  UNL     1      23.347   4.787  49.084  1.00  0.00    -0.263 NA
HETATM    8  C8  UNL     1      23.448   5.912  49.861  1.00  0.00     0.097 C 
HETATM    9  C9  UNL     1      23.887   7.153  49.175  1.00  0.00     0.007 C 
HETATM   10  C10 UNL     1      25.168   6.796  48.856  1.00  0.00    -0.019 C 
HETATM   11  C11 UNL     1      26.384   5.948  48.766  1.00  0.00     0.116 A 
HETATM   12  C12 UNL     1      26.690   4.699  49.180  1.00  0.00     0.030 A 
HETATM   13  C13 UNL     1      28.001   5.017  48.565  1.00  0.00     0.036 A 
HETATM   14  C14 UNL     1      27.839   6.246  48.107  1.00  0.00     0.231 A 
HETATM   15 CL1  UNL     1      28.792   7.423  47.260  1.00  0.00    -0.256 Cl
HETATM   16  N4  UNL     1      26.572   3.381  49.776  1.00  0.00    -0.372 N 
HETATM   17  C15 UNL     1      22.150   6.002  50.614  1.00  0.00     0.037 C 
HETATM   18  C16 UNL     1      22.685   5.165  51.485  1.00  0.00     0.027 C 
HETATM   19  C17 UNL     1      23.945   5.916  51.250  1.00  0.00     0.100 C 
HETATM   20  N5  UNL     1      22.523   4.060  52.370  1.00  0.00    -0.305 N 
HETATM   21  H16 UNL     1      27.397   2.778  49.705  1.00  0.00     0.161 HD
HETATM   22  H20 UNL     1      21.823   3.974  53.166  1.00  0.00     0.186 HD
ENDROOT
BRANCH   1  23
HETATM   23  C3  UNL     1      22.430   1.677  52.369  1.00  0.00     0.321 C 
BRANCH  23  24
HETATM   24  O2  UNL     1      22.597   0.947  53.569  1.00  0.00    -0.300 OA
BRANCH  24  25
HETATM   25  C2  UNL     1      22.807  -0.412  53.568  1.00  0.00     0.256 C 
HETATM   26  C1  UNL     1      21.730  -1.358  53.925  1.00  0.00     0.126 C 
HETATM   27  O1  UNL     1      23.979  -0.678  53.236  1.00  0.00    -0.266 OA
ENDBRANCH  24  25
ENDBRANCH  23  24
ENDBRANCH   1  23
TORSDOF 3
ENDMDL
MODEL 5
REMARK VINA RESULT:      -7.3      4.511      6.940
REMARK  3 active torsions:
REMARK  status: ('A' for Active; 'I' for Inactive)
REMARK    1  A    between atoms: C2_2  and  O2_4 
REMARK    2  A    between atoms: O2_4  and  C3_5 
REMARK    3  A    between atoms: C3_5  and  N1_6 
ROOT
HETATM    1  N1  UNL     1      22.454   3.986  52.106  1.00  0.00    -0.303 N 
HETATM    2  C4  UNL     1      23.738   3.591  52.500  1.00  0.00     0.152 C 
HETATM    3  C5  UNL     1      24.547   2.794  51.507  1.00  0.00     0.100 C 
HETATM    4  C6  UNL     1      24.760   3.506  50.233  1.00  0.00     0.103 C 
HETATM    5  N2  UNL     1      23.544   3.830  49.982  1.00  0.00    -0.229 NA
HETATM    6  C7  UNL     1      23.235   4.555  48.815  1.00  0.00     0.230 C 
HETATM    7  N3  UNL     1      23.314   5.794  48.792  1.00  0.00    -0.263 NA
HETATM    8  C8  UNL     1      23.633   6.862  49.590  1.00  0.00     0.097 C 
HETATM    9  C9  UNL     1      24.407   7.957  48.955  1.00  0.00     0.007 C 
HETATM   10  C10 UNL     1      25.581   7.298  48.715  1.00  0.00    -0.019 C 
HETATM   11  C11 UNL     1      26.556   6.178  48.693  1.00  0.00     0.116 A 
HETATM   12  C12 UNL     1      26.520   4.893  49.106  1.00  0.00     0.030 A 
HETATM   13  C13 UNL     1      27.907   4.879  48.584  1.00  0.00     0.036 A 
HETATM   14  C14 UNL     1      28.081   6.110  48.136  1.00  0.00     0.231 A 
HETATM   15 CL1  UNL     1      29.348   7.018  47.372  1.00  0.00    -0.256 Cl
HETATM   16  N4  UNL     1      26.044   3.643  49.673  1.00  0.00    -0.372 N 
HETATM   17  C15 UNL     1      22.348   7.267  50.258  1.00  0.00     0.037 C 
HETATM   18  C16 UNL     1      22.603   6.326  51.149  1.00  0.00     0.027 C 
HETATM   19  C17 UNL     1      24.021   6.746  51.010  1.00  0.00     0.100 C 
HETATM   20  N5  UNL     1      22.117   5.294  52.004  1.00  0.00    -0.305 N 
HETATM   21  H16 UNL     1      26.700   2.857  49.647  1.00  0.00     0.161 HD
HETATM   22  H20 UNL     1      21.365   5.383  52.751  1.00  0.00     0.186 HD
ENDROOT
BRANCH   1  23
HETATM   23  C3  UNL     1      21.445   3.007  51.961  1.00  0.00     0.321 C 
BRANCH  23  24
HETATM   24  O2  UNL     1      20.195   3.573  52.303  1.00  0.00    -0.300 OA
BRANCH  24  25
HETATM   25  C2  UNL     1      19.010   3.043  51.850  1.00  0.00     0.256 C 
HETATM   26  C1  UNL     1      18.894   1.618  51.482  1.00  0.00     0.126 C 
HETATM   27  O1  UNL     1      18.122   3.918  51.811  1.00  0.00    -0.266 OA
ENDBRANCH  24  25
ENDBRANCH  23  24
ENDBRANCH   1  23
TORSDOF 3
ENDMDL
MODEL 6
REMARK VINA RESULT:      -7.2      3.153      4.918
REMARK  3 active torsions:
REMARK  status: ('A' for Active; 'I' for Inactive)
REMARK    1  A    between atoms: C2_2  and  O2_4 
REMARK    2  A    between atoms: O2_4  and  C3_5 
REMARK    3  A    between atoms: C3_5  and  N1_6 
ROOT
HETATM    1  N1  UNL     1      23.615   5.194  51.190  1.00  0.00    -0.303 N 
HETATM    2  C4  UNL     1      22.323   5.523  51.619  1.00  0.00     0.152 C 
HETATM    3  C5  UNL     1      21.175   5.058  50.759  1.00  0.00     0.100 C 
HETATM    4  C6  UNL     1      21.139   3.593  50.586  1.00  0.00     0.103 C 
HETATM    5  N2  UNL     1      22.355   3.409  50.216  1.00  0.00    -0.229 NA
HETATM    6  C7  UNL     1      22.811   2.109  49.924  1.00  0.00     0.230 C 
HETATM    7  N3  UNL     1      23.227   1.359  50.822  1.00  0.00    -0.263 NA
HETATM    8  C8  UNL     1      23.433   1.323  52.177  1.00  0.00     0.097 C 
HETATM    9  C9  UNL     1      23.098   0.052  52.865  1.00  0.00     0.007 C 
HETATM   10  C10 UNL     1      21.741   0.047  52.687  1.00  0.00    -0.019 C 
HETATM   11  C11 UNL     1      20.406   0.515  52.237  1.00  0.00     0.116 A 
HETATM   12  C12 UNL     1      19.971   1.596  51.554  1.00  0.00     0.030 A 
HETATM   13  C13 UNL     1      18.649   0.956  51.747  1.00  0.00     0.036 A 
HETATM   14  C14 UNL     1      18.933  -0.145  52.422  1.00  0.00     0.231 A 
HETATM   15 CL1  UNL     1      18.061  -1.492  53.082  1.00  0.00    -0.256 Cl
HETATM   16  N4  UNL     1      19.967   2.853  50.826  1.00  0.00    -0.372 N 
HETATM   17  C15 UNL     1      24.831   1.836  52.387  1.00  0.00     0.037 C 
HETATM   18  C16 UNL     1      24.312   3.049  52.342  1.00  0.00     0.027 C 
HETATM   19  C17 UNL     1      23.169   2.458  53.084  1.00  0.00     0.100 C 
HETATM   20  N5  UNL     1      24.430   4.411  51.937  1.00  0.00    -0.305 N 
HETATM   21  H16 UNL     1      19.055   3.178  50.493  1.00  0.00     0.161 HD
HETATM   22  H20 UNL     1      25.224   5.080  52.166  1.00  0.00     0.186 HD
ENDROOT
BRANCH   1  23
HETATM   23  C3  UNL     1      24.136   5.815  50.032  1.00  0.00     0.321 C 
BRANCH  23  24
HETATM   24  O2  UNL     1      25.320   5.147  49.640  1.00  0.00    -0.300 OA
BRANCH  24  25
HETATM   25  C2  UNL     1      26.279   5.761  48.870  1.00  0.00     0.256 C 
HETATM   26  C1  UNL     1      27.572   5.108  48.583  1.00  0.00     0.126 C 
HETATM   27  O1  UNL     1      25.887   6.883  48.489  1.00  0.00    -0.266 OA
ENDBRANCH  24  25
ENDBRANCH  23  24
ENDBRANCH   1  23
TORSDOF 3
ENDMDL
MODEL 7
REMARK VINA RESULT:      -7.2      4.449      7.208
REMARK  3 active torsions:
REMARK  status: ('A' for Active; 'I' for Inactive)
REMARK    1  A    between atoms: C2_2  and  O2_4 
REMARK    2  A    between atoms: O2_4  and  C3_5 
REMARK    3  A    between atoms: C3_5  and  N1_6 
ROOT
HETATM    1  N1  UNL     1      20.556   2.135  48.511  1.00  0.00    -0.303 N 
HETATM    2  C4  UNL     1      21.851   1.778  48.116  1.00  0.00     0.152 C 
HETATM    3  C5  UNL     1      22.981   2.657  48.589  1.00  0.00     0.100 C 
HETATM    4  C6  UNL     1      23.063   2.751  50.058  1.00  0.00     0.103 C 
HETATM    5  N2  UNL     1      21.842   3.060  50.305  1.00  0.00    -0.229 NA
HETATM    6  C7  UNL     1      21.422   3.262  51.634  1.00  0.00     0.230 C 
HETATM    7  N3  UNL     1      21.069   2.308  52.346  1.00  0.00    -0.263 NA
HETATM    8  C8  UNL     1      20.917   0.946  52.312  1.00  0.00     0.097 C 
HETATM    9  C9  UNL     1      21.325   0.204  53.531  1.00  0.00     0.007 C 
HETATM   10  C10 UNL     1      22.673   0.436  53.500  1.00  0.00    -0.019 C 
HETATM   11  C11 UNL     1      23.971   0.966  53.012  1.00  0.00     0.116 A 
HETATM   12  C12 UNL     1      24.340   1.724  51.956  1.00  0.00     0.030 A 
HETATM   13  C13 UNL     1      25.691   1.550  52.540  1.00  0.00     0.036 A 
HETATM   14  C14 UNL     1      25.474   0.805  53.610  1.00  0.00     0.231 A 
HETATM   15 CL1  UNL     1      26.419   0.108  54.887  1.00  0.00    -0.256 Cl
HETATM   16  N4  UNL     1      24.270   2.519  50.744  1.00  0.00    -0.372 N 
HETATM   17  C15 UNL     1      19.511   0.707  51.837  1.00  0.00     0.037 C 
HETATM   18  C16 UNL     1      19.983   0.840  50.611  1.00  0.00     0.027 C 
HETATM   19  C17 UNL     1      21.175   0.114  51.121  1.00  0.00     0.100 C 
HETATM   20  N5  UNL     1      19.799   1.314  49.279  1.00  0.00    -0.305 N 
HETATM   21  H16 UNL     1      25.156   2.906  50.406  1.00  0.00     0.161 HD
HETATM   22  H20 UNL     1      18.992   1.090  48.625  1.00  0.00     0.186 HD
ENDROOT
BRANCH   1  23
HETATM   23  C3  UNL     1      19.968   3.303  47.975  1.00  0.00     0.321 C 
BRANCH  23  24
HETATM   24  O2  UNL     1      19.998   3.231  46.563  1.00  0.00    -0.300 OA
BRANCH  24  25
HETATM   25  C2  UNL     1      20.642   4.178  45.802  1.00  0.00     0.256 C 
HETATM   26  C1  UNL     1      20.867   3.981  44.355  1.00  0.00     0.126 C 
HETATM   27  O1  UNL     1      20.975   5.156  46.501  1.00  0.00    -0.266 OA
ENDBRANCH  24  25
ENDBRANCH  23  24
ENDBRANCH   1  23
TORSDOF 3
ENDMDL
MODEL 8
REMARK VINA RESULT:      -7.2      4.201      6.928
REMARK  3 active torsions:
REMARK  status: ('A' for Active; 'I' for Inactive)
REMARK    1  A    between atoms: C2_2  and  O2_4 
REMARK    2  A    between atoms: O2_4  and  C3_5 
REMARK    3  A    between atoms: C3_5  and  N1_6 
ROOT
HETATM    1  N1  UNL     1      22.359   5.585  49.218  1.00  0.00    -0.303 N 
HETATM    2  C4  UNL     1      23.500   5.147  48.534  1.00  0.00     0.152 C 
HETATM    3  C5  UNL     1      24.822   5.274  49.250  1.00  0.00     0.100 C 
HETATM    4  C6  UNL     1      24.859   4.537  50.527  1.00  0.00     0.103 C 
HETATM    5  N2  UNL     1      23.781   4.995  51.051  1.00  0.00    -0.229 NA
HETATM    6  C7  UNL     1      23.380   4.561  52.330  1.00  0.00     0.230 C 
HETATM    7  N3  UNL     1      22.719   3.520  52.475  1.00  0.00    -0.263 NA
HETATM    8  C8  UNL     1      22.160   2.497  51.753  1.00  0.00     0.097 C 
HETATM    9  C9  UNL     1      22.263   1.138  52.339  1.00  0.00     0.007 C 
HETATM   10  C10 UNL     1      23.618   0.959  52.264  1.00  0.00    -0.019 C 
HETATM   11  C11 UNL     1      25.037   1.276  51.966  1.00  0.00     0.116 A 
HETATM   12  C12 UNL     1      25.670   2.340  51.427  1.00  0.00     0.030 A 
HETATM   13  C13 UNL     1      26.874   1.508  51.656  1.00  0.00     0.036 A 
HETATM   14  C14 UNL     1      26.389   0.403  52.196  1.00  0.00     0.231 A 
HETATM   15 CL1  UNL     1      27.015  -1.103  52.787  1.00  0.00    -0.256 Cl
HETATM   16  N4  UNL     1      25.903   3.644  50.831  1.00  0.00    -0.372 N 
HETATM   17  C15 UNL     1      20.772   2.960  51.405  1.00  0.00     0.037 C 
HETATM   18  C16 UNL     1      21.320   3.590  50.382  1.00  0.00     0.027 C 
HETATM   19  C17 UNL     1      22.207   2.403  50.281  1.00  0.00     0.100 C 
HETATM   20  N5  UNL     1      21.353   4.733  49.531  1.00  0.00    -0.305 N 
HETATM   21  H16 UNL     1      26.881   3.882  50.637  1.00  0.00     0.161 HD
HETATM   22  H20 UNL     1      20.547   5.133  48.965  1.00  0.00     0.186 HD
ENDROOT
BRANCH   1  23
HETATM   23  C3  UNL     1      22.183   6.967  49.452  1.00  0.00     0.321 C 
BRANCH  23  24
HETATM   24  O2  UNL     1      20.985   7.166  50.178  1.00  0.00    -0.300 OA
BRANCH  24  25
HETATM   25  C2  UNL     1      19.913   7.836  49.638  1.00  0.00     0.256 C 
HETATM   26  C1  UNL     1      19.610   9.233  50.009  1.00  0.00     0.126 C 
HETATM   27  O1  UNL     1      19.291   7.105  48.840  1.00  0.00    -0.266 OA
ENDBRANCH  24  25
ENDBRANCH  23  24
ENDBRANCH   1  23
TORSDOF 3
ENDMDL
MODEL 9
REMARK VINA RESULT:      -7.1      4.428      7.339
REMARK  3 active torsions:
REMARK  status: ('A' for Active; 'I' for Inactive)
REMARK    1  A    between atoms: C2_2  and  O2_4 
REMARK    2  A    between atoms: O2_4  and  C3_5 
REMARK    3  A    between atoms: C3_5  and  N1_6 
ROOT
HETATM    1  N1  UNL     1      20.575   2.986  51.126  1.00  0.00    -0.303 N 
HETATM    2  C4  UNL     1      20.693   3.499  49.828  1.00  0.00     0.152 C 
HETATM    3  C5  UNL     1      21.227   4.902  49.689  1.00  0.00     0.100 C 
HETATM    4  C6  UNL     1      22.573   5.068  50.268  1.00  0.00     0.103 C 
HETATM    5  N2  UNL     1      22.354   4.559  51.426  1.00  0.00    -0.229 NA
HETATM    6  C7  UNL     1      23.394   4.493  52.374  1.00  0.00     0.230 C 
HETATM    7  N3  UNL     1      24.197   3.546  52.379  1.00  0.00    -0.263 NA
HETATM    8  C8  UNL     1      24.485   2.383  51.712  1.00  0.00     0.097 C 
HETATM    9  C9  UNL     1      25.922   2.088  51.486  1.00  0.00     0.007 C 
HETATM   10  C10 UNL     1      26.231   3.106  50.625  1.00  0.00    -0.019 C 
HETATM   11  C11 UNL     1      26.028   4.313  49.785  1.00  0.00     0.116 A 
HETATM   12  C12 UNL     1      24.967   5.107  49.522  1.00  0.00     0.030 A 
HETATM   13  C13 UNL     1      25.950   5.825  48.676  1.00  0.00     0.036 A 
HETATM   14  C14 UNL     1      27.065   5.136  48.843  1.00  0.00     0.231 A 
HETATM   15 CL1  UNL     1      28.703   5.212  48.275  1.00  0.00    -0.256 Cl
HETATM   16  N4  UNL     1      23.622   5.653  49.535  1.00  0.00    -0.372 N 
HETATM   17  C15 UNL     1      23.696   1.310  52.410  1.00  0.00     0.037 C 
HETATM   18  C16 UNL     1      22.677   1.674  51.652  1.00  0.00     0.027 C 
HETATM   19  C17 UNL     1      23.692   1.859  50.584  1.00  0.00     0.100 C 
HETATM   20  N5  UNL     1      21.274   1.895  51.521  1.00  0.00    -0.305 N 
HETATM   21  H16 UNL     1      23.473   6.497  48.974  1.00  0.00     0.161 HD
HETATM   22  H20 UNL     1      20.495   1.199  51.720  1.00  0.00     0.186 HD
ENDROOT
BRANCH   1  23
HETATM   23  C3  UNL     1      19.597   3.522  51.993  1.00  0.00     0.321 C 
BRANCH  23  24
HETATM   24  O2  UNL     1      18.465   2.674  51.997  1.00  0.00    -0.300 OA
BRANCH  24  25
HETATM   25  C2  UNL     1      17.230   3.111  51.578  1.00  0.00     0.256 C 
HETATM   26  C1  UNL     1      16.481   2.405  50.520  1.00  0.00     0.126 C 
HETATM   27  O1  UNL     1      16.886   4.132  52.208  1.00  0.00    -0.266 OA
ENDBRANCH  24  25
ENDBRANCH  23  24
ENDBRANCH   1  23
TORSDOF 3
ENDMDL
