MODEL 1
REMARK VINA RESULT:      -9.4      0.000      0.000
REMARK  5 active torsions:
REMARK  status: ('A' for Active; 'I' for Inactive)
REMARK    1  A    between atoms: C7_8  and  C8_9 
REMARK    2  A    between atoms: N3_21  and  C17_22 
REMARK    3  A    between atoms: C17_22  and  C18_23 
REMARK    4  A    between atoms: C18_23  and  C19_24 
REMARK    5  A    between atoms: C19_24  and  N4_25 
ROOT
HETATM    1  O1  UNL     1      22.722  -1.994  55.616  1.00  0.00    -0.273 OA
HETATM    2  C1  UNL     1      22.534  -1.035  54.844  1.00  0.00     0.228 A 
HETATM    3  C2  UNL     1      21.141  -0.558  54.635  1.00  0.00     0.144 A 
HETATM    4  C3  UNL     1      21.328   0.552  53.676  1.00  0.00    -0.024 A 
HETATM    5  C4  UNL     1      22.598   0.726  53.363  1.00  0.00     0.025 A 
HETATM    6  C5  UNL     1      23.222   1.716  52.449  1.00  0.00     0.101 A 
HETATM    7  C6  UNL     1      22.185   2.557  51.852  1.00  0.00     0.004 A 
HETATM    8  C7  UNL     1      22.344   3.535  50.985  1.00  0.00     0.077 A 
HETATM    9  N1  UNL     1      21.287   4.308  50.458  1.00  0.00    -0.243 NA
HETATM   10  C14 UNL     1      20.038   4.181  50.734  1.00  0.00     0.208 A 
HETATM   11  N2  UNL     1      19.690   3.163  51.659  1.00  0.00    -0.350 N 
HETATM   12  C15 UNL     1      20.759   2.377  52.195  1.00  0.00     0.042 A 
HETATM   13  C16 UNL     1      20.351   1.427  53.056  1.00  0.00     0.039 A 
HETATM   14  N3  UNL     1      23.416  -0.229  54.054  1.00  0.00    -0.321 N 
HETATM   15  H10 UNL     1      18.710   3.027  51.908  1.00  0.00     0.166 HD
ENDROOT
BRANCH  14  16
HETATM   16  C17 UNL     1      24.834  -0.566  54.140  1.00  0.00     0.133 C 
BRANCH  16  17
HETATM   17  C18 UNL     1      25.389  -0.914  52.785  1.00  0.00     0.050 C 
BRANCH  17  18
HETATM   18  C19 UNL     1      26.480  -0.017  52.302  1.00  0.00     0.274 C 
BRANCH  18  19
HETATM   19  N4  UNL     1      27.289   0.517  53.383  1.00  0.00     0.092 N 
HETATM   20  C20 UNL     1      28.564  -0.147  53.481  1.00  0.00     0.298 C 
HETATM   21  C21 UNL     1      29.630   0.586  54.200  1.00  0.00     0.198 C 
HETATM   22  O2  UNL     1      29.223   1.817  54.719  1.00  0.00    -0.388 OA
HETATM   23  C22 UNL     1      28.719   2.521  53.605  1.00  0.00     0.198 C 
HETATM   24  C23 UNL     1      27.366   1.955  53.328  1.00  0.00     0.298 C 
ENDBRANCH  18  19
ENDBRANCH  17  18
ENDBRANCH  16  17
ENDBRANCH  14  16
BRANCH   8  25
HETATM   25  C8  UNL     1      23.624   3.944  50.469  1.00  0.00    -0.004 A 
HETATM   26  C9  UNL     1      24.550   3.310  49.671  1.00  0.00     0.014 A 
HETATM   27  C10 UNL     1      25.716   3.905  49.256  1.00  0.00     0.004 A 
HETATM   28  C11 UNL     1      26.049   5.193  49.611  1.00  0.00     0.042 A 
HETATM   29  C12 UNL     1      25.172   5.902  50.414  1.00  0.00     0.117 A 
HETATM   30  F1  UNL     1      25.431   7.169  50.803  1.00  0.00    -0.206 F 
HETATM   31  C13 UNL     1      24.022   5.253  50.797  1.00  0.00     0.056 A 
ENDBRANCH   8  25
TORSDOF 5
ENDMDL
MODEL 2
REMARK VINA RESULT:      -9.2      3.268      6.304
REMARK  5 active torsions:
REMARK  status: ('A' for Active; 'I' for Inactive)
REMARK    1  A    between atoms: C7_8  and  C8_9 
REMARK    2  A    between atoms: N3_21  and  C17_22 
REMARK    3  A    between atoms: C17_22  and  C18_23 
REMARK    4  A    between atoms: C18_23  and  C19_24 
REMARK    5  A    between atoms: C19_24  and  N4_25 
ROOT
HETATM    1  O1  UNL     1      21.631   4.122  49.213  1.00  0.00    -0.273 OA
HETATM    2  C1  UNL     1      22.030   3.309  50.068  1.00  0.00     0.228 A 
HETATM    3  C2  UNL     1      21.043   2.755  51.032  1.00  0.00     0.144 A 
HETATM    4  C3  UNL     1      21.879   1.863  51.863  1.00  0.00    -0.024 A 
HETATM    5  C4  UNL     1      23.140   1.864  51.474  1.00  0.00     0.025 A 
HETATM    6  C5  UNL     1      24.302   1.119  52.023  1.00  0.00     0.101 A 
HETATM    7  C6  UNL     1      23.875   0.313  53.166  1.00  0.00     0.004 A 
HETATM    8  C7  UNL     1      24.618  -0.470  53.920  1.00  0.00     0.077 A 
HETATM    9  N1  UNL     1      24.127  -1.225  55.006  1.00  0.00    -0.243 NA
HETATM   10  C14 UNL     1      22.911  -1.263  55.420  1.00  0.00     0.208 A 
HETATM   11  N2  UNL     1      21.971  -0.469  54.713  1.00  0.00    -0.350 N 
HETATM   12  C15 UNL     1      22.466   0.298  53.611  1.00  0.00     0.042 A 
HETATM   13  C16 UNL     1      21.520   1.032  52.997  1.00  0.00     0.039 A 
HETATM   14  N3  UNL     1      23.316   2.745  50.356  1.00  0.00    -0.321 N 
HETATM   15  H10 UNL     1      20.994  -0.470  55.006  1.00  0.00     0.166 HD
ENDROOT
BRANCH  14  16
HETATM   16  C17 UNL     1      24.411   3.186  49.497  1.00  0.00     0.133 C 
BRANCH  16  17
HETATM   17  C18 UNL     1      25.036   4.448  50.026  1.00  0.00     0.050 C 
BRANCH  17  18
HETATM   18  C19 UNL     1      25.326   5.487  48.994  1.00  0.00     0.274 C 
BRANCH  18  19
HETATM   19  N4  UNL     1      26.686   5.991  49.070  1.00  0.00     0.092 N 
HETATM   20  C20 UNL     1      27.651   4.995  48.678  1.00  0.00     0.298 C 
HETATM   21  C21 UNL     1      28.981   5.499  48.267  1.00  0.00     0.198 C 
HETATM   22  O2  UNL     1      29.117   6.885  48.359  1.00  0.00    -0.388 OA
HETATM   23  C22 UNL     1      28.062   7.397  47.573  1.00  0.00     0.198 C 
HETATM   24  C23 UNL     1      26.822   7.255  48.392  1.00  0.00     0.298 C 
ENDBRANCH  18  19
ENDBRANCH  17  18
ENDBRANCH  16  17
ENDBRANCH  14  16
BRANCH   8  25
HETATM   25  C8  UNL     1      26.031  -0.661  53.722  1.00  0.00    -0.004 A 
HETATM   26  C9  UNL     1      26.750  -1.436  52.839  1.00  0.00     0.014 A 
HETATM   27  C10 UNL     1      28.122  -1.444  52.793  1.00  0.00     0.004 A 
HETATM   28  C11 UNL     1      28.890  -0.670  53.635  1.00  0.00     0.042 A 
HETATM   29  C12 UNL     1      28.245   0.138  54.554  1.00  0.00     0.117 A 
HETATM   30  F1  UNL     1      28.931   0.924  55.413  1.00  0.00    -0.206 F 
HETATM   31  C13 UNL     1      26.870   0.104  54.553  1.00  0.00     0.056 A 
ENDBRANCH   8  25
TORSDOF 5
ENDMDL
MODEL 3
REMARK VINA RESULT:      -9.1      3.142      6.051
REMARK  5 active torsions:
REMARK  status: ('A' for Active; 'I' for Inactive)
REMARK    1  A    between atoms: C7_8  and  C8_9 
REMARK    2  A    between atoms: N3_21  and  C17_22 
REMARK    3  A    between atoms: C17_22  and  C18_23 
REMARK    4  A    between atoms: C18_23  and  C19_24 
REMARK    5  A    between atoms: C19_24  and  N4_25 
ROOT
HETATM    1  O1  UNL     1      20.284   1.947  49.138  1.00  0.00    -0.273 OA
HETATM    2  C1  UNL     1      21.034   1.528  50.038  1.00  0.00     0.228 A 
HETATM    3  C2  UNL     1      20.461   0.626  51.073  1.00  0.00     0.144 A 
HETATM    4  C3  UNL     1      21.627   0.360  51.942  1.00  0.00    -0.024 A 
HETATM    5  C4  UNL     1      22.712   0.977  51.515  1.00  0.00     0.025 A 
HETATM    6  C5  UNL     1      24.085   0.982  52.081  1.00  0.00     0.101 A 
HETATM    7  C6  UNL     1      24.120   0.167  53.295  1.00  0.00     0.004 A 
HETATM    8  C7  UNL     1      25.152  -0.059  54.081  1.00  0.00     0.077 A 
HETATM    9  N1  UNL     1      25.106  -0.867  55.237  1.00  0.00    -0.243 NA
HETATM   10  C14 UNL     1      24.078  -1.491  55.691  1.00  0.00     0.208 A 
HETATM   11  N2  UNL     1      22.872  -1.353  54.956  1.00  0.00    -0.350 N 
HETATM   12  C15 UNL     1      22.915  -0.534  53.784  1.00  0.00     0.042 A 
HETATM   13  C16 UNL     1      21.733  -0.442  53.146  1.00  0.00     0.039 A 
HETATM   14  N3  UNL     1      22.423   1.729  50.327  1.00  0.00    -0.321 N 
HETATM   15  H10 UNL     1      22.031  -1.832  55.279  1.00  0.00     0.166 HD
ENDROOT
BRANCH  14  16
HETATM   16  C17 UNL     1      23.145   2.598  49.404  1.00  0.00     0.133 C 
BRANCH  16  17
HETATM   17  C18 UNL     1      23.067   4.036  49.843  1.00  0.00     0.050 C 
BRANCH  17  18
HETATM   18  C19 UNL     1      24.018   4.414  50.931  1.00  0.00     0.274 C 
BRANCH  18  19
HETATM   19  N4  UNL     1      25.163   5.159  50.441  1.00  0.00     0.092 N 
HETATM   20  C20 UNL     1      26.097   4.315  49.740  1.00  0.00     0.298 C 
HETATM   21  C21 UNL     1      27.030   4.997  48.816  1.00  0.00     0.198 C 
HETATM   22  O2  UNL     1      26.891   6.386  48.791  1.00  0.00    -0.388 OA
HETATM   23  C22 UNL     1      25.534   6.601  48.468  1.00  0.00     0.198 C 
HETATM   24  C23 UNL     1      24.759   6.336  49.716  1.00  0.00     0.298 C 
ENDBRANCH  18  19
ENDBRANCH  17  18
ENDBRANCH  16  17
ENDBRANCH  14  16
BRANCH   8  25
HETATM   25  C8  UNL     1      26.464   0.488  53.854  1.00  0.00    -0.004 A 
HETATM   26  C9  UNL     1      26.931   1.782  53.781  1.00  0.00     0.014 A 
HETATM   27  C10 UNL     1      28.256   2.091  53.588  1.00  0.00     0.004 A 
HETATM   28  C11 UNL     1      29.224   1.121  53.453  1.00  0.00     0.042 A 
HETATM   29  C12 UNL     1      28.838  -0.207  53.515  1.00  0.00     0.117 A 
HETATM   30  F1  UNL     1      29.730  -1.212  53.390  1.00  0.00    -0.206 F 
HETATM   31  C13 UNL     1      27.499  -0.454  53.709  1.00  0.00     0.056 A 
ENDBRANCH   8  25
TORSDOF 5
ENDMDL
MODEL 4
REMARK VINA RESULT:      -9.1      3.050      5.010
REMARK  5 active torsions:
REMARK  status: ('A' for Active; 'I' for Inactive)
REMARK    1  A    between atoms: C7_8  and  C8_9 
REMARK    2  A    between atoms: N3_21  and  C17_22 
REMARK    3  A    between atoms: C17_22  and  C18_23 
REMARK    4  A    between atoms: C18_23  and  C19_24 
REMARK    5  A    between atoms: C19_24  and  N4_25 
ROOT
HETATM    1  O1  UNL     1      26.353  -0.696  55.247  1.00  0.00    -0.273 OA
HETATM    2  C1  UNL     1      25.230  -0.584  54.722  1.00  0.00     0.228 A 
HETATM    3  C2  UNL     1      24.060  -1.180  55.421  1.00  0.00     0.144 A 
HETATM    4  C3  UNL     1      22.946  -0.853  54.507  1.00  0.00    -0.024 A 
HETATM    5  C4  UNL     1      23.354  -0.177  53.451  1.00  0.00     0.025 A 
HETATM    6  C5  UNL     1      22.575   0.347  52.301  1.00  0.00     0.101 A 
HETATM    7  C6  UNL     1      21.165  -0.012  52.456  1.00  0.00     0.004 A 
HETATM    8  C7  UNL     1      20.172   0.262  51.637  1.00  0.00     0.077 A 
HETATM    9  N1  UNL     1      18.831  -0.115  51.863  1.00  0.00    -0.243 NA
HETATM   10  C14 UNL     1      18.383  -0.769  52.875  1.00  0.00     0.208 A 
HETATM   11  N2  UNL     1      19.330  -1.147  53.861  1.00  0.00    -0.350 N 
HETATM   12  C15 UNL     1      20.691  -0.766  53.635  1.00  0.00     0.042 A 
HETATM   13  C16 UNL     1      21.532  -1.167  54.606  1.00  0.00     0.039 A 
HETATM   14  N3  UNL     1      24.772   0.032  53.512  1.00  0.00    -0.321 N 
HETATM   15  H10 UNL     1      19.019  -1.666  54.682  1.00  0.00     0.166 HD
ENDROOT
BRANCH  14  16
HETATM   16  C17 UNL     1      25.800   0.670  52.695  1.00  0.00     0.133 C 
BRANCH  16  17
HETATM   17  C18 UNL     1      25.719   2.169  52.799  1.00  0.00     0.050 C 
BRANCH  17  18
HETATM   18  C19 UNL     1      25.493   2.878  51.504  1.00  0.00     0.274 C 
BRANCH  18  19
HETATM   19  N4  UNL     1      24.091   3.157  51.253  1.00  0.00     0.092 N 
HETATM   20  C20 UNL     1      23.499   3.938  52.310  1.00  0.00     0.298 C 
HETATM   21  C21 UNL     1      22.258   4.668  51.967  1.00  0.00     0.198 C 
HETATM   22  O2  UNL     1      21.816   4.456  50.659  1.00  0.00    -0.388 OA
HETATM   23  C22 UNL     1      22.915   4.819  49.852  1.00  0.00     0.198 C 
HETATM   24  C23 UNL     1      23.885   3.687  49.930  1.00  0.00     0.298 C 
ENDBRANCH  18  19
ENDBRANCH  17  18
ENDBRANCH  16  17
ENDBRANCH  14  16
BRANCH   8  25
HETATM   25  C8  UNL     1      20.329   0.991  50.407  1.00  0.00    -0.004 A 
HETATM   26  C9  UNL     1      21.287   0.950  49.417  1.00  0.00     0.014 A 
HETATM   27  C10 UNL     1      21.229   1.721  48.283  1.00  0.00     0.004 A 
HETATM   28  C11 UNL     1      20.197   2.604  48.048  1.00  0.00     0.042 A 
HETATM   29  C12 UNL     1      19.192   2.708  48.993  1.00  0.00     0.117 A 
HETATM   30  F1  UNL     1      18.150   3.551  48.832  1.00  0.00    -0.206 F 
HETATM   31  C13 UNL     1      19.306   1.910  50.108  1.00  0.00     0.056 A 
ENDBRANCH   8  25
TORSDOF 5
ENDMDL
MODEL 5
REMARK VINA RESULT:      -8.6      2.775      5.981
REMARK  5 active torsions:
REMARK  status: ('A' for Active; 'I' for Inactive)
REMARK    1  A    between atoms: C7_8  and  C8_9 
REMARK    2  A    between atoms: N3_21  and  C17_22 
REMARK    3  A    between atoms: C17_22  and  C18_23 
REMARK    4  A    between atoms: C18_23  and  C19_24 
REMARK    5  A    between atoms: C19_24  and  N4_25 
ROOT
HETATM    1  O1  UNL     1      28.857   1.462  52.976  1.00  0.00    -0.273 OA
HETATM    2  C1  UNL     1      27.656   1.142  53.053  1.00  0.00     0.228 A 
HETATM    3  C2  UNL     1      27.239   0.220  54.142  1.00  0.00     0.144 A 
HETATM    4  C3  UNL     1      25.788   0.079  53.899  1.00  0.00    -0.024 A 
HETATM    5  C4  UNL     1      25.390   0.789  52.861  1.00  0.00     0.025 A 
HETATM    6  C5  UNL     1      24.032   0.935  52.276  1.00  0.00     0.101 A 
HETATM    7  C6  UNL     1      23.081   0.117  53.028  1.00  0.00     0.004 A 
HETATM    8  C7  UNL     1      21.792  -0.025  52.805  1.00  0.00     0.077 A 
HETATM    9  N1  UNL     1      20.936  -0.832  53.585  1.00  0.00    -0.243 NA
HETATM   10  C14 UNL     1      21.273  -1.537  54.606  1.00  0.00     0.208 A 
HETATM   11  N2  UNL     1      22.640  -1.498  54.985  1.00  0.00    -0.350 N 
HETATM   12  C15 UNL     1      23.511  -0.680  54.196  1.00  0.00     0.042 A 
HETATM   13  C16 UNL     1      24.791  -0.702  54.609  1.00  0.00     0.039 A 
HETATM   14  N3  UNL     1      26.501   1.483  52.276  1.00  0.00    -0.321 N 
HETATM   15  H10 UNL     1      22.952  -2.041  55.789  1.00  0.00     0.166 HD
ENDROOT
BRANCH  14  16
HETATM   16  C17 UNL     1      26.734   2.387  51.154  1.00  0.00     0.133 C 
BRANCH  16  17
HETATM   17  C18 UNL     1      25.662   3.441  51.080  1.00  0.00     0.050 C 
BRANCH  17  18
HETATM   18  C19 UNL     1      24.924   3.498  49.783  1.00  0.00     0.274 C 
BRANCH  18  19
HETATM   19  N4  UNL     1      23.855   4.480  49.788  1.00  0.00     0.092 N 
HETATM   20  C20 UNL     1      22.736   4.054  50.591  1.00  0.00     0.298 C 
HETATM   21  C21 UNL     1      21.818   5.120  51.051  1.00  0.00     0.198 C 
HETATM   22  O2  UNL     1      22.156   6.397  50.598  1.00  0.00    -0.388 OA
HETATM   23  C22 UNL     1      23.487   6.585  51.030  1.00  0.00     0.198 C 
HETATM   24  C23 UNL     1      24.346   5.798  50.097  1.00  0.00     0.298 C 
ENDBRANCH  18  19
ENDBRANCH  17  18
ENDBRANCH  16  17
ENDBRANCH  14  16
BRANCH   8  25
HETATM   25  C8  UNL     1      21.089   0.635  51.737  1.00  0.00    -0.004 A 
HETATM   26  C9  UNL     1      21.125   0.485  50.368  1.00  0.00     0.014 A 
HETATM   27  C10 UNL     1      20.329   1.207  49.513  1.00  0.00     0.004 A 
HETATM   28  C11 UNL     1      19.425   2.143  49.965  1.00  0.00     0.042 A 
HETATM   29  C12 UNL     1      19.326   2.356  51.329  1.00  0.00     0.117 A 
HETATM   30  F1  UNL     1      18.464   3.258  51.846  1.00  0.00    -0.206 F 
HETATM   31  C13 UNL     1      20.149   1.604  52.134  1.00  0.00     0.056 A 
ENDBRANCH   8  25
TORSDOF 5
ENDMDL
MODEL 6
REMARK VINA RESULT:      -8.6      3.364      6.060
REMARK  5 active torsions:
REMARK  status: ('A' for Active; 'I' for Inactive)
REMARK    1  A    between atoms: C7_8  and  C8_9 
REMARK    2  A    between atoms: N3_21  and  C17_22 
REMARK    3  A    between atoms: C17_22  and  C18_23 
REMARK    4  A    between atoms: C18_23  and  C19_24 
REMARK    5  A    between atoms: C19_24  and  N4_25 
ROOT
HETATM    1  O1  UNL     1      17.367   1.225  49.520  1.00  0.00    -0.273 OA
HETATM    2  C1  UNL     1      18.308   0.922  50.276  1.00  0.00     0.228 A 
HETATM    3  C2  UNL     1      18.017   0.075  51.463  1.00  0.00     0.144 A 
HETATM    4  C3  UNL     1      19.347  -0.054  52.094  1.00  0.00    -0.024 A 
HETATM    5  C4  UNL     1      20.280   0.588  51.417  1.00  0.00     0.025 A 
HETATM    6  C5  UNL     1      21.733   0.716  51.692  1.00  0.00     0.101 A 
HETATM    7  C6  UNL     1      22.066   0.004  52.926  1.00  0.00     0.004 A 
HETATM    8  C7  UNL     1      23.246  -0.099  53.501  1.00  0.00     0.077 A 
HETATM    9  N1  UNL     1      23.486  -0.814  54.693  1.00  0.00    -0.243 NA
HETATM   10  C14 UNL     1      22.616  -1.457  55.387  1.00  0.00     0.208 A 
HETATM   11  N2  UNL     1      21.282  -1.447  54.903  1.00  0.00    -0.350 N 
HETATM   12  C15 UNL     1      21.034  -0.723  53.694  1.00  0.00     0.042 A 
HETATM   13  C16 UNL     1      19.746  -0.749  53.304  1.00  0.00     0.039 A 
HETATM   14  N3  UNL     1      19.709   1.224  50.264  1.00  0.00    -0.321 N 
HETATM   15  H10 UNL     1      20.558  -1.945  55.421  1.00  0.00     0.166 HD
ENDROOT
BRANCH  14  16
HETATM   16  C17 UNL     1      20.170   2.057  49.158  1.00  0.00     0.133 C 
BRANCH  16  17
HETATM   17  C18 UNL     1      21.349   1.429  48.466  1.00  0.00     0.050 C 
BRANCH  17  18
HETATM   18  C19 UNL     1      22.251   2.389  47.761  1.00  0.00     0.274 C 
BRANCH  18  19
HETATM   19  N4  UNL     1      22.622   3.522  48.589  1.00  0.00     0.092 N 
HETATM   20  C20 UNL     1      23.917   3.343  49.197  1.00  0.00     0.298 C 
HETATM   21  C21 UNL     1      24.597   4.573  49.660  1.00  0.00     0.198 C 
HETATM   22  O2  UNL     1      23.854   5.740  49.471  1.00  0.00    -0.388 OA
HETATM   23  C22 UNL     1      23.561   5.753  48.091  1.00  0.00     0.198 C 
HETATM   24  C23 UNL     1      22.459   4.768  47.886  1.00  0.00     0.298 C 
ENDBRANCH  18  19
ENDBRANCH  17  18
ENDBRANCH  16  17
ENDBRANCH  14  16
BRANCH   8  25
HETATM   25  C8  UNL     1      24.444   0.502  52.977  1.00  0.00    -0.004 A 
HETATM   26  C9  UNL     1      24.740   1.784  52.571  1.00  0.00     0.014 A 
HETATM   27  C10 UNL     1      25.983   2.163  52.129  1.00  0.00     0.004 A 
HETATM   28  C11 UNL     1      27.038   1.280  52.057  1.00  0.00     0.042 A 
HETATM   29  C12 UNL     1      26.825  -0.031  52.447  1.00  0.00     0.117 A 
HETATM   30  F1  UNL     1      27.810  -0.954  52.404  1.00  0.00    -0.206 F 
HETATM   31  C13 UNL     1      25.559  -0.350  52.880  1.00  0.00     0.056 A 
ENDBRANCH   8  25
TORSDOF 5
ENDMDL
MODEL 7
REMARK VINA RESULT:      -8.5      3.446      7.560
REMARK  5 active torsions:
REMARK  status: ('A' for Active; 'I' for Inactive)
REMARK    1  A    between atoms: C7_8  and  C8_9 
REMARK    2  A    between atoms: N3_21  and  C17_22 
REMARK    3  A    between atoms: C17_22  and  C18_23 
REMARK    4  A    between atoms: C18_23  and  C19_24 
REMARK    5  A    between atoms: C19_24  and  N4_25 
ROOT
HETATM    1  O1  UNL     1      27.104   3.552  50.191  1.00  0.00    -0.273 OA
HETATM    2  C1  UNL     1      26.371   2.829  50.890  1.00  0.00     0.228 A 
HETATM    3  C2  UNL     1      26.985   2.080  52.019  1.00  0.00     0.144 A 
HETATM    4  C3  UNL     1      25.827   1.355  52.584  1.00  0.00    -0.024 A 
HETATM    5  C4  UNL     1      24.713   1.616  51.929  1.00  0.00     0.025 A 
HETATM    6  C5  UNL     1      23.336   1.109  52.159  1.00  0.00     0.101 A 
HETATM    7  C6  UNL     1      23.336   0.179  53.289  1.00  0.00     0.004 A 
HETATM    8  C7  UNL     1      22.312  -0.483  53.784  1.00  0.00     0.077 A 
HETATM    9  N1  UNL     1      22.393  -1.360  54.886  1.00  0.00    -0.243 NA
HETATM   10  C14 UNL     1      23.451  -1.644  55.559  1.00  0.00     0.208 A 
HETATM   11  N2  UNL     1      24.654  -1.012  55.152  1.00  0.00    -0.350 N 
HETATM   12  C15 UNL     1      24.576  -0.121  54.035  1.00  0.00     0.042 A 
HETATM   13  C16 UNL     1      25.756   0.432  53.702  1.00  0.00     0.039 A 
HETATM   14  N3  UNL     1      24.969   2.531  50.854  1.00  0.00    -0.321 N 
HETATM   15  H10 UNL     1      25.518  -1.207  55.658  1.00  0.00     0.166 HD
ENDROOT
BRANCH  14  16
HETATM   16  C17 UNL     1      24.207   3.187  49.796  1.00  0.00     0.133 C 
BRANCH  16  17
HETATM   17  C18 UNL     1      23.910   4.619  50.153  1.00  0.00     0.050 C 
BRANCH  17  18
HETATM   18  C19 UNL     1      23.198   4.809  51.452  1.00  0.00     0.274 C 
BRANCH  18  19
HETATM   19  N4  UNL     1      21.797   5.147  51.281  1.00  0.00     0.092 N 
HETATM   20  C20 UNL     1      21.532   5.697  49.975  1.00  0.00     0.298 C 
HETATM   21  C21 UNL     1      20.126   5.642  49.516  1.00  0.00     0.198 C 
HETATM   22  O2  UNL     1      19.244   5.091  50.447  1.00  0.00    -0.388 OA
HETATM   23  C22 UNL     1      19.784   3.819  50.736  1.00  0.00     0.198 C 
HETATM   24  C23 UNL     1      20.938   4.053  51.654  1.00  0.00     0.298 C 
ENDBRANCH  18  19
ENDBRANCH  17  18
ENDBRANCH  16  17
ENDBRANCH  14  16
BRANCH   8  25
HETATM   25  C8  UNL     1      20.973  -0.386  53.266  1.00  0.00    -0.004 A 
HETATM   26  C9  UNL     1      20.403   0.424  52.308  1.00  0.00     0.014 A 
HETATM   27  C10 UNL     1      19.086   0.325  51.929  1.00  0.00     0.004 A 
HETATM   28  C11 UNL     1      18.230  -0.600  52.484  1.00  0.00     0.042 A 
HETATM   29  C12 UNL     1      18.723  -1.453  53.455  1.00  0.00     0.117 A 
HETATM   30  F1  UNL     1      17.943  -2.385  54.044  1.00  0.00    -0.206 F 
HETATM   31  C13 UNL     1      20.048  -1.306  53.793  1.00  0.00     0.056 A 
ENDBRANCH   8  25
TORSDOF 5
ENDMDL
MODEL 8
REMARK VINA RESULT:      -8.3      3.668      7.275
REMARK  5 active torsions:
REMARK  status: ('A' for Active; 'I' for Inactive)
REMARK    1  A    between atoms: C7_8  and  C8_9 
REMARK    2  A    between atoms: N3_21  and  C17_22 
REMARK    3  A    between atoms: C17_22  and  C18_23 
REMARK    4  A    between atoms: C18_23  and  C19_24 
REMARK    5  A    between atoms: C19_24  and  N4_25 
ROOT
HETATM    1  O1  UNL     1      27.131   3.594  50.053  1.00  0.00    -0.273 OA
HETATM    2  C1  UNL     1      26.340   2.889  50.708  1.00  0.00     0.228 A 
HETATM    3  C2  UNL     1      26.866   2.135  51.876  1.00  0.00     0.144 A 
HETATM    4  C3  UNL     1      25.661   1.436  52.370  1.00  0.00    -0.024 A 
HETATM    5  C4  UNL     1      24.595   1.716  51.645  1.00  0.00     0.025 A 
HETATM    6  C5  UNL     1      23.197   1.237  51.790  1.00  0.00     0.101 A 
HETATM    7  C6  UNL     1      23.107   0.314  52.921  1.00  0.00     0.004 A 
HETATM    8  C7  UNL     1      22.040  -0.324  53.354  1.00  0.00     0.077 A 
HETATM    9  N1  UNL     1      22.034  -1.197  54.463  1.00  0.00    -0.243 NA
HETATM   10  C14 UNL     1      23.041  -1.498  55.202  1.00  0.00     0.208 A 
HETATM   11  N2  UNL     1      24.281  -0.893  54.869  1.00  0.00    -0.350 N 
HETATM   12  C15 UNL     1      24.291  -0.007  53.745  1.00  0.00     0.042 A 
HETATM   13  C16 UNL     1      25.501   0.521  53.485  1.00  0.00     0.039 A 
HETATM   14  N3  UNL     1      24.938   2.620  50.585  1.00  0.00    -0.321 N 
HETATM   15  H10 UNL     1      25.107  -1.102  55.429  1.00  0.00     0.166 HD
ENDROOT
BRANCH  14  16
HETATM   16  C17 UNL     1      24.258   3.285  49.478  1.00  0.00     0.133 C 
BRANCH  16  17
HETATM   17  C18 UNL     1      23.700   4.614  49.909  1.00  0.00     0.050 C 
BRANCH  17  18
HETATM   18  C19 UNL     1      23.859   5.716  48.914  1.00  0.00     0.274 C 
BRANCH  18  19
HETATM   19  N4  UNL     1      24.327   6.952  49.514  1.00  0.00     0.092 N 
HETATM   20  C20 UNL     1      25.712   6.872  49.905  1.00  0.00     0.298 C 
HETATM   21  C21 UNL     1      26.417   8.160  50.083  1.00  0.00     0.198 C 
HETATM   22  O2  UNL     1      25.612   9.283  49.881  1.00  0.00    -0.388 OA
HETATM   23  C22 UNL     1      25.087   9.112  48.582  1.00  0.00     0.198 C 
HETATM   24  C23 UNL     1      24.001   8.095  48.699  1.00  0.00     0.298 C 
ENDBRANCH  18  19
ENDBRANCH  17  18
ENDBRANCH  16  17
ENDBRANCH  14  16
BRANCH   8  25
HETATM   25  C8  UNL     1      20.739  -0.204  52.752  1.00  0.00    -0.004 A 
HETATM   26  C9  UNL     1      20.306   0.385  51.584  1.00  0.00     0.014 A 
HETATM   27  C10 UNL     1      18.997   0.354  51.168  1.00  0.00     0.004 A 
HETATM   28  C11 UNL     1      18.011  -0.275  51.895  1.00  0.00     0.042 A 
HETATM   29  C12 UNL     1      18.362  -0.892  53.083  1.00  0.00     0.117 A 
HETATM   30  F1  UNL     1      17.449  -1.528  53.849  1.00  0.00    -0.206 F 
HETATM   31  C13 UNL     1      19.686  -0.827  53.447  1.00  0.00     0.056 A 
ENDBRANCH   8  25
TORSDOF 5
ENDMDL
MODEL 9
REMARK VINA RESULT:      -8.3      3.553      7.601
REMARK  5 active torsions:
REMARK  status: ('A' for Active; 'I' for Inactive)
REMARK    1  A    between atoms: C7_8  and  C8_9 
REMARK    2  A    between atoms: N3_21  and  C17_22 
REMARK    3  A    between atoms: C17_22  and  C18_23 
REMARK    4  A    between atoms: C18_23  and  C19_24 
REMARK    5  A    between atoms: C19_24  and  N4_25 
ROOT
HETATM    1  O1  UNL     1      22.851   7.437  49.741  1.00  0.00    -0.273 OA
HETATM    2  C1  UNL     1      23.230   6.328  50.160  1.00  0.00     0.228 A 
HETATM    3  C2  UNL     1      24.644   5.930  49.927  1.00  0.00     0.144 A 
HETATM    4  C3  UNL     1      24.700   4.589  50.546  1.00  0.00    -0.024 A 
HETATM    5  C4  UNL     1      23.541   4.235  51.066  1.00  0.00     0.025 A 
HETATM    6  C5  UNL     1      23.161   2.987  51.776  1.00  0.00     0.101 A 
HETATM    7  C6  UNL     1      24.310   2.083  51.832  1.00  0.00     0.004 A 
HETATM    8  C7  UNL     1      24.361   0.881  52.366  1.00  0.00     0.077 A 
HETATM    9  N1  UNL     1      25.515   0.071  52.386  1.00  0.00    -0.243 NA
HETATM   10  C14 UNL     1      26.666   0.370  51.898  1.00  0.00     0.208 A 
HETATM   11  N2  UNL     1      26.785   1.641  51.279  1.00  0.00    -0.350 N 
HETATM   12  C15 UNL     1      25.616   2.466  51.257  1.00  0.00     0.042 A 
HETATM   13  C16 UNL     1      25.803   3.650  50.646  1.00  0.00     0.039 A 
HETATM   14  N3  UNL     1      22.569   5.271  50.866  1.00  0.00    -0.321 N 
HETATM   15  H10 UNL     1      27.681   1.922  50.879  1.00  0.00     0.166 HD
ENDROOT
BRANCH  14  16
HETATM   16  C17 UNL     1      21.161   5.498  51.177  1.00  0.00     0.133 C 
BRANCH  16  17
HETATM   17  C18 UNL     1      20.279   4.559  50.399  1.00  0.00     0.050 C 
BRANCH  17  18
HETATM   18  C19 UNL     1      20.408   4.658  48.915  1.00  0.00     0.274 C 
BRANCH  18  19
HETATM   19  N4  UNL     1      20.739   3.389  48.293  1.00  0.00     0.092 N 
HETATM   20  C20 UNL     1      22.091   3.369  47.795  1.00  0.00     0.298 C 
HETATM   21  C21 UNL     1      22.688   2.033  47.576  1.00  0.00     0.198 C 
HETATM   22  O2  UNL     1      21.824   0.972  47.852  1.00  0.00    -0.388 OA
HETATM   23  C22 UNL     1      21.416   1.186  49.187  1.00  0.00     0.198 C 
HETATM   24  C23 UNL     1      20.399   2.277  49.144  1.00  0.00     0.298 C 
ENDBRANCH  18  19
ENDBRANCH  17  18
ENDBRANCH  16  17
ENDBRANCH  14  16
BRANCH   8  25
HETATM   25  C8  UNL     1      23.240   0.244  53.006  1.00  0.00    -0.004 A 
HETATM   26  C9  UNL     1      21.901   0.180  52.689  1.00  0.00     0.014 A 
HETATM   27  C10 UNL     1      20.987  -0.527  53.431  1.00  0.00     0.004 A 
HETATM   28  C11 UNL     1      21.345  -1.232  54.558  1.00  0.00     0.042 A 
HETATM   29  C12 UNL     1      22.673  -1.220  54.948  1.00  0.00     0.117 A 
HETATM   30  F1  UNL     1      23.098  -1.888  56.042  1.00  0.00    -0.206 F 
HETATM   31  C13 UNL     1      23.541  -0.495  54.165  1.00  0.00     0.056 A 
ENDBRANCH   8  25
TORSDOF 5
ENDMDL
