MODEL 1
REMARK VINA RESULT:      -6.8      0.000      0.000
REMARK  9 active torsions:
REMARK  status: ('A' for Active; 'I' for Inactive)
REMARK    1  A    between atoms: O1_2  and  C2_3 
REMARK    2  A    between atoms: C6_9  and  N3_10 
REMARK    3  A    between atoms: N3_10  and  C7_11 
REMARK    4  A    between atoms: C7_11  and  C8_12 
REMARK    5  A    between atoms: C9_13  and  C10_15 
REMARK    6  A    between atoms: C13_19  and  O2_20 
REMARK    7  A    between atoms: O2_20  and  C14_21 
REMARK    8  A    between atoms: C14_21  and  C15_22 
REMARK    9  A    between atoms: C15_22  and  N4_23 
ROOT
HETATM    1  C2  UNL     1      23.494   1.052  52.926  1.00  0.00     0.103 A 
HETATM    2  C3  UNL     1      22.234   1.429  52.451  1.00  0.00     0.072 A 
HETATM    3  C4  UNL     1      22.054   2.754  52.155  1.00  0.00     0.075 A 
HETATM    4  N1  UNL     1      20.858   3.153  51.697  1.00  0.00    -0.241 NA
HETATM    5  C5  UNL     1      20.678   4.453  51.405  1.00  0.00     0.235 A 
HETATM    6  N2  UNL     1      21.640   5.375  51.549  1.00  0.00    -0.224 NA
HETATM    7  C6  UNL     1      22.861   5.052  52.002  1.00  0.00     0.137 A 
HETATM    8  C11 UNL     1      23.025   3.716  52.294  1.00  0.00     0.041 A 
HETATM    9  C12 UNL     1      24.230   3.255  52.766  1.00  0.00     0.057 A 
HETATM   10  C13 UNL     1      24.554   1.962  53.104  1.00  0.00     0.103 A 
ENDROOT
BRANCH   7  11
HETATM   11  N3  UNL     1      23.878   6.034  52.157  1.00  0.00    -0.370 N 
HETATM   12  H6  UNL     1      24.467   6.160  52.981  1.00  0.00     0.161 HD
BRANCH  11  13
HETATM   13  C7  UNL     1      24.118   6.949  51.063  1.00  0.00     0.150 C 
BRANCH  13  14
HETATM   14  C8  UNL     1      25.379   6.506  50.382  1.00  0.00     0.014 C 
HETATM   15  C9  UNL     1      25.670   5.514  49.514  1.00  0.00     0.038 C 
HETATM   16 CL1  UNL     1      27.153   4.996  48.715  1.00  0.00    -0.087 Cl
BRANCH  15  17
HETATM   17  C10 UNL     1      24.636   4.559  49.017  1.00  0.00     0.273 C 
HETATM   18  F1  UNL     1      24.949   3.294  49.464  1.00  0.00    -0.250 F 
ENDBRANCH  15  17
ENDBRANCH  13  14
ENDBRANCH  11  13
ENDBRANCH   7  11
BRANCH  10  19
HETATM   19  O2  UNL     1      25.610   1.337  53.559  1.00  0.00    -0.347 OA
BRANCH  19  20
HETATM   20  C14 UNL     1      26.854   0.901  53.311  1.00  0.00     0.206 C 
BRANCH  20  21
HETATM   21  C15 UNL     1      27.409   0.022  54.371  1.00  0.00     0.297 C 
BRANCH  21  22
HETATM   22  N4  UNL     1      28.784   0.145  54.692  1.00  0.00     0.082 N 
HETATM   23  C16 UNL     1      29.583  -0.750  53.848  1.00  0.00     0.309 C 
HETATM   24  C17 UNL     1      29.319   1.471  54.405  1.00  0.00     0.309 C 
ENDBRANCH  21  22
ENDBRANCH  20  21
ENDBRANCH  19  20
ENDBRANCH  10  19
BRANCH   1  25
HETATM   25  O1  UNL     1      23.586  -0.326  53.203  1.00  0.00    -0.353 OA
HETATM   26  C1  UNL     1      22.968  -0.894  54.323  1.00  0.00     0.210 C 
ENDBRANCH   1  25
TORSDOF 9
ENDMDL
MODEL 2
REMARK VINA RESULT:      -6.7      1.681      1.954
REMARK  9 active torsions:
REMARK  status: ('A' for Active; 'I' for Inactive)
REMARK    1  A    between atoms: O1_2  and  C2_3 
REMARK    2  A    between atoms: C6_9  and  N3_10 
REMARK    3  A    between atoms: N3_10  and  C7_11 
REMARK    4  A    between atoms: C7_11  and  C8_12 
REMARK    5  A    between atoms: C9_13  and  C10_15 
REMARK    6  A    between atoms: C13_19  and  O2_20 
REMARK    7  A    between atoms: O2_20  and  C14_21 
REMARK    8  A    between atoms: C14_21  and  C15_22 
REMARK    9  A    between atoms: C15_22  and  N4_23 
ROOT
HETATM    1  C2  UNL     1      23.527   0.292  53.196  1.00  0.00     0.103 A 
HETATM    2  C3  UNL     1      22.408   1.117  53.044  1.00  0.00     0.072 A 
HETATM    3  C4  UNL     1      22.601   2.311  52.403  1.00  0.00     0.075 A 
HETATM    4  N1  UNL     1      21.550   3.129  52.239  1.00  0.00    -0.241 NA
HETATM    5  C5  UNL     1      21.735   4.302  51.609  1.00  0.00     0.235 A 
HETATM    6  N2  UNL     1      22.926   4.698  51.135  1.00  0.00    -0.224 NA
HETATM    7  C6  UNL     1      24.021   3.935  51.262  1.00  0.00     0.137 A 
HETATM    8  C11 UNL     1      23.810   2.737  51.909  1.00  0.00     0.041 A 
HETATM    9  C12 UNL     1      24.852   1.863  52.103  1.00  0.00     0.057 A 
HETATM   10  C13 UNL     1      24.808   0.638  52.726  1.00  0.00     0.103 A 
ENDROOT
BRANCH   7  11
HETATM   11  N3  UNL     1      25.284   4.359  50.762  1.00  0.00    -0.370 N 
HETATM   12  H6  UNL     1      26.152   4.410  51.294  1.00  0.00     0.161 HD
BRANCH  11  13
HETATM   13  C7  UNL     1      25.368   4.761  49.375  1.00  0.00     0.150 C 
BRANCH  13  14
HETATM   14  C8  UNL     1      26.808   4.649  48.967  1.00  0.00     0.014 C 
HETATM   15  C9  UNL     1      27.725   5.540  48.537  1.00  0.00     0.038 C 
HETATM   16 CL1  UNL     1      29.417   5.406  48.060  1.00  0.00    -0.087 Cl
BRANCH  15  17
HETATM   17  C10 UNL     1      27.415   6.991  48.372  1.00  0.00     0.273 C 
HETATM   18  F1  UNL     1      26.533   7.140  47.324  1.00  0.00    -0.250 F 
ENDBRANCH  15  17
ENDBRANCH  13  14
ENDBRANCH  11  13
ENDBRANCH   7  11
BRANCH  10  19
HETATM   19  O2  UNL     1      25.660  -0.314  53.005  1.00  0.00    -0.347 OA
BRANCH  19  20
HETATM   20  C14 UNL     1      26.946  -0.664  53.165  1.00  0.00     0.206 C 
BRANCH  20  21
HETATM   21  C15 UNL     1      27.563  -0.145  54.412  1.00  0.00     0.297 C 
BRANCH  21  22
HETATM   22  N4  UNL     1      28.748   0.625  54.303  1.00  0.00     0.082 N 
HETATM   23  C16 UNL     1      29.797  -0.152  53.634  1.00  0.00     0.309 C 
HETATM   24  C17 UNL     1      28.586   1.801  53.455  1.00  0.00     0.309 C 
ENDBRANCH  21  22
ENDBRANCH  20  21
ENDBRANCH  19  20
ENDBRANCH  10  19
BRANCH   1  25
HETATM   25  O1  UNL     1      23.233  -0.912  53.865  1.00  0.00    -0.353 OA
HETATM   26  C1  UNL     1      22.287  -0.970  54.895  1.00  0.00     0.210 C 
ENDBRANCH   1  25
TORSDOF 9
ENDMDL
MODEL 3
REMARK VINA RESULT:      -6.6      4.147      6.908
REMARK  9 active torsions:
REMARK  status: ('A' for Active; 'I' for Inactive)
REMARK    1  A    between atoms: O1_2  and  C2_3 
REMARK    2  A    between atoms: C6_9  and  N3_10 
REMARK    3  A    between atoms: N3_10  and  C7_11 
REMARK    4  A    between atoms: C7_11  and  C8_12 
REMARK    5  A    between atoms: C9_13  and  C10_15 
REMARK    6  A    between atoms: C13_19  and  O2_20 
REMARK    7  A    between atoms: O2_20  and  C14_21 
REMARK    8  A    between atoms: C14_21  and  C15_22 
REMARK    9  A    between atoms: C15_22  and  N4_23 
ROOT
HETATM    1  C2  UNL     1      20.076  -0.484  53.217  1.00  0.00     0.103 A 
HETATM    2  C3  UNL     1      20.700  -1.057  54.329  1.00  0.00     0.072 A 
HETATM    3  C4  UNL     1      22.064  -0.950  54.398  1.00  0.00     0.075 A 
HETATM    4  N1  UNL     1      22.698  -1.489  55.451  1.00  0.00    -0.241 NA
HETATM    5  C5  UNL     1      24.036  -1.385  55.523  1.00  0.00     0.235 A 
HETATM    6  N2  UNL     1      24.773  -0.767  54.588  1.00  0.00    -0.224 NA
HETATM    7  C6  UNL     1      24.210  -0.206  53.508  1.00  0.00     0.137 A 
HETATM    8  C11 UNL     1      22.839  -0.322  53.454  1.00  0.00     0.041 A 
HETATM    9  C12 UNL     1      22.141   0.212  52.397  1.00  0.00     0.057 A 
HETATM   10  C13 UNL     1      20.781   0.181  52.196  1.00  0.00     0.103 A 
ENDROOT
BRANCH   7  11
HETATM   11  N3  UNL     1      24.995   0.446  52.517  1.00  0.00    -0.370 N 
HETATM   12  H6  UNL     1      24.779   0.498  51.521  1.00  0.00     0.161 HD
BRANCH  11  13
HETATM   13  C7  UNL     1      26.216   1.101  52.933  1.00  0.00     0.150 C 
BRANCH  13  14
HETATM   14  C8  UNL     1      27.334   0.118  52.742  1.00  0.00     0.014 C 
HETATM   15  C9  UNL     1      28.332  -0.322  53.535  1.00  0.00     0.038 C 
HETATM   16 CL1  UNL     1      29.644  -1.478  53.308  1.00  0.00    -0.087 Cl
BRANCH  15  17
HETATM   17  C10 UNL     1      28.515   0.165  54.934  1.00  0.00     0.273 C 
HETATM   18  F1  UNL     1      29.288   1.306  54.910  1.00  0.00    -0.250 F 
ENDBRANCH  15  17
ENDBRANCH  13  14
ENDBRANCH  11  13
ENDBRANCH   7  11
BRANCH  10  19
HETATM   19  O2  UNL     1      19.949   0.615  51.284  1.00  0.00    -0.347 OA
BRANCH  19  20
HETATM   20  C14 UNL     1      19.790   1.107  50.046  1.00  0.00     0.206 C 
BRANCH  20  21
HETATM   21  C15 UNL     1      21.010   1.030  49.204  1.00  0.00     0.297 C 
BRANCH  21  22
HETATM   22  N4  UNL     1      21.182   1.999  48.184  1.00  0.00     0.082 N 
HETATM   23  C16 UNL     1      20.429   3.215  48.508  1.00  0.00     0.309 C 
HETATM   24  C17 UNL     1      22.561   2.461  48.064  1.00  0.00     0.309 C 
ENDBRANCH  21  22
ENDBRANCH  20  21
ENDBRANCH  19  20
ENDBRANCH  10  19
BRANCH   1  25
HETATM   25  O1  UNL     1      18.677  -0.643  53.232  1.00  0.00    -0.353 OA
HETATM   26  C1  UNL     1      18.079  -1.880  53.496  1.00  0.00     0.210 C 
ENDBRANCH   1  25
TORSDOF 9
ENDMDL
MODEL 4
REMARK VINA RESULT:      -6.5      2.003      5.327
REMARK  9 active torsions:
REMARK  status: ('A' for Active; 'I' for Inactive)
REMARK    1  A    between atoms: O1_2  and  C2_3 
REMARK    2  A    between atoms: C6_9  and  N3_10 
REMARK    3  A    between atoms: N3_10  and  C7_11 
REMARK    4  A    between atoms: C7_11  and  C8_12 
REMARK    5  A    between atoms: C9_13  and  C10_15 
REMARK    6  A    between atoms: C13_19  and  O2_20 
REMARK    7  A    between atoms: O2_20  and  C14_21 
REMARK    8  A    between atoms: C14_21  and  C15_22 
REMARK    9  A    between atoms: C15_22  and  N4_23 
ROOT
HETATM    1  C2  UNL     1      23.486  -0.082  53.093  1.00  0.00     0.103 A 
HETATM    2  C3  UNL     1      24.777  -0.352  53.558  1.00  0.00     0.072 A 
HETATM    3  C4  UNL     1      25.774   0.490  53.144  1.00  0.00     0.075 A 
HETATM    4  N1  UNL     1      27.026   0.262  53.570  1.00  0.00    -0.241 NA
HETATM    5  C5  UNL     1      28.008   1.087  53.167  1.00  0.00     0.235 A 
HETATM    6  N2  UNL     1      27.796   2.133  52.355  1.00  0.00    -0.224 NA
HETATM    7  C6  UNL     1      26.573   2.424  51.888  1.00  0.00     0.137 A 
HETATM    8  C11 UNL     1      25.582   1.568  52.314  1.00  0.00     0.041 A 
HETATM    9  C12 UNL     1      24.283   1.757  51.906  1.00  0.00     0.057 A 
HETATM   10  C13 UNL     1      23.186   0.996  52.239  1.00  0.00     0.103 A 
ENDROOT
BRANCH   7  11
HETATM   11  N3  UNL     1      26.353   3.532  51.024  1.00  0.00    -0.370 N 
HETATM   12  H6  UNL     1      26.207   4.499  51.315  1.00  0.00     0.161 HD
BRANCH  11  13
HETATM   13  C7  UNL     1      26.327   3.292  49.598  1.00  0.00     0.150 C 
BRANCH  13  14
HETATM   14  C8  UNL     1      27.244   4.294  48.962  1.00  0.00     0.014 C 
HETATM   15  C9  UNL     1      27.125   5.603  48.657  1.00  0.00     0.038 C 
HETATM   16 CL1  UNL     1      28.206   6.779  47.910  1.00  0.00    -0.087 Cl
BRANCH  15  17
HETATM   17  C10 UNL     1      25.885   6.381  48.945  1.00  0.00     0.273 C 
HETATM   18  F1  UNL     1      25.866   6.709  50.283  1.00  0.00    -0.250 F 
ENDBRANCH  15  17
ENDBRANCH  13  14
ENDBRANCH  11  13
ENDBRANCH   7  11
BRANCH  10  19
HETATM   19  O2  UNL     1      21.907   1.008  51.964  1.00  0.00    -0.347 OA
BRANCH  19  20
HETATM   20  C14 UNL     1      20.683   1.431  52.316  1.00  0.00     0.206 C 
BRANCH  20  21
HETATM   21  C15 UNL     1      20.570   2.904  52.460  1.00  0.00     0.297 C 
BRANCH  21  22
HETATM   22  N4  UNL     1      21.052   3.719  51.405  1.00  0.00     0.082 N 
HETATM   23  C16 UNL     1      19.943   4.448  50.781  1.00  0.00     0.309 C 
HETATM   24  C17 UNL     1      21.952   4.771  51.863  1.00  0.00     0.309 C 
ENDBRANCH  21  22
ENDBRANCH  20  21
ENDBRANCH  19  20
ENDBRANCH  10  19
BRANCH   1  25
HETATM   25  O1  UNL     1      22.529  -0.998  53.569  1.00  0.00    -0.353 OA
HETATM   26  C1  UNL     1      22.284  -1.163  54.937  1.00  0.00     0.210 C 
ENDBRANCH   1  25
TORSDOF 9
ENDMDL
MODEL 5
REMARK VINA RESULT:      -6.4      3.947      6.880
REMARK  9 active torsions:
REMARK  status: ('A' for Active; 'I' for Inactive)
REMARK    1  A    between atoms: O1_2  and  C2_3 
REMARK    2  A    between atoms: C6_9  and  N3_10 
REMARK    3  A    between atoms: N3_10  and  C7_11 
REMARK    4  A    between atoms: C7_11  and  C8_12 
REMARK    5  A    between atoms: C9_13  and  C10_15 
REMARK    6  A    between atoms: C13_19  and  O2_20 
REMARK    7  A    between atoms: O2_20  and  C14_21 
REMARK    8  A    between atoms: C14_21  and  C15_22 
REMARK    9  A    between atoms: C15_22  and  N4_23 
ROOT
HETATM    1  C2  UNL     1      27.145   1.185  52.954  1.00  0.00     0.103 A 
HETATM    2  C3  UNL     1      26.932   0.350  54.055  1.00  0.00     0.072 A 
HETATM    3  C4  UNL     1      25.659  -0.117  54.243  1.00  0.00     0.075 A 
HETATM    4  N1  UNL     1      25.416  -0.921  55.289  1.00  0.00    -0.241 NA
HETATM    5  C5  UNL     1      24.167  -1.382  55.475  1.00  0.00     0.235 A 
HETATM    6  N2  UNL     1      23.146  -1.075  54.662  1.00  0.00    -0.224 NA
HETATM    7  C6  UNL     1      23.311  -0.278  53.597  1.00  0.00     0.137 A 
HETATM    8  C11 UNL     1      24.597   0.182  53.423  1.00  0.00     0.041 A 
HETATM    9  C12 UNL     1      24.899   1.009  52.367  1.00  0.00     0.057 A 
HETATM   10  C13 UNL     1      26.124   1.551  52.057  1.00  0.00     0.103 A 
ENDROOT
BRANCH   7  11
HETATM   11  N3  UNL     1      22.224   0.048  52.738  1.00  0.00    -0.370 N 
HETATM   12  H6  UNL     1      22.172  -0.147  51.738  1.00  0.00     0.161 HD
BRANCH  11  13
HETATM   13  C7  UNL     1      21.078   0.719  53.312  1.00  0.00     0.150 C 
BRANCH  13  14
HETATM   14  C8  UNL     1      20.043  -0.330  53.590  1.00  0.00     0.014 C 
HETATM   15  C9  UNL     1      18.876  -0.666  53.002  1.00  0.00     0.038 C 
HETATM   16 CL1  UNL     1      17.661  -1.900  53.331  1.00  0.00    -0.087 Cl
BRANCH  15  17
HETATM   17  C10 UNL     1      18.348   0.055  51.806  1.00  0.00     0.273 C 
HETATM   18  F1  UNL     1      17.452  -0.765  51.153  1.00  0.00    -0.250 F 
ENDBRANCH  15  17
ENDBRANCH  13  14
ENDBRANCH  11  13
ENDBRANCH   7  11
BRANCH  10  19
HETATM   19  O2  UNL     1      26.604   2.337  51.127  1.00  0.00    -0.347 OA
BRANCH  19  20
HETATM   20  C14 UNL     1      26.408   2.923  49.936  1.00  0.00     0.206 C 
BRANCH  20  21
HETATM   21  C15 UNL     1      25.845   4.294  50.023  1.00  0.00     0.297 C 
BRANCH  21  22
HETATM   22  N4  UNL     1      24.438   4.446  49.949  1.00  0.00     0.082 N 
HETATM   23  C16 UNL     1      23.835   3.274  49.306  1.00  0.00     0.309 C 
HETATM   24  C17 UNL     1      23.801   4.495  51.261  1.00  0.00     0.309 C 
ENDBRANCH  21  22
ENDBRANCH  20  21
ENDBRANCH  19  20
ENDBRANCH  10  19
BRANCH   1  25
HETATM   25  O1  UNL     1      28.482   1.615  52.843  1.00  0.00    -0.353 OA
HETATM   26  C1  UNL     1      29.071   2.446  53.803  1.00  0.00     0.210 C 
ENDBRANCH   1  25
TORSDOF 9
ENDMDL
MODEL 6
REMARK VINA RESULT:      -6.4      4.026      6.853
REMARK  9 active torsions:
REMARK  status: ('A' for Active; 'I' for Inactive)
REMARK    1  A    between atoms: O1_2  and  C2_3 
REMARK    2  A    between atoms: C6_9  and  N3_10 
REMARK    3  A    between atoms: N3_10  and  C7_11 
REMARK    4  A    between atoms: C7_11  and  C8_12 
REMARK    5  A    between atoms: C9_13  and  C10_15 
REMARK    6  A    between atoms: C13_19  and  O2_20 
REMARK    7  A    between atoms: O2_20  and  C14_21 
REMARK    8  A    between atoms: C14_21  and  C15_22 
REMARK    9  A    between atoms: C15_22  and  N4_23 
ROOT
HETATM    1  C2  UNL     1      26.887   0.615  53.202  1.00  0.00     0.103 A 
HETATM    2  C3  UNL     1      26.542  -0.154  54.319  1.00  0.00     0.072 A 
HETATM    3  C4  UNL     1      25.220  -0.482  54.461  1.00  0.00     0.075 A 
HETATM    4  N1  UNL     1      24.851  -1.218  55.521  1.00  0.00    -0.241 NA
HETATM    5  C5  UNL     1      23.555  -1.542  55.664  1.00  0.00     0.235 A 
HETATM    6  N2  UNL     1      22.606  -1.164  54.795  1.00  0.00    -0.224 NA
HETATM    7  C6  UNL     1      22.898  -0.427  53.713  1.00  0.00     0.137 A 
HETATM    8  C11 UNL     1      24.231  -0.106  53.584  1.00  0.00     0.041 A 
HETATM    9  C12 UNL     1      24.661   0.645  52.518  1.00  0.00     0.057 A 
HETATM   10  C13 UNL     1      25.948   1.049  52.247  1.00  0.00     0.103 A 
ENDROOT
BRANCH   7  11
HETATM   11  N3  UNL     1      21.889  -0.025  52.795  1.00  0.00    -0.370 N 
HETATM   12  H6  UNL     1      21.911  -0.161  51.784  1.00  0.00     0.161 HD
BRANCH  11  13
HETATM   13  C7  UNL     1      20.716   0.641  53.318  1.00  0.00     0.150 C 
BRANCH  13  14
HETATM   14  C8  UNL     1      19.633   0.508  52.287  1.00  0.00     0.014 C 
HETATM   15  C9  UNL     1      18.535  -0.269  52.186  1.00  0.00     0.038 C 
HETATM   16 CL1  UNL     1      17.264  -0.422  50.973  1.00  0.00    -0.087 Cl
BRANCH  15  17
HETATM   17  C10 UNL     1      18.162  -1.266  53.232  1.00  0.00     0.273 C 
HETATM   18  F1  UNL     1      17.198  -2.108  52.720  1.00  0.00    -0.250 F 
ENDBRANCH  15  17
ENDBRANCH  13  14
ENDBRANCH  11  13
ENDBRANCH   7  11
BRANCH  10  19
HETATM   19  O2  UNL     1      26.546   1.747  51.316  1.00  0.00    -0.347 OA
BRANCH  19  20
HETATM   20  C14 UNL     1      26.750   2.956  50.770  1.00  0.00     0.206 C 
BRANCH  20  21
HETATM   21  C15 UNL     1      25.552   3.530  50.108  1.00  0.00     0.297 C 
BRANCH  21  22
HETATM   22  N4  UNL     1      25.728   4.655  49.264  1.00  0.00     0.082 N 
HETATM   23  C16 UNL     1      25.417   5.889  49.993  1.00  0.00     0.309 C 
HETATM   24  C17 UNL     1      27.111   4.837  48.838  1.00  0.00     0.309 C 
ENDBRANCH  21  22
ENDBRANCH  20  21
ENDBRANCH  19  20
ENDBRANCH  10  19
BRANCH   1  25
HETATM   25  O1  UNL     1      28.264   0.902  53.139  1.00  0.00    -0.353 OA
HETATM   26  C1  UNL     1      29.211   0.120  53.810  1.00  0.00     0.210 C 
ENDBRANCH   1  25
TORSDOF 9
ENDMDL
MODEL 7
REMARK VINA RESULT:      -6.3      1.670      1.948
REMARK  9 active torsions:
REMARK  status: ('A' for Active; 'I' for Inactive)
REMARK    1  A    between atoms: O1_2  and  C2_3 
REMARK    2  A    between atoms: C6_9  and  N3_10 
REMARK    3  A    between atoms: N3_10  and  C7_11 
REMARK    4  A    between atoms: C7_11  and  C8_12 
REMARK    5  A    between atoms: C9_13  and  C10_15 
REMARK    6  A    between atoms: C13_19  and  O2_20 
REMARK    7  A    between atoms: O2_20  and  C14_21 
REMARK    8  A    between atoms: C14_21  and  C15_22 
REMARK    9  A    between atoms: C15_22  and  N4_23 
ROOT
HETATM    1  C2  UNL     1      22.736   0.051  53.417  1.00  0.00     0.103 A 
HETATM    2  C3  UNL     1      21.582   0.838  53.345  1.00  0.00     0.072 A 
HETATM    3  C4  UNL     1      21.667   1.998  52.623  1.00  0.00     0.075 A 
HETATM    4  N1  UNL     1      20.580   2.780  52.532  1.00  0.00    -0.241 NA
HETATM    5  C5  UNL     1      20.659   3.919  51.824  1.00  0.00     0.235 A 
HETATM    6  N2  UNL     1      21.778   4.317  51.201  1.00  0.00    -0.224 NA
HETATM    7  C6  UNL     1      22.904   3.589  51.247  1.00  0.00     0.137 A 
HETATM    8  C11 UNL     1      22.802   2.426  51.976  1.00  0.00     0.041 A 
HETATM    9  C12 UNL     1      23.886   1.590  52.101  1.00  0.00     0.057 A 
HETATM   10  C13 UNL     1      23.947   0.401  52.790  1.00  0.00     0.103 A 
ENDROOT
BRANCH   7  11
HETATM   11  N3  UNL     1      24.091   4.016  50.588  1.00  0.00    -0.370 N 
HETATM   12  H6  UNL     1      25.014   4.103  51.014  1.00  0.00     0.161 HD
BRANCH  11  13
HETATM   13  C7  UNL     1      24.006   4.364  49.186  1.00  0.00     0.150 C 
BRANCH  13  14
HETATM   14  C8  UNL     1      24.961   5.497  48.952  1.00  0.00     0.014 C 
HETATM   15  C9  UNL     1      26.304   5.577  48.852  1.00  0.00     0.038 C 
HETATM   16 CL1  UNL     1      27.424   6.910  48.576  1.00  0.00    -0.087 Cl
BRANCH  15  17
HETATM   17  C10 UNL     1      27.187   4.380  48.973  1.00  0.00     0.273 C 
HETATM   18  F1  UNL     1      28.371   4.632  48.314  1.00  0.00    -0.250 F 
ENDBRANCH  15  17
ENDBRANCH  13  14
ENDBRANCH  11  13
ENDBRANCH   7  11
BRANCH  10  19
HETATM   19  O2  UNL     1      24.854  -0.512  53.025  1.00  0.00    -0.347 OA
BRANCH  19  20
HETATM   20  C14 UNL     1      26.072  -0.790  53.514  1.00  0.00     0.206 C 
BRANCH  20  21
HETATM   21  C15 UNL     1      27.189  -0.240  52.705  1.00  0.00     0.297 C 
BRANCH  21  22
HETATM   22  N4  UNL     1      28.243   0.422  53.382  1.00  0.00     0.082 N 
HETATM   23  C16 UNL     1      28.145   1.872  53.178  1.00  0.00     0.309 C 
HETATM   24  C17 UNL     1      28.177   0.266  54.831  1.00  0.00     0.309 C 
ENDBRANCH  21  22
ENDBRANCH  20  21
ENDBRANCH  19  20
ENDBRANCH  10  19
BRANCH   1  25
HETATM   25  O1  UNL     1      22.554  -1.120  54.178  1.00  0.00    -0.353 OA
HETATM   26  C1  UNL     1      21.281  -1.646  54.427  1.00  0.00     0.210 C 
ENDBRANCH   1  25
TORSDOF 9
ENDMDL
MODEL 8
REMARK VINA RESULT:      -6.3      2.745      5.219
REMARK  9 active torsions:
REMARK  status: ('A' for Active; 'I' for Inactive)
REMARK    1  A    between atoms: O1_2  and  C2_3 
REMARK    2  A    between atoms: C6_9  and  N3_10 
REMARK    3  A    between atoms: N3_10  and  C7_11 
REMARK    4  A    between atoms: C7_11  and  C8_12 
REMARK    5  A    between atoms: C9_13  and  C10_15 
REMARK    6  A    between atoms: C13_19  and  O2_20 
REMARK    7  A    between atoms: O2_20  and  C14_21 
REMARK    8  A    between atoms: C14_21  and  C15_22 
REMARK    9  A    between atoms: C15_22  and  N4_23 
ROOT
HETATM    1  C2  UNL     1      25.966   0.211  53.218  1.00  0.00     0.103 A 
HETATM    2  C3  UNL     1      25.224  -0.589  54.093  1.00  0.00     0.072 A 
HETATM    3  C4  UNL     1      23.860  -0.497  54.010  1.00  0.00     0.075 A 
HETATM    4  N1  UNL     1      23.114  -1.249  54.834  1.00  0.00    -0.241 NA
HETATM    5  C5  UNL     1      21.775  -1.162  54.756  1.00  0.00     0.235 A 
HETATM    6  N2  UNL     1      21.144  -0.357  53.889  1.00  0.00    -0.224 NA
HETATM    7  C6  UNL     1      21.822   0.424  53.035  1.00  0.00     0.137 A 
HETATM    8  C11 UNL     1      23.191   0.320  53.131  1.00  0.00     0.041 A 
HETATM    9  C12 UNL     1      24.001   1.068  52.310  1.00  0.00     0.057 A 
HETATM   10  C13 UNL     1      25.376   1.080  52.281  1.00  0.00     0.103 A 
ENDROOT
BRANCH   7  11
HETATM   11  N3  UNL     1      21.149   1.281  52.119  1.00  0.00    -0.370 N 
HETATM   12  H6  UNL     1      21.096   2.298  52.180  1.00  0.00     0.161 HD
BRANCH  11  13
HETATM   13  C7  UNL     1      20.470   0.678  50.993  1.00  0.00     0.150 C 
BRANCH  13  14
HETATM   14  C8  UNL     1      21.364   0.837  49.799  1.00  0.00     0.014 C 
HETATM   15  C9  UNL     1      21.594   1.848  48.936  1.00  0.00     0.038 C 
HETATM   16 CL1  UNL     1      22.646   2.032  47.533  1.00  0.00    -0.087 Cl
BRANCH  15  17
HETATM   17  C10 UNL     1      20.897   3.164  49.042  1.00  0.00     0.273 C 
HETATM   18  F1  UNL     1      21.416   3.856  50.115  1.00  0.00    -0.250 F 
ENDBRANCH  15  17
ENDBRANCH  13  14
ENDBRANCH  11  13
ENDBRANCH   7  11
BRANCH  10  19
HETATM   19  O2  UNL     1      26.303   1.702  51.599  1.00  0.00    -0.347 OA
BRANCH  19  20
HETATM   20  C14 UNL     1      26.699   2.844  51.017  1.00  0.00     0.206 C 
BRANCH  20  21
HETATM   21  C15 UNL     1      26.167   3.040  49.645  1.00  0.00     0.297 C 
BRANCH  21  22
HETATM   22  N4  UNL     1      25.439   4.225  49.372  1.00  0.00     0.082 N 
HETATM   23  C16 UNL     1      24.656   4.621  50.548  1.00  0.00     0.309 C 
HETATM   24  C17 UNL     1      26.298   5.376  49.118  1.00  0.00     0.309 C 
ENDBRANCH  21  22
ENDBRANCH  20  21
ENDBRANCH  19  20
ENDBRANCH  10  19
BRANCH   1  25
HETATM   25  O1  UNL     1      27.356   0.050  53.375  1.00  0.00    -0.353 OA
HETATM   26  C1  UNL     1      27.981   0.217  54.617  1.00  0.00     0.210 C 
ENDBRANCH   1  25
TORSDOF 9
ENDMDL
MODEL 9
REMARK VINA RESULT:      -6.2      3.725      7.415
REMARK  9 active torsions:
REMARK  status: ('A' for Active; 'I' for Inactive)
REMARK    1  A    between atoms: O1_2  and  C2_3 
REMARK    2  A    between atoms: C6_9  and  N3_10 
REMARK    3  A    between atoms: N3_10  and  C7_11 
REMARK    4  A    between atoms: C7_11  and  C8_12 
REMARK    5  A    between atoms: C9_13  and  C10_15 
REMARK    6  A    between atoms: C13_19  and  O2_20 
REMARK    7  A    between atoms: O2_20  and  C14_21 
REMARK    8  A    between atoms: C14_21  and  C15_22 
REMARK    9  A    between atoms: C15_22  and  N4_23 
ROOT
HETATM    1  C2  UNL     1      25.711   3.019  51.011  1.00  0.00     0.103 A 
HETATM    2  C3  UNL     1      26.790   2.358  51.605  1.00  0.00     0.072 A 
HETATM    3  C4  UNL     1      26.507   1.222  52.314  1.00  0.00     0.075 A 
HETATM    4  N1  UNL     1      27.518   0.561  52.899  1.00  0.00    -0.241 NA
HETATM    5  C5  UNL     1      27.244  -0.556  53.595  1.00  0.00     0.235 A 
HETATM    6  N2  UNL     1      26.003  -1.045  53.734  1.00  0.00    -0.224 NA
HETATM    7  C6  UNL     1      24.943  -0.440  53.179  1.00  0.00     0.137 A 
HETATM    8  C11 UNL     1      25.245   0.701  52.470  1.00  0.00     0.041 A 
HETATM    9  C12 UNL     1      24.247   1.416  51.852  1.00  0.00     0.057 A 
HETATM   10  C13 UNL     1      24.381   2.568  51.112  1.00  0.00     0.103 A 
ENDROOT
BRANCH   7  11
HETATM   11  N3  UNL     1      23.627  -0.959  53.332  1.00  0.00    -0.370 N 
HETATM   12  H6  UNL     1      23.112  -1.498  52.635  1.00  0.00     0.161 HD
BRANCH  11  13
HETATM   13  C7  UNL     1      22.936  -0.714  54.579  1.00  0.00     0.150 C 
BRANCH  13  14
HETATM   14  C8  UNL     1      21.515  -1.155  54.393  1.00  0.00     0.014 C 
HETATM   15  C9  UNL     1      20.488  -0.698  53.647  1.00  0.00     0.038 C 
HETATM   16 CL1  UNL     1      18.818  -1.219  53.429  1.00  0.00    -0.087 Cl
BRANCH  15  17
HETATM   17  C10 UNL     1      20.616   0.492  52.755  1.00  0.00     0.273 C 
HETATM   18  F1  UNL     1      21.135   0.087  51.544  1.00  0.00    -0.250 F 
ENDBRANCH  15  17
ENDBRANCH  13  14
ENDBRANCH  11  13
ENDBRANCH   7  11
BRANCH  10  19
HETATM   19  O2  UNL     1      23.582   3.375  50.464  1.00  0.00    -0.347 OA
BRANCH  19  20
HETATM   20  C14 UNL     1      22.751   3.542  49.423  1.00  0.00     0.206 C 
BRANCH  20  21
HETATM   21  C15 UNL     1      21.317   3.349  49.758  1.00  0.00     0.297 C 
BRANCH  21  22
HETATM   22  N4  UNL     1      20.638   2.246  49.182  1.00  0.00     0.082 N 
HETATM   23  C16 UNL     1      19.715   2.709  48.140  1.00  0.00     0.309 C 
HETATM   24  C17 UNL     1      21.531   1.330  48.481  1.00  0.00     0.309 C 
ENDBRANCH  21  22
ENDBRANCH  20  21
ENDBRANCH  19  20
ENDBRANCH  10  19
BRANCH   1  25
HETATM   25  O1  UNL     1      26.097   4.175  50.305  1.00  0.00    -0.353 OA
HETATM   26  C1  UNL     1      26.946   4.110  49.195  1.00  0.00     0.210 C 
ENDBRANCH   1  25
TORSDOF 9
ENDMDL
