MODEL 1
REMARK VINA RESULT:      -8.0      0.000      0.000
REMARK  3 active torsions:
REMARK  status: ('A' for Active; 'I' for Inactive)
REMARK    1  A    between atoms: C11_16  and  C12_17 
REMARK    2  A    between atoms: C12_17  and  C13_18 
REMARK    3  A    between atoms: C13_18  and  N3_19 
ROOT
HETATM    1  O1  UNL     1      26.623   1.932  54.348  1.00  0.00    -0.271 OA
HETATM    2  C1  UNL     1      26.111   2.091  53.194  1.00  0.00     0.241 C 
HETATM    3  C2  UNL     1      27.010   1.766  52.053  1.00  0.00     0.270 C 
HETATM    4  O2  UNL     1      27.196   2.934  51.356  1.00  0.00    -0.378 OA
HETATM    5  C3  UNL     1      26.471   3.041  50.184  1.00  0.00     0.204 C 
HETATM    6  C4  UNL     1      25.079   3.536  50.367  1.00  0.00    -0.029 C 
HETATM    7  C5  UNL     1      24.940   4.175  49.184  1.00  0.00     0.123 C 
HETATM    8  N1  UNL     1      23.773   4.875  48.754  1.00  0.00    -0.254 NA
HETATM    9  C6  UNL     1      23.573   6.115  49.051  1.00  0.00     0.234 C 
HETATM   10  N2  UNL     1      22.366   6.754  48.578  1.00  0.00    -0.230 NA
HETATM   11  C7  UNL     1      21.440   6.803  49.507  1.00  0.00     0.258 C 
HETATM   12  O3  UNL     1      21.534   6.324  50.795  1.00  0.00    -0.316 OA
HETATM   13  C8  UNL     1      22.681   5.840  51.403  1.00  0.00     0.140 C 
HETATM   14  C9  UNL     1      23.669   5.021  51.728  1.00  0.00     0.009 C 
HETATM   15  C10 UNL     1      23.851   3.649  51.187  1.00  0.00     0.065 C 
HETATM   16  C11 UNL     1      23.698   2.687  52.297  1.00  0.00     0.098 C 
HETATM   17  N4  UNL     1      24.767   2.552  53.222  1.00  0.00    -0.354 N 
HETATM   18  H24 UNL     1      24.565   2.862  54.222  1.00  0.00     0.163 HD
ENDROOT
BRANCH  16  19
HETATM   19  C12 UNL     1      23.260   1.289  51.835  1.00  0.00     0.056 C 
BRANCH  19  20
HETATM   20  C13 UNL     1      21.981   1.021  52.576  1.00  0.00     0.274 C 
BRANCH  20  21
HETATM   21  N3  UNL     1      22.156   0.459  53.880  1.00  0.00     0.092 N 
HETATM   22  C14 UNL     1      23.145  -0.597  53.924  1.00  0.00     0.298 C 
HETATM   23  C15 UNL     1      22.923  -1.327  55.244  1.00  0.00     0.198 C 
HETATM   24  O4  UNL     1      21.771  -2.133  55.153  1.00  0.00    -0.388 OA
HETATM   25  C16 UNL     1      20.839  -1.573  54.288  1.00  0.00     0.198 C 
HETATM   26  C17 UNL     1      20.862  -0.060  54.305  1.00  0.00     0.298 C 
ENDBRANCH  20  21
ENDBRANCH  19  20
ENDBRANCH  16  19
TORSDOF 3
ENDMDL
MODEL 2
REMARK VINA RESULT:      -7.9      2.224      6.993
REMARK  3 active torsions:
REMARK  status: ('A' for Active; 'I' for Inactive)
REMARK    1  A    between atoms: C11_16  and  C12_17 
REMARK    2  A    between atoms: C12_17  and  C13_18 
REMARK    3  A    between atoms: C13_18  and  N3_19 
ROOT
HETATM    1  O1  UNL     1      20.047   3.610  52.700  1.00  0.00    -0.271 OA
HETATM    2  C1  UNL     1      20.874   2.668  52.478  1.00  0.00     0.241 C 
HETATM    3  C2  UNL     1      20.307   1.294  52.566  1.00  0.00     0.270 C 
HETATM    4  O2  UNL     1      20.955   0.669  53.602  1.00  0.00    -0.378 OA
HETATM    5  C3  UNL     1      21.932  -0.233  53.226  1.00  0.00     0.204 C 
HETATM    6  C4  UNL     1      23.261   0.382  52.951  1.00  0.00    -0.029 C 
HETATM    7  C5  UNL     1      24.040  -0.656  53.328  1.00  0.00     0.123 C 
HETATM    8  N1  UNL     1      25.467  -0.675  53.294  1.00  0.00    -0.254 NA
HETATM    9  C6  UNL     1      26.178  -0.235  54.277  1.00  0.00     0.234 C 
HETATM   10  N2  UNL     1      27.619  -0.287  54.166  1.00  0.00    -0.230 NA
HETATM   11  C7  UNL     1      28.127   0.869  53.810  1.00  0.00     0.258 C 
HETATM   12  O3  UNL     1      27.436   2.033  53.555  1.00  0.00    -0.316 OA
HETATM   13  C8  UNL     1      26.085   2.245  53.779  1.00  0.00     0.140 C 
HETATM   14  C9  UNL     1      24.773   2.205  53.612  1.00  0.00     0.009 C 
HETATM   15  C10 UNL     1      24.077   1.527  52.487  1.00  0.00     0.065 C 
HETATM   16  C11 UNL     1      23.390   2.553  51.678  1.00  0.00     0.098 C 
HETATM   17  N4  UNL     1      22.190   3.118  52.187  1.00  0.00    -0.354 N 
HETATM   18  H24 UNL     1      22.225   4.155  52.431  1.00  0.00     0.163 HD
ENDROOT
BRANCH  16  19
HETATM   19  C12 UNL     1      23.161   2.128  50.220  1.00  0.00     0.056 C 
BRANCH  19  20
HETATM   20  C13 UNL     1      24.226   2.840  49.438  1.00  0.00     0.274 C 
BRANCH  20  21
HETATM   21  N3  UNL     1      24.777   3.987  50.092  1.00  0.00     0.092 N 
HETATM   22  C14 UNL     1      24.295   5.242  49.554  1.00  0.00     0.298 C 
HETATM   23  C15 UNL     1      25.248   6.314  50.071  1.00  0.00     0.198 C 
HETATM   24  O4  UNL     1      26.466   6.247  49.367  1.00  0.00    -0.388 OA
HETATM   25  C16 UNL     1      26.738   4.945  48.968  1.00  0.00     0.198 C 
HETATM   26  C17 UNL     1      26.225   3.914  49.949  1.00  0.00     0.298 C 
ENDBRANCH  20  21
ENDBRANCH  19  20
ENDBRANCH  16  19
TORSDOF 3
ENDMDL
MODEL 3
REMARK VINA RESULT:      -7.8      2.777      6.768
REMARK  3 active torsions:
REMARK  status: ('A' for Active; 'I' for Inactive)
REMARK    1  A    between atoms: C11_16  and  C12_17 
REMARK    2  A    between atoms: C12_17  and  C13_18 
REMARK    3  A    between atoms: C13_18  and  N3_19 
ROOT
HETATM    1  O1  UNL     1      20.093   3.622  52.409  1.00  0.00    -0.271 OA
HETATM    2  C1  UNL     1      20.904   2.642  52.345  1.00  0.00     0.241 C 
HETATM    3  C2  UNL     1      20.300   1.304  52.593  1.00  0.00     0.270 C 
HETATM    4  O2  UNL     1      20.897   0.810  53.726  1.00  0.00    -0.378 OA
HETATM    5  C3  UNL     1      21.864  -0.153  53.509  1.00  0.00     0.204 C 
HETATM    6  C4  UNL     1      23.216   0.393  53.204  1.00  0.00    -0.029 C 
HETATM    7  C5  UNL     1      23.956  -0.601  53.744  1.00  0.00     0.123 C 
HETATM    8  N1  UNL     1      25.382  -0.652  53.765  1.00  0.00    -0.254 NA
HETATM    9  C6  UNL     1      26.071  -0.100  54.706  1.00  0.00     0.234 C 
HETATM   10  N2  UNL     1      27.512  -0.196  54.657  1.00  0.00    -0.230 NA
HETATM   11  C7  UNL     1      28.061   0.893  54.169  1.00  0.00     0.258 C 
HETATM   12  O3  UNL     1      27.408   2.026  53.737  1.00  0.00    -0.316 OA
HETATM   13  C8  UNL     1      26.056   2.292  53.881  1.00  0.00     0.140 C 
HETATM   14  C9  UNL     1      24.749   2.257  53.673  1.00  0.00     0.009 C 
HETATM   15  C10 UNL     1      24.076   1.449  52.622  1.00  0.00     0.065 C 
HETATM   16  C11 UNL     1      23.442   2.372  51.660  1.00  0.00     0.098 C 
HETATM   17  N4  UNL     1      22.240   3.024  52.045  1.00  0.00    -0.354 N 
HETATM   18  H24 UNL     1      22.293   4.083  52.150  1.00  0.00     0.163 HD
ENDROOT
BRANCH  16  19
HETATM   19  C12 UNL     1      23.251   1.760  50.264  1.00  0.00     0.056 C 
BRANCH  19  20
HETATM   20  C13 UNL     1      23.241   2.933  49.327  1.00  0.00     0.274 C 
BRANCH  20  21
HETATM   21  N3  UNL     1      22.434   2.754  48.158  1.00  0.00     0.092 N 
HETATM   22  C14 UNL     1      21.826   3.979  47.686  1.00  0.00     0.298 C 
HETATM   23  C15 UNL     1      20.726   3.557  46.719  1.00  0.00     0.198 C 
HETATM   24  O4  UNL     1      19.627   3.050  47.439  1.00  0.00    -0.388 OA
HETATM   25  C16 UNL     1      20.043   2.446  48.619  1.00  0.00     0.198 C 
HETATM   26  C17 UNL     1      21.398   1.785  48.491  1.00  0.00     0.298 C 
ENDBRANCH  20  21
ENDBRANCH  19  20
ENDBRANCH  16  19
TORSDOF 3
ENDMDL
MODEL 4
REMARK VINA RESULT:      -7.6      2.680      5.260
REMARK  3 active torsions:
REMARK  status: ('A' for Active; 'I' for Inactive)
REMARK    1  A    between atoms: C11_16  and  C12_17 
REMARK    2  A    between atoms: C12_17  and  C13_18 
REMARK    3  A    between atoms: C13_18  and  N3_19 
ROOT
HETATM    1  O1  UNL     1      25.041   6.318  50.764  1.00  0.00    -0.271 OA
HETATM    2  C1  UNL     1      24.669   5.127  50.511  1.00  0.00     0.241 C 
HETATM    3  C2  UNL     1      24.714   4.742  49.073  1.00  0.00     0.270 C 
HETATM    4  O2  UNL     1      23.421   4.474  48.699  1.00  0.00    -0.378 OA
HETATM    5  C3  UNL     1      23.104   3.133  48.596  1.00  0.00     0.204 C 
HETATM    6  C4  UNL     1      22.716   2.493  49.883  1.00  0.00    -0.029 C 
HETATM    7  C5  UNL     1      21.853   1.575  49.394  1.00  0.00     0.123 C 
HETATM    8  N1  UNL     1      21.127   0.624  50.174  1.00  0.00    -0.254 NA
HETATM    9  C6  UNL     1      19.985   0.905  50.703  1.00  0.00     0.234 C 
HETATM   10  N2  UNL     1      19.312  -0.112  51.479  1.00  0.00    -0.230 NA
HETATM   11  C7  UNL     1      19.494   0.053  52.768  1.00  0.00     0.258 C 
HETATM   12  O3  UNL     1      20.225   1.048  53.380  1.00  0.00    -0.316 OA
HETATM   13  C8  UNL     1      20.775   2.155  52.756  1.00  0.00     0.140 C 
HETATM   14  C9  UNL     1      21.602   2.899  52.038  1.00  0.00     0.009 C 
HETATM   15  C10 UNL     1      22.825   2.398  51.357  1.00  0.00     0.065 C 
HETATM   16  C11 UNL     1      24.001   3.036  51.982  1.00  0.00     0.098 C 
HETATM   17  N4  UNL     1      24.279   4.392  51.663  1.00  0.00    -0.354 N 
HETATM   18  H24 UNL     1      24.191   5.091  52.463  1.00  0.00     0.163 HD
ENDROOT
BRANCH  16  19
HETATM   19  C12 UNL     1      25.290   2.215  51.835  1.00  0.00     0.056 C 
BRANCH  19  20
HETATM   20  C13 UNL     1      25.453   1.512  53.152  1.00  0.00     0.274 C 
BRANCH  20  21
HETATM   21  N3  UNL     1      26.716   0.863  53.328  1.00  0.00     0.092 N 
HETATM   22  C14 UNL     1      27.017   0.557  54.710  1.00  0.00     0.298 C 
HETATM   23  C15 UNL     1      28.510   0.249  54.757  1.00  0.00     0.198 C 
HETATM   24  O4  UNL     1      29.245   1.445  54.650  1.00  0.00    -0.388 OA
HETATM   25  C16 UNL     1      28.562   2.382  53.885  1.00  0.00     0.198 C 
HETATM   26  C17 UNL     1      27.738   1.749  52.785  1.00  0.00     0.298 C 
ENDBRANCH  20  21
ENDBRANCH  19  20
ENDBRANCH  16  19
TORSDOF 3
ENDMDL
MODEL 5
REMARK VINA RESULT:      -7.5      2.520      4.592
REMARK  3 active torsions:
REMARK  status: ('A' for Active; 'I' for Inactive)
REMARK    1  A    between atoms: C11_16  and  C12_17 
REMARK    2  A    between atoms: C12_17  and  C13_18 
REMARK    3  A    between atoms: C13_18  and  N3_19 
ROOT
HETATM    1  O1  UNL     1      21.434  -0.005  51.293  1.00  0.00    -0.271 OA
HETATM    2  C1  UNL     1      21.914   1.110  51.673  1.00  0.00     0.241 C 
HETATM    3  C2  UNL     1      20.974   1.978  52.434  1.00  0.00     0.270 C 
HETATM    4  O2  UNL     1      20.795   3.113  51.683  1.00  0.00    -0.378 OA
HETATM    5  C3  UNL     1      21.486   4.226  52.124  1.00  0.00     0.204 C 
HETATM    6  C4  UNL     1      22.895   4.302  51.646  1.00  0.00    -0.029 C 
HETATM    7  C5  UNL     1      23.013   5.647  51.594  1.00  0.00     0.123 C 
HETATM    8  N1  UNL     1      24.182   6.360  51.192  1.00  0.00    -0.254 NA
HETATM    9  C6  UNL     1      24.419   6.640  49.955  1.00  0.00     0.234 C 
HETATM   10  N2  UNL     1      25.626   7.365  49.627  1.00  0.00    -0.230 NA
HETATM   11  C7  UNL     1      26.580   6.567  49.209  1.00  0.00     0.258 C 
HETATM   12  O3  UNL     1      26.514   5.198  49.073  1.00  0.00    -0.316 OA
HETATM   13  C8  UNL     1      25.375   4.420  49.203  1.00  0.00     0.140 C 
HETATM   14  C9  UNL     1      24.378   3.753  49.763  1.00  0.00     0.009 C 
HETATM   15  C10 UNL     1      24.149   3.634  51.227  1.00  0.00     0.065 C 
HETATM   16  C11 UNL     1      24.313   2.218  51.611  1.00  0.00     0.098 C 
HETATM   17  N4  UNL     1      23.269   1.310  51.291  1.00  0.00    -0.354 N 
HETATM   18  H24 UNL     1      23.508   0.550  50.582  1.00  0.00     0.163 HD
ENDROOT
BRANCH  16  19
HETATM   19  C12 UNL     1      24.705   2.028  53.084  1.00  0.00     0.056 C 
BRANCH  19  20
HETATM   20  C13 UNL     1      26.204   2.111  53.098  1.00  0.00     0.274 C 
BRANCH  20  21
HETATM   21  N3  UNL     1      26.841   1.224  54.022  1.00  0.00     0.092 N 
HETATM   22  C14 UNL     1      28.283   1.211  53.907  1.00  0.00     0.298 C 
HETATM   23  C15 UNL     1      28.754  -0.033  54.654  1.00  0.00     0.198 C 
HETATM   24  O4  UNL     1      28.479  -1.181  53.886  1.00  0.00    -0.388 OA
HETATM   25  C16 UNL     1      27.343  -0.998  53.107  1.00  0.00     0.198 C 
HETATM   26  C17 UNL     1      26.314  -0.112  53.774  1.00  0.00     0.298 C 
ENDBRANCH  20  21
ENDBRANCH  19  20
ENDBRANCH  16  19
TORSDOF 3
ENDMDL
MODEL 6
REMARK VINA RESULT:      -7.5      1.866      6.355
REMARK  3 active torsions:
REMARK  status: ('A' for Active; 'I' for Inactive)
REMARK    1  A    between atoms: C11_16  and  C12_17 
REMARK    2  A    between atoms: C12_17  and  C13_18 
REMARK    3  A    between atoms: C13_18  and  N3_19 
ROOT
HETATM    1  O1  UNL     1      26.766   2.830  49.923  1.00  0.00    -0.271 OA
HETATM    2  C1  UNL     1      26.192   2.450  50.994  1.00  0.00     0.241 C 
HETATM    3  C2  UNL     1      27.081   1.790  51.989  1.00  0.00     0.270 C 
HETATM    4  O2  UNL     1      26.629   0.501  52.123  1.00  0.00    -0.378 OA
HETATM    5  C3  UNL     1      25.895   0.252  53.268  1.00  0.00     0.204 C 
HETATM    6  C4  UNL     1      24.451   0.598  53.159  1.00  0.00    -0.029 C 
HETATM    7  C5  UNL     1      23.959  -0.339  53.999  1.00  0.00     0.123 C 
HETATM    8  N1  UNL     1      22.580  -0.521  54.320  1.00  0.00    -0.254 NA
HETATM    9  C6  UNL     1      21.803  -1.258  53.600  1.00  0.00     0.234 C 
HETATM   10  N2  UNL     1      20.418  -1.392  53.991  1.00  0.00    -0.230 NA
HETATM   11  C7  UNL     1      19.634  -0.597  53.301  1.00  0.00     0.258 C 
HETATM   12  O3  UNL     1      20.012   0.284  52.312  1.00  0.00    -0.316 OA
HETATM   13  C8  UNL     1      21.273   0.384  51.748  1.00  0.00     0.140 C 
HETATM   14  C9  UNL     1      22.551   0.695  51.600  1.00  0.00     0.009 C 
HETATM   15  C10 UNL     1      23.368   1.438  52.595  1.00  0.00     0.065 C 
HETATM   16  C11 UNL     1      23.765   2.730  52.001  1.00  0.00     0.098 C 
HETATM   17  N4  UNL     1      24.799   2.733  51.028  1.00  0.00    -0.354 N 
HETATM   18  H24 UNL     1      24.515   3.018  50.041  1.00  0.00     0.163 HD
ENDROOT
BRANCH  16  19
HETATM   19  C12 UNL     1      24.061   3.816  53.046  1.00  0.00     0.056 C 
BRANCH  19  20
HETATM   20  C13 UNL     1      23.106   4.929  52.727  1.00  0.00     0.274 C 
BRANCH  20  21
HETATM   21  N3  UNL     1      23.187   5.416  51.384  1.00  0.00     0.092 N 
HETATM   22  C14 UNL     1      24.059   6.562  51.239  1.00  0.00     0.298 C 
HETATM   23  C15 UNL     1      23.728   7.174  49.882  1.00  0.00     0.198 C 
HETATM   24  O4  UNL     1      22.502   7.861  49.957  1.00  0.00    -0.388 OA
HETATM   25  C16 UNL     1      21.656   7.270  50.887  1.00  0.00     0.198 C 
HETATM   26  C17 UNL     1      21.836   5.769  50.968  1.00  0.00     0.298 C 
ENDBRANCH  20  21
ENDBRANCH  19  20
ENDBRANCH  16  19
TORSDOF 3
ENDMDL
MODEL 7
REMARK VINA RESULT:      -7.4      2.500      7.471
REMARK  3 active torsions:
REMARK  status: ('A' for Active; 'I' for Inactive)
REMARK    1  A    between atoms: C11_16  and  C12_17 
REMARK    2  A    between atoms: C12_17  and  C13_18 
REMARK    3  A    between atoms: C13_18  and  N3_19 
ROOT
HETATM    1  O1  UNL     1      21.893   5.800  51.388  1.00  0.00    -0.271 OA
HETATM    2  C1  UNL     1      22.391   4.636  51.258  1.00  0.00     0.241 C 
HETATM    3  C2  UNL     1      21.428   3.577  50.853  1.00  0.00     0.270 C 
HETATM    4  O2  UNL     1      21.381   2.674  51.886  1.00  0.00    -0.378 OA
HETATM    5  C3  UNL     1      22.082   1.502  51.674  1.00  0.00     0.204 C 
HETATM    6  C4  UNL     1      23.533   1.588  52.001  1.00  0.00    -0.029 C 
HETATM    7  C5  UNL     1      23.724   0.306  52.385  1.00  0.00     0.123 C 
HETATM    8  N1  UNL     1      24.963  -0.248  52.829  1.00  0.00    -0.254 NA
HETATM    9  C6  UNL     1      25.333  -0.189  54.063  1.00  0.00     0.234 C 
HETATM   10  N2  UNL     1      26.602  -0.773  54.435  1.00  0.00    -0.230 NA
HETATM   11  C7  UNL     1      27.550   0.129  54.528  1.00  0.00     0.258 C 
HETATM   12  O3  UNL     1      27.427   1.484  54.313  1.00  0.00    -0.316 OA
HETATM   13  C8  UNL     1      26.242   2.172  54.111  1.00  0.00     0.140 C 
HETATM   14  C9  UNL     1      25.163   2.646  53.508  1.00  0.00     0.009 C 
HETATM   15  C10 UNL     1      24.786   2.372  52.097  1.00  0.00     0.065 C 
HETATM   16  C11 UNL     1      24.838   3.641  51.345  1.00  0.00     0.098 C 
HETATM   17  N4  UNL     1      23.786   4.576  51.531  1.00  0.00    -0.354 N 
HETATM   18  H24 UNL     1      24.053   5.501  51.990  1.00  0.00     0.163 HD
ENDROOT
BRANCH  16  19
HETATM   19  C12 UNL     1      25.074   3.449  49.840  1.00  0.00     0.056 C 
BRANCH  19  20
HETATM   20  C13 UNL     1      26.517   3.806  49.627  1.00  0.00     0.274 C 
BRANCH  20  21
HETATM   21  N3  UNL     1      26.741   4.819  48.642  1.00  0.00     0.092 N 
HETATM   22  C14 UNL     1      28.088   5.348  48.656  1.00  0.00     0.298 C 
HETATM   23  C15 UNL     1      28.039   6.643  47.852  1.00  0.00     0.198 C 
HETATM   24  O4  UNL     1      27.417   7.652  48.612  1.00  0.00    -0.388 OA
HETATM   25  C16 UNL     1      26.469   7.113  49.472  1.00  0.00     0.198 C 
HETATM   26  C17 UNL     1      25.787   5.891  48.897  1.00  0.00     0.298 C 
ENDBRANCH  20  21
ENDBRANCH  19  20
ENDBRANCH  16  19
TORSDOF 3
ENDMDL
MODEL 8
REMARK VINA RESULT:      -7.2      2.348      4.650
REMARK  3 active torsions:
REMARK  status: ('A' for Active; 'I' for Inactive)
REMARK    1  A    between atoms: C11_16  and  C12_17 
REMARK    2  A    between atoms: C12_17  and  C13_18 
REMARK    3  A    between atoms: C13_18  and  N3_19 
ROOT
HETATM    1  O1  UNL     1      22.301  -1.618  53.143  1.00  0.00    -0.271 OA
HETATM    2  C1  UNL     1      22.226  -0.348  53.092  1.00  0.00     0.241 C 
HETATM    3  C2  UNL     1      21.167   0.258  53.945  1.00  0.00     0.270 C 
HETATM    4  O2  UNL     1      20.286   0.877  53.094  1.00  0.00    -0.378 OA
HETATM    5  C3  UNL     1      20.402   2.253  53.025  1.00  0.00     0.204 C 
HETATM    6  C4  UNL     1      21.441   2.733  52.072  1.00  0.00    -0.029 C 
HETATM    7  C5  UNL     1      20.854   3.895  51.710  1.00  0.00     0.123 C 
HETATM    8  N1  UNL     1      21.390   4.839  50.782  1.00  0.00    -0.254 NA
HETATM    9  C6  UNL     1      21.181   4.741  49.513  1.00  0.00     0.234 C 
HETATM   10  N2  UNL     1      21.758   5.736  48.638  1.00  0.00    -0.230 NA
HETATM   11  C7  UNL     1      22.867   5.314  48.077  1.00  0.00     0.258 C 
HETATM   12  O3  UNL     1      23.469   4.088  48.254  1.00  0.00    -0.316 OA
HETATM   13  C8  UNL     1      22.932   3.008  48.936  1.00  0.00     0.140 C 
HETATM   14  C9  UNL     1      22.553   2.229  49.937  1.00  0.00     0.009 C 
HETATM   15  C10 UNL     1      22.736   2.544  51.378  1.00  0.00     0.065 C 
HETATM   16  C11 UNL     1      23.667   1.555  51.957  1.00  0.00     0.098 C 
HETATM   17  N4  UNL     1      23.179   0.247  52.221  1.00  0.00    -0.354 N 
HETATM   18  H24 UNL     1      23.606  -0.540  51.643  1.00  0.00     0.163 HD
ENDROOT
BRANCH  16  19
HETATM   19  C12 UNL     1      24.408   2.070  53.199  1.00  0.00     0.056 C 
BRANCH  19  20
HETATM   20  C13 UNL     1      25.862   1.836  52.905  1.00  0.00     0.274 C 
BRANCH  20  21
HETATM   21  N3  UNL     1      26.568   1.122  53.924  1.00  0.00     0.092 N 
HETATM   22  C14 UNL     1      27.998   1.348  53.899  1.00  0.00     0.298 C 
HETATM   23  C15 UNL     1      28.612   0.245  54.755  1.00  0.00     0.198 C 
HETATM   24  O4  UNL     1      28.588  -0.973  54.049  1.00  0.00    -0.388 OA
HETATM   25  C16 UNL     1      27.497  -1.029  53.190  1.00  0.00     0.198 C 
HETATM   26  C17 UNL     1      26.290  -0.296  53.732  1.00  0.00     0.298 C 
ENDBRANCH  20  21
ENDBRANCH  19  20
ENDBRANCH  16  19
TORSDOF 3
ENDMDL
MODEL 9
REMARK VINA RESULT:      -7.2      3.004      4.789
REMARK  3 active torsions:
REMARK  status: ('A' for Active; 'I' for Inactive)
REMARK    1  A    between atoms: C11_16  and  C12_17 
REMARK    2  A    between atoms: C12_17  and  C13_18 
REMARK    3  A    between atoms: C13_18  and  N3_19 
ROOT
HETATM    1  O1  UNL     1      21.985   1.280  49.970  1.00  0.00    -0.271 OA
HETATM    2  C1  UNL     1      22.541   2.283  50.522  1.00  0.00     0.241 C 
HETATM    3  C2  UNL     1      21.653   3.098  51.396  1.00  0.00     0.270 C 
HETATM    4  O2  UNL     1      21.580   4.344  50.825  1.00  0.00    -0.378 OA
HETATM    5  C3  UNL     1      22.344   5.319  51.440  1.00  0.00     0.204 C 
HETATM    6  C4  UNL     1      23.766   5.353  50.996  1.00  0.00    -0.029 C 
HETATM    7  C5  UNL     1      23.988   6.677  51.153  1.00  0.00     0.123 C 
HETATM    8  N1  UNL     1      25.219   7.347  50.878  1.00  0.00    -0.254 NA
HETATM    9  C6  UNL     1      25.506   7.791  49.702  1.00  0.00     0.234 C 
HETATM   10  N2  UNL     1      26.773   8.459  49.504  1.00  0.00    -0.230 NA
HETATM   11  C7  UNL     1      27.673   7.660  48.980  1.00  0.00     0.258 C 
HETATM   12  O3  UNL     1      27.504   6.337  48.635  1.00  0.00    -0.316 OA
HETATM   13  C8  UNL     1      26.306   5.642  48.631  1.00  0.00     0.140 C 
HETATM   14  C9  UNL     1      25.248   4.979  49.070  1.00  0.00     0.009 C 
HETATM   15  C10 UNL     1      24.974   4.659  50.495  1.00  0.00     0.065 C 
HETATM   16  C11 UNL     1      25.019   3.193  50.660  1.00  0.00     0.098 C 
HETATM   17  N4  UNL     1      23.917   2.429  50.192  1.00  0.00    -0.354 N 
HETATM   18  H24 UNL     1      24.113   1.769  49.378  1.00  0.00     0.163 HD
ENDROOT
BRANCH  16  19
HETATM   19  C12 UNL     1      25.359   2.750  52.091  1.00  0.00     0.056 C 
BRANCH  19  20
HETATM   20  C13 UNL     1      26.773   2.251  52.015  1.00  0.00     0.274 C 
BRANCH  20  21
HETATM   21  N3  UNL     1      27.380   1.986  53.283  1.00  0.00     0.092 N 
HETATM   22  C14 UNL     1      28.475   1.042  53.211  1.00  0.00     0.298 C 
HETATM   23  C15 UNL     1      28.732   0.586  54.643  1.00  0.00     0.198 C 
HETATM   24  O4  UNL     1      27.722  -0.307  55.046  1.00  0.00    -0.388 OA
HETATM   25  C16 UNL     1      26.518  -0.013  54.418  1.00  0.00     0.198 C 
HETATM   26  C17 UNL     1      26.340   1.468  54.162  1.00  0.00     0.298 C 
ENDBRANCH  20  21
ENDBRANCH  19  20
ENDBRANCH  16  19
TORSDOF 3
ENDMDL
