MODEL 1
REMARK VINA RESULT:      -7.3      0.000      0.000
REMARK  5 active torsions:
REMARK  status: ('A' for Active; 'I' for Inactive)
REMARK    1  A    between atoms: C3_3  and  C4_4 
REMARK    2  A    between atoms: C5_6  and  C6_7 
REMARK    3  A    between atoms: C8_9  and  C9_10 
REMARK    4  A    between atoms: C9_10  and  C10_11 
REMARK    5  A    between atoms: C10_11  and  C11_12 
ROOT
HETATM    1  C6  UNL     1      21.577  -0.283  52.511  1.00  0.00     0.061 A 
HETATM    2  C7  UNL     1      22.895  -0.359  52.899  1.00  0.00     0.059 A 
HETATM    3  C8  UNL     1      23.104  -0.763  54.200  1.00  0.00     0.038 A 
HETATM    4  N2  UNL     1      22.050  -1.050  54.987  1.00  0.00    -0.246 NA
HETATM    5  C16 UNL     1      20.779  -0.966  54.582  1.00  0.00     0.233 A 
HETATM    6  N3  UNL     1      20.541  -0.575  53.321  1.00  0.00    -0.242 NA
ENDROOT
BRANCH   3   7
HETATM    7  C9  UNL     1      24.426  -0.923  54.857  1.00  0.00     0.062 C 
BRANCH   7   8
HETATM    8  C10 UNL     1      25.589  -0.548  53.999  1.00  0.00     0.037 C 
BRANCH   8   9
HETATM    9  C11 UNL     1      26.514   0.441  54.716  1.00  0.00     0.126 A 
HETATM   10  N1  UNL     1      27.796  -0.187  54.973  1.00  0.00    -0.389 N 
HETATM   11  C12 UNL     1      29.011   0.297  54.440  1.00  0.00     0.083 A 
HETATM   12  H13 UNL     1      27.883  -1.027  55.565  1.00  0.00     0.159 HD
HETATM   13  C13 UNL     1      29.035   1.376  53.660  1.00  0.00     0.018 A 
HETATM   14  C14 UNL     1      27.788   2.083  53.341  1.00  0.00     0.023 A 
HETATM   15  C15 UNL     1      26.671   1.620  53.843  1.00  0.00     0.034 A 
HETATM   16 CL1  UNL     1      25.165   2.445  53.479  1.00  0.00    -0.087 Cl
ENDBRANCH   8   9
ENDBRANCH   7   8
ENDBRANCH   3   7
BRANCH   1  17
HETATM   17  C5  UNL     1      21.266   0.141  51.155  1.00  0.00     0.050 C 
HETATM   18  C4  UNL     1      20.974   1.419  50.847  1.00  0.00     0.013 C 
HETATM   19 BR1  UNL     1      20.996   2.643  52.339  1.00  0.00    -0.051 Br
BRANCH  18  20
HETATM   20  C3  UNL     1      20.666   1.816  49.480  1.00  0.00     0.015 C 
HETATM   21  C2  UNL     1      21.491   2.318  48.584  1.00  0.00    -0.030 C 
HETATM   22  C1  UNL     1      22.910   2.701  48.449  1.00  0.00     0.036 C 
ENDBRANCH  18  20
ENDBRANCH   1  17
TORSDOF 5
ENDMDL
MODEL 2
REMARK VINA RESULT:      -7.2      4.198      5.551
REMARK  5 active torsions:
REMARK  status: ('A' for Active; 'I' for Inactive)
REMARK    1  A    between atoms: C3_3  and  C4_4 
REMARK    2  A    between atoms: C5_6  and  C6_7 
REMARK    3  A    between atoms: C8_9  and  C9_10 
REMARK    4  A    between atoms: C9_10  and  C10_11 
REMARK    5  A    between atoms: C10_11  and  C11_12 
ROOT
HETATM    1  C6  UNL     1      25.665   3.932  49.565  1.00  0.00     0.061 A 
HETATM    2  C7  UNL     1      26.184   3.116  50.543  1.00  0.00     0.059 A 
HETATM    3  C8  UNL     1      25.263   2.337  51.211  1.00  0.00     0.038 A 
HETATM    4  N2  UNL     1      23.960   2.415  50.881  1.00  0.00    -0.246 NA
HETATM    5  C16 UNL     1      23.485   3.219  49.924  1.00  0.00     0.233 A 
HETATM    6  N3  UNL     1      24.354   3.990  49.256  1.00  0.00    -0.242 NA
ENDROOT
BRANCH   3   7
HETATM    7  C9  UNL     1      25.568   1.380  52.304  1.00  0.00     0.062 C 
BRANCH   7   8
HETATM    8  C10 UNL     1      26.738   0.493  52.037  1.00  0.00     0.037 C 
BRANCH   8   9
HETATM    9  C11 UNL     1      27.370  -0.003  53.342  1.00  0.00     0.126 A 
HETATM   10  N1  UNL     1      27.588  -1.435  53.267  1.00  0.00    -0.389 N 
HETATM   11  C12 UNL     1      28.868  -2.026  53.358  1.00  0.00     0.083 A 
HETATM   12  H13 UNL     1      26.809  -2.099  53.142  1.00  0.00     0.159 HD
HETATM   13  C13 UNL     1      29.957  -1.277  53.521  1.00  0.00     0.018 A 
HETATM   14  C14 UNL     1      29.841   0.184  53.609  1.00  0.00     0.023 A 
HETATM   15  C15 UNL     1      28.647   0.714  53.522  1.00  0.00     0.034 A 
HETATM   16 CL1  UNL     1      28.478   2.458  53.623  1.00  0.00    -0.087 Cl
ENDBRANCH   8   9
ENDBRANCH   7   8
ENDBRANCH   3   7
BRANCH   1  17
HETATM   17  C5  UNL     1      26.566   4.792  48.814  1.00  0.00     0.050 C 
HETATM   18  C4  UNL     1      26.590   6.129  48.976  1.00  0.00     0.013 C 
HETATM   19 BR1  UNL     1      25.339   6.817  50.274  1.00  0.00    -0.051 Br
BRANCH  18  20
HETATM   20  C3  UNL     1      27.504   6.966  48.211  1.00  0.00     0.015 C 
HETATM   21  C2  UNL     1      28.757   6.710  47.897  1.00  0.00    -0.030 C 
HETATM   22  C1  UNL     1      29.773   5.656  48.087  1.00  0.00     0.036 C 
ENDBRANCH  18  20
ENDBRANCH   1  17
TORSDOF 5
ENDMDL
MODEL 3
REMARK VINA RESULT:      -7.1      2.567      3.730
REMARK  5 active torsions:
REMARK  status: ('A' for Active; 'I' for Inactive)
REMARK    1  A    between atoms: C3_3  and  C4_4 
REMARK    2  A    between atoms: C5_6  and  C6_7 
REMARK    3  A    between atoms: C8_9  and  C9_10 
REMARK    4  A    between atoms: C9_10  and  C10_11 
REMARK    5  A    between atoms: C10_11  and  C11_12 
ROOT
HETATM    1  C6  UNL     1      22.360   1.384  50.707  1.00  0.00     0.061 A 
HETATM    2  C7  UNL     1      23.171   1.043  51.764  1.00  0.00     0.059 A 
HETATM    3  C8  UNL     1      24.363   1.732  51.839  1.00  0.00     0.038 A 
HETATM    4  N2  UNL     1      24.654   2.664  50.912  1.00  0.00    -0.246 NA
HETATM    5  C16 UNL     1      23.844   2.974  49.894  1.00  0.00     0.233 A 
HETATM    6  N3  UNL     1      22.677   2.321  49.792  1.00  0.00    -0.242 NA
ENDROOT
BRANCH   3   7
HETATM    7  C9  UNL     1      25.407   1.548  52.879  1.00  0.00     0.062 C 
BRANCH   7   8
HETATM    8  C10 UNL     1      26.612   0.801  52.415  1.00  0.00     0.037 C 
BRANCH   8   9
HETATM    9  C11 UNL     1      27.385   0.202  53.595  1.00  0.00     0.126 A 
HETATM   10  N1  UNL     1      27.457  -1.239  53.452  1.00  0.00    -0.389 N 
HETATM   11  C12 UNL     1      28.677  -1.942  53.332  1.00  0.00     0.083 A 
HETATM   12  H13 UNL     1      26.611  -1.829  53.430  1.00  0.00     0.159 HD
HETATM   13  C13 UNL     1      29.842  -1.297  53.346  1.00  0.00     0.018 A 
HETATM   14  C14 UNL     1      29.874   0.165  53.487  1.00  0.00     0.023 A 
HETATM   15  C15 UNL     1      28.734   0.799  53.596  1.00  0.00     0.034 A 
HETATM   16 CL1  UNL     1      28.741   2.546  53.767  1.00  0.00    -0.087 Cl
ENDBRANCH   8   9
ENDBRANCH   7   8
ENDBRANCH   3   7
BRANCH   1  17
HETATM   17  C5  UNL     1      21.086   0.701  50.549  1.00  0.00     0.050 C 
HETATM   18  C4  UNL     1      19.967   1.104  51.183  1.00  0.00     0.013 C 
HETATM   19 BR1  UNL     1      20.185   2.652  52.315  1.00  0.00    -0.051 Br
BRANCH  18  20
HETATM   20  C3  UNL     1      18.704   0.402  51.007  1.00  0.00     0.015 C 
HETATM   21  C2  UNL     1      18.133  -0.446  51.837  1.00  0.00    -0.030 C 
HETATM   22  C1  UNL     1      18.373  -1.066  53.155  1.00  0.00     0.036 C 
ENDBRANCH  18  20
ENDBRANCH   1  17
TORSDOF 5
ENDMDL
MODEL 4
REMARK VINA RESULT:      -7.1      3.002      3.884
REMARK  5 active torsions:
REMARK  status: ('A' for Active; 'I' for Inactive)
REMARK    1  A    between atoms: C3_3  and  C4_4 
REMARK    2  A    between atoms: C5_6  and  C6_7 
REMARK    3  A    between atoms: C8_9  and  C9_10 
REMARK    4  A    between atoms: C9_10  and  C10_11 
REMARK    5  A    between atoms: C10_11  and  C11_12 
ROOT
HETATM    1  C6  UNL     1      21.328   2.688  52.281  1.00  0.00     0.061 A 
HETATM    2  C7  UNL     1      22.483   2.072  52.704  1.00  0.00     0.059 A 
HETATM    3  C8  UNL     1      23.598   2.880  52.758  1.00  0.00     0.038 A 
HETATM    4  N2  UNL     1      23.499   4.177  52.409  1.00  0.00    -0.246 NA
HETATM    5  C16 UNL     1      22.361   4.749  52.001  1.00  0.00     0.233 A 
HETATM    6  N3  UNL     1      21.258   3.989  51.937  1.00  0.00    -0.242 NA
ENDROOT
BRANCH   3   7
HETATM    7  C9  UNL     1      24.957   2.456  53.177  1.00  0.00     0.062 C 
BRANCH   7   8
HETATM    8  C10 UNL     1      25.367   1.113  52.670  1.00  0.00     0.037 C 
BRANCH   8   9
HETATM    9  C11 UNL     1      26.841   1.101  52.253  1.00  0.00     0.126 A 
HETATM   10  N1  UNL     1      27.476   2.339  52.665  1.00  0.00    -0.389 N 
HETATM   11  C12 UNL     1      28.560   2.385  53.569  1.00  0.00     0.083 A 
HETATM   12  H13 UNL     1      27.163   3.256  52.312  1.00  0.00     0.159 HD
HETATM   13  C13 UNL     1      29.060   1.269  54.096  1.00  0.00     0.018 A 
HETATM   14  C14 UNL     1      28.486  -0.036  53.741  1.00  0.00     0.023 A 
HETATM   15  C15 UNL     1      27.481  -0.059  52.902  1.00  0.00     0.034 A 
HETATM   16 CL1  UNL     1      26.775  -1.604  52.459  1.00  0.00    -0.087 Cl
ENDBRANCH   8   9
ENDBRANCH   7   8
ENDBRANCH   3   7
BRANCH   1  17
HETATM   17  C5  UNL     1      20.106   1.906  52.190  1.00  0.00     0.050 C 
HETATM   18  C4  UNL     1      19.828   1.120  51.132  1.00  0.00     0.013 C 
HETATM   19 BR1  UNL     1      21.173   1.112  49.747  1.00  0.00    -0.051 Br
BRANCH  18  20
HETATM   20  C3  UNL     1      18.596   0.347  51.067  1.00  0.00     0.015 C 
HETATM   21  C2  UNL     1      18.143  -0.519  51.949  1.00  0.00    -0.030 C 
HETATM   22  C1  UNL     1      18.523  -1.105  53.249  1.00  0.00     0.036 C 
ENDBRANCH  18  20
ENDBRANCH   1  17
TORSDOF 5
ENDMDL
MODEL 5
REMARK VINA RESULT:      -6.9      2.715      6.520
REMARK  5 active torsions:
REMARK  status: ('A' for Active; 'I' for Inactive)
REMARK    1  A    between atoms: C3_3  and  C4_4 
REMARK    2  A    between atoms: C5_6  and  C6_7 
REMARK    3  A    between atoms: C8_9  and  C9_10 
REMARK    4  A    between atoms: C9_10  and  C10_11 
REMARK    5  A    between atoms: C10_11  and  C11_12 
ROOT
HETATM    1  C6  UNL     1      25.069  -0.272  54.452  1.00  0.00     0.061 A 
HETATM    2  C7  UNL     1      24.122   0.050  53.508  1.00  0.00     0.059 A 
HETATM    3  C8  UNL     1      22.883  -0.523  53.695  1.00  0.00     0.038 A 
HETATM    4  N2  UNL     1      22.676  -1.334  54.750  1.00  0.00    -0.246 NA
HETATM    5  C16 UNL     1      23.617  -1.629  55.653  1.00  0.00     0.233 A 
HETATM    6  N3  UNL     1      24.834  -1.087  55.500  1.00  0.00    -0.242 NA
ENDROOT
BRANCH   3   7
HETATM    7  C9  UNL     1      21.699  -0.336  52.819  1.00  0.00     0.062 C 
BRANCH   7   8
HETATM    8  C10 UNL     1      20.830   0.818  53.198  1.00  0.00     0.037 C 
BRANCH   8   9
HETATM    9  C11 UNL     1      20.718   1.830  52.052  1.00  0.00     0.126 A 
HETATM   10  N1  UNL     1      22.000   2.475  51.843  1.00  0.00    -0.389 N 
HETATM   11  C12 UNL     1      22.718   2.388  50.630  1.00  0.00     0.083 A 
HETATM   12  H13 UNL     1      22.455   3.036  52.579  1.00  0.00     0.159 HD
HETATM   13  C13 UNL     1      22.239   1.693  49.600  1.00  0.00     0.018 A 
HETATM   14  C14 UNL     1      20.947   1.003  49.712  1.00  0.00     0.023 A 
HETATM   15  C15 UNL     1      20.296   1.095  50.845  1.00  0.00     0.034 A 
HETATM   16 CL1  UNL     1      18.750   0.281  51.009  1.00  0.00    -0.087 Cl
ENDBRANCH   8   9
ENDBRANCH   7   8
ENDBRANCH   3   7
BRANCH   1  17
HETATM   17  C5  UNL     1      26.406   0.286  54.328  1.00  0.00     0.050 C 
HETATM   18  C4  UNL     1      27.337  -0.245  53.511  1.00  0.00     0.013 C 
HETATM   19 BR1  UNL     1      26.763  -1.801  52.524  1.00  0.00    -0.051 Br
BRANCH  18  20
HETATM   20  C3  UNL     1      28.668   0.334  53.405  1.00  0.00     0.015 C 
HETATM   21  C2  UNL     1      29.825  -0.274  53.570  1.00  0.00    -0.030 C 
HETATM   22  C1  UNL     1      30.358  -1.612  53.891  1.00  0.00     0.036 C 
ENDBRANCH  18  20
ENDBRANCH   1  17
TORSDOF 5
ENDMDL
MODEL 6
REMARK VINA RESULT:      -6.9      5.644      7.975
REMARK  5 active torsions:
REMARK  status: ('A' for Active; 'I' for Inactive)
REMARK    1  A    between atoms: C3_3  and  C4_4 
REMARK    2  A    between atoms: C5_6  and  C6_7 
REMARK    3  A    between atoms: C8_9  and  C9_10 
REMARK    4  A    between atoms: C9_10  and  C10_11 
REMARK    5  A    between atoms: C10_11  and  C11_12 
ROOT
HETATM    1  C6  UNL     1      25.865   2.163  51.299  1.00  0.00     0.061 A 
HETATM    2  C7  UNL     1      26.631   2.756  50.323  1.00  0.00     0.059 A 
HETATM    3  C8  UNL     1      26.210   4.006  49.920  1.00  0.00     0.038 A 
HETATM    4  N2  UNL     1      25.117   4.555  50.482  1.00  0.00    -0.246 NA
HETATM    5  C16 UNL     1      24.392   3.953  51.431  1.00  0.00     0.233 A 
HETATM    6  N3  UNL     1      24.774   2.736  51.845  1.00  0.00    -0.242 NA
ENDROOT
BRANCH   3   7
HETATM    7  C9  UNL     1      26.861   4.849  48.885  1.00  0.00     0.062 C 
BRANCH   7   8
HETATM    8  C10 UNL     1      26.203   6.171  48.666  1.00  0.00     0.037 C 
BRANCH   8   9
HETATM    9  C11 UNL     1      27.230   7.308  48.655  1.00  0.00     0.126 A 
HETATM   10  N1  UNL     1      28.535   6.792  49.019  1.00  0.00    -0.389 N 
HETATM   11  C12 UNL     1      29.654   6.848  48.158  1.00  0.00     0.083 A 
HETATM   12  H13 UNL     1      28.713   6.354  49.936  1.00  0.00     0.159 HD
HETATM   13  C13 UNL     1      29.557   7.390  46.946  1.00  0.00     0.018 A 
HETATM   14  C14 UNL     1      28.276   7.941  46.484  1.00  0.00     0.023 A 
HETATM   15  C15 UNL     1      27.251   7.880  47.295  1.00  0.00     0.034 A 
HETATM   16 CL1  UNL     1      25.707   8.531  46.771  1.00  0.00    -0.087 Cl
ENDBRANCH   8   9
ENDBRANCH   7   8
ENDBRANCH   3   7
BRANCH   1  17
HETATM   17  C5  UNL     1      26.236   0.842  51.778  1.00  0.00     0.050 C 
HETATM   18  C4  UNL     1      27.143   0.657  52.758  1.00  0.00     0.013 C 
HETATM   19 BR1  UNL     1      27.912   2.276  53.472  1.00  0.00    -0.051 Br
BRANCH  18  20
HETATM   20  C3  UNL     1      27.495  -0.678  53.219  1.00  0.00     0.015 C 
HETATM   21  C2  UNL     1      28.697  -1.143  53.494  1.00  0.00    -0.030 C 
HETATM   22  C1  UNL     1      30.103  -0.694  53.501  1.00  0.00     0.036 C 
ENDBRANCH  18  20
ENDBRANCH   1  17
TORSDOF 5
ENDMDL
MODEL 7
REMARK VINA RESULT:      -6.9      3.160      6.990
REMARK  5 active torsions:
REMARK  status: ('A' for Active; 'I' for Inactive)
REMARK    1  A    between atoms: C3_3  and  C4_4 
REMARK    2  A    between atoms: C5_6  and  C6_7 
REMARK    3  A    between atoms: C8_9  and  C9_10 
REMARK    4  A    between atoms: C9_10  and  C10_11 
REMARK    5  A    between atoms: C10_11  and  C11_12 
ROOT
HETATM    1  C6  UNL     1      26.428   2.522  51.728  1.00  0.00     0.061 A 
HETATM    2  C7  UNL     1      25.108   2.333  52.065  1.00  0.00     0.059 A 
HETATM    3  C8  UNL     1      24.195   2.680  51.093  1.00  0.00     0.038 A 
HETATM    4  N2  UNL     1      24.628   3.165  49.913  1.00  0.00    -0.246 NA
HETATM    5  C16 UNL     1      25.920   3.337  49.614  1.00  0.00     0.233 A 
HETATM    6  N3  UNL     1      26.834   3.009  50.539  1.00  0.00    -0.242 NA
ENDROOT
BRANCH   3   7
HETATM    7  C9  UNL     1      22.719   2.574  51.211  1.00  0.00     0.062 C 
BRANCH   7   8
HETATM    8  C10 UNL     1      22.247   1.941  52.477  1.00  0.00     0.037 C 
BRANCH   8   9
HETATM    9  C11 UNL     1      22.002   0.439  52.291  1.00  0.00     0.126 A 
HETATM   10  N1  UNL     1      22.900  -0.312  53.147  1.00  0.00    -0.389 N 
HETATM   11  C12 UNL     1      22.447  -1.178  54.168  1.00  0.00     0.083 A 
HETATM   12  H13 UNL     1      23.924  -0.251  53.051  1.00  0.00     0.159 HD
HETATM   13  C13 UNL     1      21.146  -1.347  54.394  1.00  0.00     0.018 A 
HETATM   14  C14 UNL     1      20.156  -0.630  53.580  1.00  0.00     0.023 A 
HETATM   15  C15 UNL     1      20.594   0.169  52.640  1.00  0.00     0.034 A 
HETATM   16 CL1  UNL     1      19.435   1.039  51.650  1.00  0.00    -0.087 Cl
ENDBRANCH   8   9
ENDBRANCH   7   8
ENDBRANCH   3   7
BRANCH   1  17
HETATM   17  C5  UNL     1      27.457   2.186  52.698  1.00  0.00     0.050 C 
HETATM   18  C4  UNL     1      27.720   0.915  53.061  1.00  0.00     0.013 C 
HETATM   19 BR1  UNL     1      26.628  -0.422  52.199  1.00  0.00    -0.051 Br
BRANCH  18  20
HETATM   20  C3  UNL     1      28.757   0.607  54.036  1.00  0.00     0.015 C 
HETATM   21  C2  UNL     1      29.509  -0.473  54.095  1.00  0.00    -0.030 C 
HETATM   22  C1  UNL     1      29.713  -1.744  53.373  1.00  0.00     0.036 C 
ENDBRANCH  18  20
ENDBRANCH   1  17
TORSDOF 5
ENDMDL
MODEL 8
REMARK VINA RESULT:      -6.9      2.124      2.649
REMARK  5 active torsions:
REMARK  status: ('A' for Active; 'I' for Inactive)
REMARK    1  A    between atoms: C3_3  and  C4_4 
REMARK    2  A    between atoms: C5_6  and  C6_7 
REMARK    3  A    between atoms: C8_9  and  C9_10 
REMARK    4  A    between atoms: C9_10  and  C10_11 
REMARK    5  A    between atoms: C10_11  and  C11_12 
ROOT
HETATM    1  C6  UNL     1      22.637   2.086  51.287  1.00  0.00     0.061 A 
HETATM    2  C7  UNL     1      23.693   1.300  51.686  1.00  0.00     0.059 A 
HETATM    3  C8  UNL     1      23.437   0.463  52.751  1.00  0.00     0.038 A 
HETATM    4  N2  UNL     1      22.216   0.460  53.318  1.00  0.00    -0.246 NA
HETATM    5  C16 UNL     1      21.207   1.236  52.908  1.00  0.00     0.233 A 
HETATM    6  N3  UNL     1      21.424   2.063  51.875  1.00  0.00    -0.242 NA
ENDROOT
BRANCH   3   7
HETATM    7  C9  UNL     1      24.406  -0.478  53.367  1.00  0.00     0.062 C 
BRANCH   7   8
HETATM    8  C10 UNL     1      25.792  -0.379  52.821  1.00  0.00     0.037 C 
BRANCH   8   9
HETATM    9  C11 UNL     1      26.823  -0.220  53.944  1.00  0.00     0.126 A 
HETATM   10  N1  UNL     1      27.831  -1.256  53.832  1.00  0.00    -0.389 N 
HETATM   11  C12 UNL     1      29.201  -0.979  53.623  1.00  0.00     0.083 A 
HETATM   12  H13 UNL     1      27.595  -2.257  53.901  1.00  0.00     0.159 HD
HETATM   13  C13 UNL     1      29.637   0.274  53.518  1.00  0.00     0.018 A 
HETATM   14  C14 UNL     1      28.693   1.395  53.617  1.00  0.00     0.023 A 
HETATM   15  C15 UNL     1      27.427   1.119  53.810  1.00  0.00     0.034 A 
HETATM   16 CL1  UNL     1      26.275   2.438  53.934  1.00  0.00    -0.087 Cl
ENDBRANCH   8   9
ENDBRANCH   7   8
ENDBRANCH   3   7
BRANCH   1  17
HETATM   17  C5  UNL     1      22.822   3.002  50.174  1.00  0.00     0.050 C 
HETATM   18  C4  UNL     1      23.198   4.284  50.349  1.00  0.00     0.013 C 
HETATM   19 BR1  UNL     1      23.469   4.811  52.185  1.00  0.00    -0.051 Br
BRANCH  18  20
HETATM   20  C3  UNL     1      23.377   5.180  49.216  1.00  0.00     0.015 C 
HETATM   21  C2  UNL     1      24.508   5.656  48.737  1.00  0.00    -0.030 C 
HETATM   22  C1  UNL     1      25.959   5.588  49.000  1.00  0.00     0.036 C 
ENDBRANCH  18  20
ENDBRANCH   1  17
TORSDOF 5
ENDMDL
MODEL 9
REMARK VINA RESULT:      -6.9      5.715      7.825
REMARK  5 active torsions:
REMARK  status: ('A' for Active; 'I' for Inactive)
REMARK    1  A    between atoms: C3_3  and  C4_4 
REMARK    2  A    between atoms: C5_6  and  C6_7 
REMARK    3  A    between atoms: C8_9  and  C9_10 
REMARK    4  A    between atoms: C9_10  and  C10_11 
REMARK    5  A    between atoms: C10_11  and  C11_12 
ROOT
HETATM    1  C6  UNL     1      25.777   2.199  51.306  1.00  0.00     0.061 A 
HETATM    2  C7  UNL     1      26.412   2.846  50.272  1.00  0.00     0.059 A 
HETATM    3  C8  UNL     1      25.921   4.098  49.968  1.00  0.00     0.038 A 
HETATM    4  N2  UNL     1      24.888   4.598  50.673  1.00  0.00    -0.246 NA
HETATM    5  C16 UNL     1      24.290   3.944  51.674  1.00  0.00     0.233 A 
HETATM    6  N3  UNL     1      24.744   2.723  51.994  1.00  0.00    -0.242 NA
ENDROOT
BRANCH   3   7
HETATM    7  C9  UNL     1      26.430   4.994  48.900  1.00  0.00     0.062 C 
BRANCH   7   8
HETATM    8  C10 UNL     1      27.918   5.040  48.792  1.00  0.00     0.037 C 
BRANCH   8   9
HETATM    9  C11 UNL     1      28.380   6.253  47.977  1.00  0.00     0.126 A 
HETATM   10  N1  UNL     1      27.670   7.438  48.419  1.00  0.00    -0.389 N 
HETATM   11  C12 UNL     1      28.320   8.566  48.968  1.00  0.00     0.083 A 
HETATM   12  H13 UNL     1      26.644   7.515  48.352  1.00  0.00     0.159 HD
HETATM   13  C13 UNL     1      29.644   8.592  49.107  1.00  0.00     0.018 A 
HETATM   14  C14 UNL     1      30.453   7.440  48.689  1.00  0.00     0.023 A 
HETATM   15  C15 UNL     1      29.833   6.403  48.183  1.00  0.00     0.034 A 
HETATM   16 CL1  UNL     1      30.774   5.011  47.674  1.00  0.00    -0.087 Cl
ENDBRANCH   8   9
ENDBRANCH   7   8
ENDBRANCH   3   7
BRANCH   1  17
HETATM   17  C5  UNL     1      26.229   0.871  51.688  1.00  0.00     0.050 C 
HETATM   18  C4  UNL     1      27.178   0.673  52.623  1.00  0.00     0.013 C 
HETATM   19 BR1  UNL     1      27.893   2.282  53.413  1.00  0.00    -0.051 Br
BRANCH  18  20
HETATM   20  C3  UNL     1      27.612  -0.668  52.987  1.00  0.00     0.015 C 
HETATM   21  C2  UNL     1      28.823  -1.055  53.334  1.00  0.00    -0.030 C 
HETATM   22  C1  UNL     1      30.174  -0.493  53.522  1.00  0.00     0.036 C 
ENDBRANCH  18  20
ENDBRANCH   1  17
TORSDOF 5
ENDMDL
