MODEL 1
REMARK VINA RESULT:      -8.7      0.000      0.000
REMARK  6 active torsions:
REMARK  status: ('A' for Active; 'I' for Inactive)
REMARK    1  A    between atoms: C2_2  and  C3_4 
REMARK    2  A    between atoms: C4_6  and  C5_7 
REMARK    3  A    between atoms: C6_8  and  N1_9 
REMARK    4  A    between atoms: N1_9  and  C7_10 
REMARK    5  A    between atoms: C14_20  and  C15_21 
REMARK    6  A    between atoms: C15_21  and  O2_23 
ROOT
HETATM    1  C7  UNL     1      20.936   0.440  53.134  1.00  0.00     0.159 A 
HETATM    2  N2  UNL     1      20.207  -0.506  53.753  1.00  0.00    -0.222 NA
HETATM    3  C8  UNL     1      20.858  -1.505  54.422  1.00  0.00     0.238 A 
HETATM    4  N3  UNL     1      22.199  -1.543  54.462  1.00  0.00    -0.216 NA
HETATM    5  C9  UNL     1      22.962  -0.601  53.846  1.00  0.00     0.197 A 
HETATM    6  C10 UNL     1      22.314   0.429  53.157  1.00  0.00     0.128 A 
HETATM    7  N4  UNL     1      22.860   1.532  52.440  1.00  0.00    -0.379 N 
HETATM    8  C11 UNL     1      24.130   2.131  52.791  1.00  0.00     0.157 C 
HETATM    9  C12 UNL     1      25.224   1.181  53.013  1.00  0.00    -0.032 A 
HETATM   10  C13 UNL     1      26.248   2.016  53.276  1.00  0.00     0.025 A 
HETATM   11  C14 UNL     1      27.579   1.497  53.566  1.00  0.00     0.034 A 
HETATM   12  C16 UNL     1      27.640   0.178  53.534  1.00  0.00    -0.006 A 
HETATM   13  C17 UNL     1      26.637  -0.839  53.265  1.00  0.00     0.065 A 
HETATM   14  C18 UNL     1      25.284  -0.302  52.987  1.00  0.00     0.164 A 
HETATM   15  O3  UNL     1      24.332  -0.756  53.964  1.00  0.00    -0.322 OA
HETATM   16  H8  UNL     1      22.209   1.808  51.670  1.00  0.00     0.160 HD
ENDROOT
BRANCH   1  17
HETATM   17  N1  UNL     1      20.184   1.435  52.466  1.00  0.00    -0.349 N 
HETATM   18  H6  UNL     1      20.043   2.456  52.381  1.00  0.00     0.167 HD
BRANCH  17  19
HETATM   19  C6  UNL     1      19.200   1.055  51.516  1.00  0.00     0.090 C 
HETATM   20  C5  UNL     1      19.205   1.374  50.238  1.00  0.00     0.020 C 
BRANCH  20  21
HETATM   21  C4  UNL     1      20.223   2.176  49.576  1.00  0.00     0.045 C 
HETATM   22  C3  UNL     1      21.354   1.651  49.070  1.00  0.00     0.134 C 
HETATM   23  F1  UNL     1      21.495   0.312  49.222  1.00  0.00    -0.205 F 
BRANCH  22  24
HETATM   24  C2  UNL     1      22.343   2.481  48.417  1.00  0.00     0.050 C 
HETATM   25  C1  UNL     1      22.152   2.853  47.165  1.00  0.00     0.060 C 
HETATM   26 CL1  UNL     1      23.765   2.968  49.301  1.00  0.00    -0.086 Cl
ENDBRANCH  22  24
ENDBRANCH  20  21
ENDBRANCH  17  19
ENDBRANCH   1  17
BRANCH  11  27
HETATM   27  C15 UNL     1      28.747   2.311  53.864  1.00  0.00     0.175 C 
HETATM   28  O1  UNL     1      29.330   2.171  54.967  1.00  0.00    -0.646 OA
BRANCH  27  29
HETATM   29  O2  UNL     1      29.177   3.216  52.916  1.00  0.00    -0.773 OA
HETATM   30  H12 UNL     1      29.911   3.885  53.135  1.00  0.00     0.167 HD
ENDBRANCH  27  29
ENDBRANCH  11  27
TORSDOF 6
ENDMDL
MODEL 2
REMARK VINA RESULT:      -8.5      3.724      6.115
REMARK  6 active torsions:
REMARK  status: ('A' for Active; 'I' for Inactive)
REMARK    1  A    between atoms: C2_2  and  C3_4 
REMARK    2  A    between atoms: C4_6  and  C5_7 
REMARK    3  A    between atoms: C6_8  and  N1_9 
REMARK    4  A    between atoms: N1_9  and  C7_10 
REMARK    5  A    between atoms: C14_20  and  C15_21 
REMARK    6  A    between atoms: C15_21  and  O2_23 
ROOT
HETATM    1  C7  UNL     1      26.582  -0.144  53.638  1.00  0.00     0.159 A 
HETATM    2  N2  UNL     1      27.733  -0.209  54.331  1.00  0.00    -0.222 NA
HETATM    3  C8  UNL     1      28.704   0.721  54.084  1.00  0.00     0.238 A 
HETATM    4  N3  UNL     1      28.514   1.681  53.166  1.00  0.00    -0.216 NA
HETATM    5  C9  UNL     1      27.363   1.773  52.449  1.00  0.00     0.197 A 
HETATM    6  C10 UNL     1      26.358   0.831  52.690  1.00  0.00     0.128 A 
HETATM    7  N4  UNL     1      25.069   0.699  52.096  1.00  0.00    -0.379 N 
HETATM    8  C11 UNL     1      24.329   1.836  51.593  1.00  0.00     0.157 C 
HETATM    9  C12 UNL     1      25.098   2.753  50.747  1.00  0.00    -0.032 A 
HETATM   10  C13 UNL     1      24.157   3.657  50.414  1.00  0.00     0.025 A 
HETATM   11  C14 UNL     1      24.478   4.788  49.553  1.00  0.00     0.034 A 
HETATM   12  C16 UNL     1      25.741   4.803  49.166  1.00  0.00    -0.006 A 
HETATM   13  C17 UNL     1      26.856   3.909  49.436  1.00  0.00     0.065 A 
HETATM   14  C18 UNL     1      26.521   2.771  50.324  1.00  0.00     0.164 A 
HETATM   15  O3  UNL     1      27.296   2.809  51.535  1.00  0.00    -0.322 OA
HETATM   16  H8  UNL     1      24.782  -0.306  52.099  1.00  0.00     0.160 HD
ENDROOT
BRANCH   1  17
HETATM   17  N1  UNL     1      25.632  -1.144  53.957  1.00  0.00    -0.349 N 
HETATM   18  H6  UNL     1      25.207  -2.024  53.621  1.00  0.00     0.167 HD
BRANCH  17  19
HETATM   19  C6  UNL     1      24.891  -1.051  55.163  1.00  0.00     0.090 C 
HETATM   20  C5  UNL     1      23.581  -0.950  55.252  1.00  0.00     0.020 C 
BRANCH  20  21
HETATM   21  C4  UNL     1      22.662  -0.915  54.124  1.00  0.00     0.045 C 
HETATM   22  C3  UNL     1      21.460  -0.313  54.178  1.00  0.00     0.134 C 
HETATM   23  F1  UNL     1      21.146   0.261  55.365  1.00  0.00    -0.205 F 
BRANCH  22  24
HETATM   24  C2  UNL     1      20.573  -0.299  53.034  1.00  0.00     0.050 C 
HETATM   25  C1  UNL     1      19.296  -0.589  53.201  1.00  0.00     0.060 C 
HETATM   26 CL1  UNL     1      21.215   0.099  51.462  1.00  0.00    -0.086 Cl
ENDBRANCH  22  24
ENDBRANCH  20  21
ENDBRANCH  17  19
ENDBRANCH   1  17
BRANCH  11  27
HETATM   27  C15 UNL     1      23.538   5.817  49.139  1.00  0.00     0.175 C 
HETATM   28  O1  UNL     1      22.815   6.374  50.000  1.00  0.00    -0.646 OA
BRANCH  27  29
HETATM   29  O2  UNL     1      23.474   6.148  47.801  1.00  0.00    -0.773 OA
HETATM   30  H12 UNL     1      23.913   6.999  47.457  1.00  0.00     0.167 HD
ENDBRANCH  27  29
ENDBRANCH  11  27
TORSDOF 6
ENDMDL
MODEL 3
REMARK VINA RESULT:      -8.4      1.932      2.042
REMARK  6 active torsions:
REMARK  status: ('A' for Active; 'I' for Inactive)
REMARK    1  A    between atoms: C2_2  and  C3_4 
REMARK    2  A    between atoms: C4_6  and  C5_7 
REMARK    3  A    between atoms: C6_8  and  N1_9 
REMARK    4  A    between atoms: N1_9  and  C7_10 
REMARK    5  A    between atoms: C14_20  and  C15_21 
REMARK    6  A    between atoms: C15_21  and  O2_23 
ROOT
HETATM    1  C7  UNL     1      21.157   0.370  52.600  1.00  0.00     0.159 A 
HETATM    2  N2  UNL     1      20.339  -0.441  53.295  1.00  0.00    -0.222 NA
HETATM    3  C8  UNL     1      20.884  -1.294  54.213  1.00  0.00     0.238 A 
HETATM    4  N3  UNL     1      22.210  -1.323  54.420  1.00  0.00    -0.216 NA
HETATM    5  C9  UNL     1      23.061  -0.516  53.733  1.00  0.00     0.197 A 
HETATM    6  C10 UNL     1      22.522   0.364  52.790  1.00  0.00     0.128 A 
HETATM    7  N4  UNL     1      23.173   1.311  51.949  1.00  0.00    -0.379 N 
HETATM    8  C11 UNL     1      24.406   1.966  52.330  1.00  0.00     0.157 C 
HETATM    9  C12 UNL     1      25.444   1.076  52.856  1.00  0.00    -0.032 A 
HETATM   10  C13 UNL     1      26.449   1.946  53.078  1.00  0.00     0.025 A 
HETATM   11  C14 UNL     1      27.725   1.492  53.617  1.00  0.00     0.034 A 
HETATM   12  C16 UNL     1      27.760   0.191  53.842  1.00  0.00    -0.006 A 
HETATM   13  C17 UNL     1      26.773  -0.859  53.653  1.00  0.00     0.065 A 
HETATM   14  C18 UNL     1      25.474  -0.385  53.118  1.00  0.00     0.164 A 
HETATM   15  O3  UNL     1      24.403  -0.645  54.042  1.00  0.00    -0.322 OA
HETATM   16  H8  UNL     1      22.623   1.435  51.068  1.00  0.00     0.160 HD
ENDROOT
BRANCH   1  17
HETATM   17  N1  UNL     1      20.511   1.220  51.671  1.00  0.00    -0.349 N 
HETATM   18  H6  UNL     1      20.369   1.394  50.662  1.00  0.00     0.167 HD
BRANCH  17  19
HETATM   19  C6  UNL     1      19.715   2.299  52.138  1.00  0.00     0.090 C 
HETATM   20  C5  UNL     1      19.911   3.571  51.863  1.00  0.00     0.020 C 
BRANCH  20  21
HETATM   21  C4  UNL     1      20.982   4.095  51.027  1.00  0.00     0.045 C 
HETATM   22  C3  UNL     1      22.082   4.684  51.531  1.00  0.00     0.134 C 
HETATM   23  F1  UNL     1      22.133   4.768  52.883  1.00  0.00    -0.205 F 
BRANCH  22  24
HETATM   24  C2  UNL     1      23.126   5.193  50.667  1.00  0.00     0.050 C 
HETATM   25  C1  UNL     1      23.676   6.362  50.936  1.00  0.00     0.060 C 
HETATM   26 CL1  UNL     1      23.630   4.248  49.291  1.00  0.00    -0.086 Cl
ENDBRANCH  22  24
ENDBRANCH  20  21
ENDBRANCH  17  19
ENDBRANCH   1  17
BRANCH  11  27
HETATM   27  C15 UNL     1      28.868   2.348  53.894  1.00  0.00     0.175 C 
HETATM   28  O1  UNL     1      29.465   2.242  54.994  1.00  0.00    -0.646 OA
BRANCH  27  29
HETATM   29  O2  UNL     1      29.259   3.254  52.931  1.00  0.00    -0.773 OA
HETATM   30  H12 UNL     1      28.850   3.228  52.000  1.00  0.00     0.167 HD
ENDBRANCH  27  29
ENDBRANCH  11  27
TORSDOF 6
ENDMDL
MODEL 4
REMARK VINA RESULT:      -8.4      2.946      6.086
REMARK  6 active torsions:
REMARK  status: ('A' for Active; 'I' for Inactive)
REMARK    1  A    between atoms: C2_2  and  C3_4 
REMARK    2  A    between atoms: C4_6  and  C5_7 
REMARK    3  A    between atoms: C6_8  and  N1_9 
REMARK    4  A    between atoms: N1_9  and  C7_10 
REMARK    5  A    between atoms: C14_20  and  C15_21 
REMARK    6  A    between atoms: C15_21  and  O2_23 
ROOT
HETATM    1  C7  UNL     1      26.082   1.592  52.226  1.00  0.00     0.159 A 
HETATM    2  N2  UNL     1      27.223   0.880  52.182  1.00  0.00    -0.222 NA
HETATM    3  C8  UNL     1      27.198  -0.428  52.577  1.00  0.00     0.238 A 
HETATM    4  N3  UNL     1      26.058  -0.994  53.003  1.00  0.00    -0.216 NA
HETATM    5  C9  UNL     1      24.890  -0.301  53.059  1.00  0.00     0.197 A 
HETATM    6  C10 UNL     1      24.896   1.039  52.657  1.00  0.00     0.128 A 
HETATM    7  N4  UNL     1      23.828   1.981  52.608  1.00  0.00    -0.379 N 
HETATM    8  C11 UNL     1      22.455   1.585  52.383  1.00  0.00     0.157 C 
HETATM    9  C12 UNL     1      21.993   0.457  53.197  1.00  0.00    -0.032 A 
HETATM   10  C13 UNL     1      20.710   0.355  52.800  1.00  0.00     0.025 A 
HETATM   11  C14 UNL     1      19.833  -0.665  53.363  1.00  0.00     0.034 A 
HETATM   12  C16 UNL     1      20.431  -1.425  54.262  1.00  0.00    -0.006 A 
HETATM   13  C17 UNL     1      21.787  -1.432  54.788  1.00  0.00     0.065 A 
HETATM   14  C18 UNL     1      22.674  -0.401  54.199  1.00  0.00     0.164 A 
HETATM   15  O3  UNL     1      23.788  -1.001  53.516  1.00  0.00    -0.322 OA
HETATM   16  H8  UNL     1      24.205   2.946  52.752  1.00  0.00     0.160 HD
ENDROOT
BRANCH   1  17
HETATM   17  N1  UNL     1      26.196   2.936  51.799  1.00  0.00    -0.349 N 
HETATM   18  H6  UNL     1      26.096   3.918  52.107  1.00  0.00     0.167 HD
BRANCH  17  19
HETATM   19  C6  UNL     1      26.586   3.220  50.464  1.00  0.00     0.090 C 
HETATM   20  C5  UNL     1      25.890   3.925  49.596  1.00  0.00     0.020 C 
BRANCH  20  21
HETATM   21  C4  UNL     1      24.596   4.538  49.856  1.00  0.00     0.045 C 
HETATM   22  C3  UNL     1      23.429   3.910  49.624  1.00  0.00     0.134 C 
HETATM   23  F1  UNL     1      23.530   2.656  49.120  1.00  0.00    -0.205 F 
BRANCH  22  24
HETATM   24  C2  UNL     1      22.161   4.553  49.896  1.00  0.00     0.050 C 
HETATM   25  C1  UNL     1      21.321   4.775  48.902  1.00  0.00     0.060 C 
HETATM   26 CL1  UNL     1      21.775   5.019  51.531  1.00  0.00    -0.086 Cl
ENDBRANCH  22  24
ENDBRANCH  20  21
ENDBRANCH  17  19
ENDBRANCH   1  17
BRANCH  11  27
HETATM   27  C15 UNL     1      18.438  -0.860  53.001  1.00  0.00     0.175 C 
HETATM   28  O1  UNL     1      18.074  -0.659  51.817  1.00  0.00    -0.646 OA
BRANCH  27  29
HETATM   29  O2  UNL     1      17.555  -1.264  53.982  1.00  0.00    -0.773 OA
HETATM   30  H12 UNL     1      17.764  -2.070  54.566  1.00  0.00     0.167 HD
ENDBRANCH  27  29
ENDBRANCH  11  27
TORSDOF 6
ENDMDL
MODEL 5
REMARK VINA RESULT:      -7.9      3.307      4.967
REMARK  6 active torsions:
REMARK  status: ('A' for Active; 'I' for Inactive)
REMARK    1  A    between atoms: C2_2  and  C3_4 
REMARK    2  A    between atoms: C4_6  and  C5_7 
REMARK    3  A    between atoms: C6_8  and  N1_9 
REMARK    4  A    between atoms: N1_9  and  C7_10 
REMARK    5  A    between atoms: C14_20  and  C15_21 
REMARK    6  A    between atoms: C15_21  and  O2_23 
ROOT
HETATM    1  C7  UNL     1      20.836   3.975  50.269  1.00  0.00     0.159 A 
HETATM    2  N2  UNL     1      19.616   4.507  50.465  1.00  0.00    -0.222 NA
HETATM    3  C8  UNL     1      18.820   3.984  51.445  1.00  0.00     0.238 A 
HETATM    4  N3  UNL     1      19.245   2.958  52.199  1.00  0.00    -0.216 NA
HETATM    5  C9  UNL     1      20.472   2.399  52.024  1.00  0.00     0.197 A 
HETATM    6  C10 UNL     1      21.301   2.922  51.026  1.00  0.00     0.128 A 
HETATM    7  N4  UNL     1      22.617   2.537  50.639  1.00  0.00    -0.379 N 
HETATM    8  C11 UNL     1      23.562   1.963  51.573  1.00  0.00     0.157 C 
HETATM    9  C12 UNL     1      23.030   0.885  52.411  1.00  0.00    -0.032 A 
HETATM   10  C13 UNL     1      24.121   0.542  53.122  1.00  0.00     0.025 A 
HETATM   11  C14 UNL     1      24.061  -0.525  54.114  1.00  0.00     0.034 A 
HETATM   12  C16 UNL     1      22.865  -1.077  54.210  1.00  0.00    -0.006 A 
HETATM   13  C17 UNL     1      21.613  -0.821  53.518  1.00  0.00     0.065 A 
HETATM   14  C18 UNL     1      21.681   0.275  52.523  1.00  0.00     0.164 A 
HETATM   15  O3  UNL     1      20.787   1.348  52.867  1.00  0.00    -0.322 OA
HETATM   16  H8  UNL     1      22.758   2.741  49.623  1.00  0.00     0.160 HD
ENDROOT
BRANCH   1  17
HETATM   17  N1  UNL     1      21.593   4.576  49.235  1.00  0.00    -0.349 N 
HETATM   18  H6  UNL     1      22.002   4.412  48.300  1.00  0.00     0.167 HD
BRANCH  17  19
HETATM   19  C6  UNL     1      22.047   5.913  49.382  1.00  0.00     0.090 C 
HETATM   20  C5  UNL     1      23.297   6.281  49.574  1.00  0.00     0.020 C 
BRANCH  20  21
HETATM   21  C4  UNL     1      24.434   5.378  49.670  1.00  0.00     0.045 C 
HETATM   22  C3  UNL     1      25.548   5.523  48.930  1.00  0.00     0.134 C 
HETATM   23  F1  UNL     1      25.548   6.571  48.071  1.00  0.00    -0.205 F 
BRANCH  22  24
HETATM   24  C2  UNL     1      26.660   4.604  49.055  1.00  0.00     0.050 C 
HETATM   25  C1  UNL     1      26.465   3.424  49.613  1.00  0.00     0.060 C 
HETATM   26 CL1  UNL     1      28.230   5.081  48.465  1.00  0.00    -0.086 Cl
ENDBRANCH  22  24
ENDBRANCH  20  21
ENDBRANCH  17  19
ENDBRANCH   1  17
BRANCH  11  27
HETATM   27  C15 UNL     1      25.177  -0.968  54.934  1.00  0.00     0.175 C 
HETATM   28  O1  UNL     1      26.336  -0.970  54.449  1.00  0.00    -0.646 OA
BRANCH  27  29
HETATM   29  O2  UNL     1      24.922  -1.375  56.227  1.00  0.00    -0.773 OA
HETATM   30  H12 UNL     1      24.999  -0.719  57.000  1.00  0.00     0.167 HD
ENDBRANCH  27  29
ENDBRANCH  11  27
TORSDOF 6
ENDMDL
MODEL 6
REMARK VINA RESULT:      -7.9      5.149      7.274
REMARK  6 active torsions:
REMARK  status: ('A' for Active; 'I' for Inactive)
REMARK    1  A    between atoms: C2_2  and  C3_4 
REMARK    2  A    between atoms: C4_6  and  C5_7 
REMARK    3  A    between atoms: C6_8  and  N1_9 
REMARK    4  A    between atoms: N1_9  and  C7_10 
REMARK    5  A    between atoms: C14_20  and  C15_21 
REMARK    6  A    between atoms: C15_21  and  O2_23 
ROOT
HETATM    1  C7  UNL     1      25.514   6.225  50.127  1.00  0.00     0.159 A 
HETATM    2  N2  UNL     1      24.633   7.237  50.226  1.00  0.00    -0.222 NA
HETATM    3  C8  UNL     1      23.427   7.004  50.826  1.00  0.00     0.238 A 
HETATM    4  N3  UNL     1      23.125   5.788  51.307  1.00  0.00    -0.216 NA
HETATM    5  C9  UNL     1      23.995   4.746  51.222  1.00  0.00     0.197 A 
HETATM    6  C10 UNL     1      25.234   4.966  50.613  1.00  0.00     0.128 A 
HETATM    7  N4  UNL     1      26.318   4.068  50.399  1.00  0.00    -0.379 N 
HETATM    8  C11 UNL     1      26.591   2.959  51.288  1.00  0.00     0.157 C 
HETATM    9  C12 UNL     1      25.425   2.145  51.641  1.00  0.00    -0.032 A 
HETATM   10  C13 UNL     1      25.988   1.202  52.421  1.00  0.00     0.025 A 
HETATM   11  C14 UNL     1      25.181   0.144  53.016  1.00  0.00     0.034 A 
HETATM   12  C16 UNL     1      23.901   0.230  52.702  1.00  0.00    -0.006 A 
HETATM   13  C17 UNL     1      23.157   1.173  51.883  1.00  0.00     0.065 A 
HETATM   14  C18 UNL     1      23.985   2.253  51.295  1.00  0.00     0.164 A 
HETATM   15  O3  UNL     1      23.561   3.546  51.758  1.00  0.00    -0.322 OA
HETATM   16  H8  UNL     1      26.843   4.349  49.540  1.00  0.00     0.160 HD
ENDROOT
BRANCH   1  17
HETATM   17  N1  UNL     1      26.736   6.554  49.493  1.00  0.00    -0.349 N 
HETATM   18  H6  UNL     1      27.754   6.644  49.645  1.00  0.00     0.167 HD
BRANCH  17  19
HETATM   19  C6  UNL     1      26.740   6.927  48.124  1.00  0.00     0.090 C 
HETATM   20  C5  UNL     1      27.810   7.197  47.407  1.00  0.00     0.020 C 
BRANCH  20  21
HETATM   21  C4  UNL     1      29.181   7.160  47.895  1.00  0.00     0.045 C 
HETATM   22  C3  UNL     1      29.845   6.013  48.126  1.00  0.00     0.134 C 
HETATM   23  F1  UNL     1      29.149   4.875  47.881  1.00  0.00    -0.205 F 
BRANCH  22  24
HETATM   24  C2  UNL     1      31.208   6.016  48.612  1.00  0.00     0.050 C 
HETATM   25  C1  UNL     1      32.027   5.045  48.250  1.00  0.00     0.060 C 
HETATM   26 CL1  UNL     1      31.735   7.302  49.664  1.00  0.00    -0.086 Cl
ENDBRANCH  22  24
ENDBRANCH  20  21
ENDBRANCH  17  19
ENDBRANCH   1  17
BRANCH  11  27
HETATM   27  C15 UNL     1      25.690  -0.915  53.872  1.00  0.00     0.175 C 
HETATM   28  O1  UNL     1      25.169  -1.101  54.999  1.00  0.00    -0.646 OA
BRANCH  27  29
HETATM   29  O2  UNL     1      26.737  -1.687  53.411  1.00  0.00    -0.773 OA
HETATM   30  H12 UNL     1      27.615  -1.255  53.135  1.00  0.00     0.167 HD
ENDBRANCH  27  29
ENDBRANCH  11  27
TORSDOF 6
ENDMDL
MODEL 7
REMARK VINA RESULT:      -7.7      5.166      7.150
REMARK  6 active torsions:
REMARK  status: ('A' for Active; 'I' for Inactive)
REMARK    1  A    between atoms: C2_2  and  C3_4 
REMARK    2  A    between atoms: C4_6  and  C5_7 
REMARK    3  A    between atoms: C6_8  and  N1_9 
REMARK    4  A    between atoms: N1_9  and  C7_10 
REMARK    5  A    between atoms: C14_20  and  C15_21 
REMARK    6  A    between atoms: C15_21  and  O2_23 
ROOT
HETATM    1  C7  UNL     1      24.769   5.096  50.398  1.00  0.00     0.159 A 
HETATM    2  N2  UNL     1      23.902   6.035  49.979  1.00  0.00    -0.222 NA
HETATM    3  C8  UNL     1      22.562   5.807  50.126  1.00  0.00     0.238 A 
HETATM    4  N3  UNL     1      22.118   4.666  50.677  1.00  0.00    -0.216 NA
HETATM    5  C9  UNL     1      22.970   3.699  51.109  1.00  0.00     0.197 A 
HETATM    6  C10 UNL     1      24.344   3.915  50.968  1.00  0.00     0.128 A 
HETATM    7  N4  UNL     1      25.441   3.085  51.336  1.00  0.00    -0.379 N 
HETATM    8  C11 UNL     1      25.375   2.163  52.450  1.00  0.00     0.157 C 
HETATM    9  C12 UNL     1      24.172   1.327  52.492  1.00  0.00    -0.032 A 
HETATM   10  C13 UNL     1      24.414   0.574  53.582  1.00  0.00     0.025 A 
HETATM   11  C14 UNL     1      23.457  -0.434  54.022  1.00  0.00     0.034 A 
HETATM   12  C16 UNL     1      22.387  -0.505  53.250  1.00  0.00    -0.006 A 
HETATM   13  C17 UNL     1      21.994   0.227  52.057  1.00  0.00     0.065 A 
HETATM   14  C18 UNL     1      22.968   1.259  51.627  1.00  0.00     0.164 A 
HETATM   15  O3  UNL     1      22.382   2.572  51.657  1.00  0.00    -0.322 OA
HETATM   16  H8  UNL     1      26.247   3.263  50.694  1.00  0.00     0.160 HD
ENDROOT
BRANCH   1  17
HETATM   17  N1  UNL     1      26.135   5.413  50.208  1.00  0.00    -0.349 N 
HETATM   18  H6  UNL     1      26.980   5.770  50.685  1.00  0.00     0.167 HD
BRANCH  17  19
HETATM   19  C6  UNL     1      26.729   5.233  48.932  1.00  0.00     0.090 C 
HETATM   20  C5  UNL     1      27.405   6.145  48.265  1.00  0.00     0.020 C 
BRANCH  20  21
HETATM   21  C4  UNL     1      27.662   7.503  48.723  1.00  0.00     0.045 C 
HETATM   22  C3  UNL     1      28.883   8.067  48.694  1.00  0.00     0.134 C 
HETATM   23  F1  UNL     1      29.877   7.282  48.212  1.00  0.00    -0.205 F 
BRANCH  22  24
HETATM   24  C2  UNL     1      29.099   9.421  49.157  1.00  0.00     0.050 C 
HETATM   25  C1  UNL     1      28.083  10.264  49.189  1.00  0.00     0.060 C 
HETATM   26 CL1  UNL     1      30.696   9.905  49.660  1.00  0.00    -0.086 Cl
ENDBRANCH  22  24
ENDBRANCH  20  21
ENDBRANCH  17  19
ENDBRANCH   1  17
BRANCH  11  27
HETATM   27  C15 UNL     1      23.621  -1.293  55.183  1.00  0.00     0.175 C 
HETATM   28  O1  UNL     1      22.621  -1.887  55.657  1.00  0.00    -0.646 OA
BRANCH  27  29
HETATM   29  O2  UNL     1      24.881  -1.428  55.728  1.00  0.00    -0.773 OA
HETATM   30  H12 UNL     1      25.242  -2.346  55.977  1.00  0.00     0.167 HD
ENDBRANCH  27  29
ENDBRANCH  11  27
TORSDOF 6
ENDMDL
MODEL 8
REMARK VINA RESULT:      -7.7      3.828      4.875
REMARK  6 active torsions:
REMARK  status: ('A' for Active; 'I' for Inactive)
REMARK    1  A    between atoms: C2_2  and  C3_4 
REMARK    2  A    between atoms: C4_6  and  C5_7 
REMARK    3  A    between atoms: C6_8  and  N1_9 
REMARK    4  A    between atoms: N1_9  and  C7_10 
REMARK    5  A    between atoms: C14_20  and  C15_21 
REMARK    6  A    between atoms: C15_21  and  O2_23 
ROOT
HETATM    1  C7  UNL     1      22.536   4.375  50.133  1.00  0.00     0.159 A 
HETATM    2  N2  UNL     1      21.304   4.662  50.590  1.00  0.00    -0.222 NA
HETATM    3  C8  UNL     1      20.848   4.013  51.703  1.00  0.00     0.238 A 
HETATM    4  N3  UNL     1      21.613   3.105  52.328  1.00  0.00    -0.216 NA
HETATM    5  C9  UNL     1      22.861   2.793  51.890  1.00  0.00     0.197 A 
HETATM    6  C10 UNL     1      23.346   3.449  50.754  1.00  0.00     0.128 A 
HETATM    7  N4  UNL     1      24.602   3.322  50.093  1.00  0.00    -0.379 N 
HETATM    8  C11 UNL     1      25.814   2.962  50.797  1.00  0.00     0.157 C 
HETATM    9  C12 UNL     1      25.689   1.817  51.702  1.00  0.00    -0.032 A 
HETATM   10  C13 UNL     1      26.950   1.708  52.164  1.00  0.00     0.025 A 
HETATM   11  C14 UNL     1      27.307   0.670  53.122  1.00  0.00     0.034 A 
HETATM   12  C16 UNL     1      26.289  -0.104  53.453  1.00  0.00    -0.006 A 
HETATM   13  C17 UNL     1      24.895  -0.111  53.042  1.00  0.00     0.065 A 
HETATM   14  C18 UNL     1      24.539   0.957  52.079  1.00  0.00     0.164 A 
HETATM   15  O3  UNL     1      23.544   1.841  52.625  1.00  0.00    -0.322 OA
HETATM   16  H8  UNL     1      24.485   3.529  49.075  1.00  0.00     0.160 HD
ENDROOT
BRANCH   1  17
HETATM   17  N1  UNL     1      22.930   5.093  48.978  1.00  0.00    -0.349 N 
HETATM   18  H6  UNL     1      23.272   4.986  48.008  1.00  0.00     0.167 HD
BRANCH  17  19
HETATM   19  C6  UNL     1      22.905   6.512  48.989  1.00  0.00     0.090 C 
HETATM   20  C5  UNL     1      23.900   7.298  48.635  1.00  0.00     0.020 C 
BRANCH  20  21
HETATM   21  C4  UNL     1      25.203   6.847  48.169  1.00  0.00     0.045 C 
HETATM   22  C3  UNL     1      26.225   6.577  49.001  1.00  0.00     0.134 C 
HETATM   23  F1  UNL     1      25.968   6.758  50.320  1.00  0.00    -0.205 F 
BRANCH  22  24
HETATM   24  C2  UNL     1      27.507   6.129  48.500  1.00  0.00     0.050 C 
HETATM   25  C1  UNL     1      27.816   4.847  48.564  1.00  0.00     0.060 C 
HETATM   26 CL1  UNL     1      28.613   7.296  47.826  1.00  0.00    -0.086 Cl
ENDBRANCH  22  24
ENDBRANCH  20  21
ENDBRANCH  17  19
ENDBRANCH   1  17
BRANCH  11  27
HETATM   27  C15 UNL     1      28.634   0.470  53.682  1.00  0.00     0.175 C 
HETATM   28  O1  UNL     1      28.810  -0.423  54.548  1.00  0.00    -0.646 OA
BRANCH  27  29
HETATM   29  O2  UNL     1      29.663   1.275  53.239  1.00  0.00    -0.773 OA
HETATM   30  H12 UNL     1      29.466   2.156  52.771  1.00  0.00     0.167 HD
ENDBRANCH  27  29
ENDBRANCH  11  27
TORSDOF 6
ENDMDL
MODEL 9
REMARK VINA RESULT:      -7.7      3.900      6.199
REMARK  6 active torsions:
REMARK  status: ('A' for Active; 'I' for Inactive)
REMARK    1  A    between atoms: C2_2  and  C3_4 
REMARK    2  A    between atoms: C4_6  and  C5_7 
REMARK    3  A    between atoms: C6_8  and  N1_9 
REMARK    4  A    between atoms: N1_9  and  C7_10 
REMARK    5  A    between atoms: C14_20  and  C15_21 
REMARK    6  A    between atoms: C15_21  and  O2_23 
ROOT
HETATM    1  C7  UNL     1      22.854   1.258  51.726  1.00  0.00     0.159 A 
HETATM    2  N2  UNL     1      21.768   0.665  51.198  1.00  0.00    -0.222 NA
HETATM    3  C8  UNL     1      21.316   1.085  49.979  1.00  0.00     0.238 A 
HETATM    4  N3  UNL     1      21.941   2.072  49.320  1.00  0.00    -0.216 NA
HETATM    5  C9  UNL     1      23.040   2.691  49.827  1.00  0.00     0.197 A 
HETATM    6  C10 UNL     1      23.518   2.274  51.073  1.00  0.00     0.128 A 
HETATM    7  N4  UNL     1      24.637   2.737  51.824  1.00  0.00    -0.379 N 
HETATM    8  C11 UNL     1      25.820   3.282  51.193  1.00  0.00     0.157 C 
HETATM    9  C12 UNL     1      25.563   4.277  50.148  1.00  0.00    -0.032 A 
HETATM   10  C13 UNL     1      26.818   4.614  49.792  1.00  0.00     0.025 A 
HETATM   11  C14 UNL     1      27.059   5.605  48.751  1.00  0.00     0.034 A 
HETATM   12  C16 UNL     1      25.947   6.101  48.239  1.00  0.00    -0.006 A 
HETATM   13  C17 UNL     1      24.543   5.843  48.520  1.00  0.00     0.065 A 
HETATM   14  C18 UNL     1      24.310   4.822  49.569  1.00  0.00     0.164 A 
HETATM   15  O3  UNL     1      23.589   3.693  49.047  1.00  0.00    -0.322 OA
HETATM   16  H8  UNL     1      24.451   2.611  52.845  1.00  0.00     0.160 HD
ENDROOT
BRANCH   1  17
HETATM   17  N1  UNL     1      23.254   0.762  52.990  1.00  0.00    -0.349 N 
HETATM   18  H6  UNL     1      23.354   1.012  53.988  1.00  0.00     0.167 HD
BRANCH  17  19
HETATM   19  C6  UNL     1      23.726  -0.572  53.105  1.00  0.00     0.090 C 
HETATM   20  C5  UNL     1      24.973  -0.926  53.333  1.00  0.00     0.020 C 
BRANCH  20  21
HETATM   21  C4  UNL     1      26.089  -0.008  53.507  1.00  0.00     0.045 C 
HETATM   22  C3  UNL     1      27.371  -0.367  53.308  1.00  0.00     0.134 C 
HETATM   23  F1  UNL     1      27.565  -1.656  52.938  1.00  0.00    -0.205 F 
BRANCH  22  24
HETATM   24  C2  UNL     1      28.454   0.575  53.491  1.00  0.00     0.050 C 
HETATM   25  C1  UNL     1      29.694   0.129  53.574  1.00  0.00     0.060 C 
HETATM   26 CL1  UNL     1      28.094   2.278  53.599  1.00  0.00    -0.086 Cl
ENDBRANCH  22  24
ENDBRANCH  20  21
ENDBRANCH  17  19
ENDBRANCH   1  17
BRANCH  11  27
HETATM   27  C15 UNL     1      28.370   6.035  48.292  1.00  0.00     0.175 C 
HETATM   28  O1  UNL     1      28.455   6.817  47.314  1.00  0.00    -0.646 OA
BRANCH  27  29
HETATM   29  O2  UNL     1      29.485   5.563  48.954  1.00  0.00    -0.773 OA
HETATM   30  H12 UNL     1      29.440   4.703  49.494  1.00  0.00     0.167 HD
ENDBRANCH  27  29
ENDBRANCH  11  27
TORSDOF 6
ENDMDL
