MODEL 1
REMARK VINA RESULT:      -8.0      0.000      0.000
REMARK  7 active torsions:
REMARK  status: ('A' for Active; 'I' for Inactive)
REMARK    1  A    between atoms: O1_2  and  C2_3 
REMARK    2  A    between atoms: C7_8  and  N1_9 
REMARK    3  A    between atoms: N1_9  and  C8_10 
REMARK    4  A    between atoms: C8_10  and  C9_11 
REMARK    5  A    between atoms: C8_10  and  C10_13 
REMARK    6  A    between atoms: C10_13  and  C11_14 
REMARK    7  A    between atoms: C11_14  and  C12_16 
ROOT
HETATM    1  C11 UNL     1      22.228   0.763  51.675  1.00  0.00     0.155 C 
HETATM    2  O3  UNL     1      21.369   0.232  50.894  1.00  0.00    -0.293 OA
ENDROOT
BRANCH   1   3
HETATM    3  C10 UNL     1      22.697   0.822  53.063  1.00  0.00     0.115 C 
BRANCH   3   4
HETATM    4  C8  UNL     1      23.856  -0.067  53.394  1.00  0.00     0.150 C 
BRANCH   4   5
HETATM    5  N1  UNL     1      25.143   0.444  53.489  1.00  0.00    -0.376 N 
HETATM    6  H8  UNL     1      25.468  -0.414  52.945  1.00  0.00     0.160 HD
BRANCH   5   7
HETATM    7  C7  UNL     1      26.462   0.943  53.570  1.00  0.00     0.062 A 
HETATM    8  C2  UNL     1      27.208  -0.258  53.559  1.00  0.00     0.094 A 
HETATM    9  C3  UNL     1      28.613  -0.169  53.641  1.00  0.00     0.039 A 
HETATM   10  C4  UNL     1      29.164   1.066  53.724  1.00  0.00     0.003 A 
HETATM   11  C5  UNL     1      28.446   2.229  53.735  1.00  0.00     0.002 A 
HETATM   12  C6  UNL     1      27.086   2.166  53.658  1.00  0.00     0.032 A 
BRANCH   8  13
HETATM   13  O1  UNL     1      26.816  -1.599  53.482  1.00  0.00    -0.354 OA
HETATM   14  C1  UNL     1      27.011  -2.458  52.404  1.00  0.00     0.210 C 
ENDBRANCH   8  13
ENDBRANCH   5   7
ENDBRANCH   4   5
BRANCH   4  15
HETATM   15  C9  UNL     1      23.524  -0.921  54.602  1.00  0.00     0.256 C 
HETATM   16  O2  UNL     1      23.026  -1.378  55.616  1.00  0.00    -0.305 OA
ENDBRANCH   4  15
ENDBRANCH   3   4
ENDBRANCH   1   3
BRANCH   1  17
HETATM   17  C12 UNL     1      23.176   1.678  51.134  1.00  0.00    -0.020 A 
HETATM   18  C13 UNL     1      24.200   2.458  50.715  1.00  0.00     0.052 A 
HETATM   19  C14 UNL     1      24.013   3.554  49.736  1.00  0.00     0.008 C 
HETATM   20  C20 UNL     1      22.730   3.086  51.456  1.00  0.00     0.037 A 
HETATM   21  C15 UNL     1      24.237   4.566  48.981  1.00  0.00     0.005 C 
HETATM   22  C16 UNL     1      25.657   5.112  49.108  1.00  0.00     0.076 C 
HETATM   23  N3  UNL     1      23.193   5.118  48.215  1.00  0.00    -0.387 N 
HETATM   24  C17 UNL     1      25.386   6.256  50.176  1.00  0.00     0.123 C 
HETATM   25  N2  UNL     1      23.945   6.312  50.313  1.00  0.00    -0.410 N 
HETATM   26  C18 UNL     1      23.398   5.861  51.552  1.00  0.00     0.122 C 
HETATM   27  C21 UNL     1      23.238   7.187  49.477  1.00  0.00     0.136 C 
HETATM   28  C19 UNL     1      23.198   4.373  51.452  1.00  0.00     0.019 C 
HETATM   29  C22 UNL     1      23.225   6.592  48.055  1.00  0.00     0.141 C 
HETATM   30  C23 UNL     1      22.333   4.019  47.776  1.00  0.00     0.149 C 
ENDBRANCH   1  17
TORSDOF 7
ENDMDL
MODEL 2
REMARK VINA RESULT:      -7.9      0.869      1.770
REMARK  7 active torsions:
REMARK  status: ('A' for Active; 'I' for Inactive)
REMARK    1  A    between atoms: O1_2  and  C2_3 
REMARK    2  A    between atoms: C7_8  and  N1_9 
REMARK    3  A    between atoms: N1_9  and  C8_10 
REMARK    4  A    between atoms: C8_10  and  C9_11 
REMARK    5  A    between atoms: C8_10  and  C10_13 
REMARK    6  A    between atoms: C10_13  and  C11_14 
REMARK    7  A    between atoms: C11_14  and  C12_16 
ROOT
HETATM    1  C11 UNL     1      22.750   1.022  51.612  1.00  0.00     0.155 C 
HETATM    2  O3  UNL     1      21.751   0.624  50.925  1.00  0.00    -0.293 OA
ENDROOT
BRANCH   1   3
HETATM    3  C10 UNL     1      23.446   0.875  52.894  1.00  0.00     0.115 C 
BRANCH   3   4
HETATM    4  C8  UNL     1      23.892  -0.513  53.235  1.00  0.00     0.150 C 
BRANCH   4   5
HETATM    5  N1  UNL     1      25.237  -0.852  53.230  1.00  0.00    -0.376 N 
HETATM    6  H8  UNL     1      24.932  -1.852  53.020  1.00  0.00     0.160 HD
BRANCH   5   7
HETATM    7  C7  UNL     1      26.601  -1.223  53.218  1.00  0.00     0.062 A 
HETATM    8  C2  UNL     1      27.190  -0.115  53.871  1.00  0.00     0.094 A 
HETATM    9  C3  UNL     1      28.590  -0.113  54.042  1.00  0.00     0.039 A 
HETATM   10  C4  UNL     1      29.287  -1.175  53.571  1.00  0.00     0.003 A 
HETATM   11  C5  UNL     1      28.721  -2.247  52.941  1.00  0.00     0.002 A 
HETATM   12  C6  UNL     1      27.369  -2.270  52.763  1.00  0.00     0.032 A 
BRANCH   8  13
HETATM   13  O1  UNL     1      26.638   1.050  54.411  1.00  0.00    -0.354 OA
HETATM   14  C1  UNL     1      26.668   2.322  53.844  1.00  0.00     0.210 C 
ENDBRANCH   8  13
ENDBRANCH   5   7
ENDBRANCH   4   5
BRANCH   4  15
HETATM   15  C9  UNL     1      23.225  -0.970  54.517  1.00  0.00     0.256 C 
HETATM   16  O2  UNL     1      23.001  -1.379  55.643  1.00  0.00    -0.305 OA
ENDBRANCH   4  15
ENDBRANCH   3   4
ENDBRANCH   1   3
BRANCH   1  17
HETATM   17  C12 UNL     1      23.633   1.985  51.046  1.00  0.00    -0.020 A 
HETATM   18  C13 UNL     1      24.604   2.813  50.594  1.00  0.00     0.052 A 
HETATM   19  C14 UNL     1      24.324   3.927  49.658  1.00  0.00     0.008 C 
HETATM   20  C20 UNL     1      23.156   3.367  51.432  1.00  0.00     0.037 A 
HETATM   21  C15 UNL     1      24.469   4.967  48.920  1.00  0.00     0.005 C 
HETATM   22  C16 UNL     1      25.874   5.561  48.984  1.00  0.00     0.076 C 
HETATM   23  N3  UNL     1      23.365   5.499  48.229  1.00  0.00    -0.387 N 
HETATM   24  C17 UNL     1      25.622   6.665  50.097  1.00  0.00     0.123 C 
HETATM   25  N2  UNL     1      24.191   6.665  50.315  1.00  0.00    -0.410 N 
HETATM   26  C18 UNL     1      23.730   6.161  51.569  1.00  0.00     0.122 C 
HETATM   27  C21 UNL     1      23.407   7.534  49.544  1.00  0.00     0.136 C 
HETATM   28  C19 UNL     1      23.577   4.670  51.438  1.00  0.00     0.019 C 
HETATM   29  C22 UNL     1      23.336   6.977  48.108  1.00  0.00     0.141 C 
HETATM   30  C23 UNL     1      22.521   4.381  47.806  1.00  0.00     0.149 C 
ENDBRANCH   1  17
TORSDOF 7
ENDMDL
MODEL 3
REMARK VINA RESULT:      -7.7      2.555      4.015
REMARK  7 active torsions:
REMARK  status: ('A' for Active; 'I' for Inactive)
REMARK    1  A    between atoms: O1_2  and  C2_3 
REMARK    2  A    between atoms: C7_8  and  N1_9 
REMARK    3  A    between atoms: N1_9  and  C8_10 
REMARK    4  A    between atoms: C8_10  and  C9_11 
REMARK    5  A    between atoms: C8_10  and  C10_13 
REMARK    6  A    between atoms: C10_13  and  C11_14 
REMARK    7  A    between atoms: C11_14  and  C12_16 
ROOT
HETATM    1  C11 UNL     1      25.312   2.385  51.565  1.00  0.00     0.155 C 
HETATM    2  O3  UNL     1      26.408   2.841  51.095  1.00  0.00    -0.293 OA
ENDROOT
BRANCH   1   3
HETATM    3  C10 UNL     1      24.685   1.780  52.745  1.00  0.00     0.115 C 
BRANCH   3   4
HETATM    4  C8  UNL     1      24.753   0.286  52.820  1.00  0.00     0.150 C 
BRANCH   4   5
HETATM    5  N1  UNL     1      25.969  -0.367  52.961  1.00  0.00    -0.376 N 
HETATM    6  H8  UNL     1      26.399   0.418  52.380  1.00  0.00     0.160 HD
BRANCH   5   7
HETATM    7  C7  UNL     1      27.220  -1.011  53.091  1.00  0.00     0.062 A 
HETATM    8  C2  UNL     1      28.002   0.026  53.651  1.00  0.00     0.094 A 
HETATM    9  C3  UNL     1      29.360  -0.239  53.922  1.00  0.00     0.039 A 
HETATM   10  C4  UNL     1      29.834  -1.474  53.630  1.00  0.00     0.003 A 
HETATM   11  C5  UNL     1      29.081  -2.478  53.089  1.00  0.00     0.002 A 
HETATM   12  C6  UNL     1      27.766  -2.244  52.817  1.00  0.00     0.032 A 
BRANCH   8  13
HETATM   13  O1  UNL     1      27.688   1.340  54.010  1.00  0.00    -0.354 OA
HETATM   14  C1  UNL     1      28.465   2.472  53.775  1.00  0.00     0.210 C 
ENDBRANCH   8  13
ENDBRANCH   5   7
ENDBRANCH   4   5
BRANCH   4  15
HETATM   15  C9  UNL     1      23.746  -0.227  53.831  1.00  0.00     0.256 C 
HETATM   16  O2  UNL     1      22.792  -0.756  54.373  1.00  0.00    -0.305 OA
ENDBRANCH   4  15
ENDBRANCH   3   4
ENDBRANCH   1   3
BRANCH   1  17
HETATM   17  C12 UNL     1      24.150   2.408  50.744  1.00  0.00    -0.020 A 
HETATM   18  C13 UNL     1      23.153   2.489  49.831  1.00  0.00     0.052 A 
HETATM   19  C14 UNL     1      21.764   2.075  50.135  1.00  0.00     0.008 C 
HETATM   20  C20 UNL     1      23.098   3.263  51.413  1.00  0.00     0.037 A 
HETATM   21  C15 UNL     1      20.502   1.869  50.033  1.00  0.00     0.005 C 
HETATM   22  C16 UNL     1      19.913   2.378  48.719  1.00  0.00     0.076 C 
HETATM   23  N3  UNL     1      19.789   1.313  51.110  1.00  0.00    -0.387 N 
HETATM   24  C17 UNL     1      19.410   3.802  49.212  1.00  0.00     0.123 C 
HETATM   25  N2  UNL     1      19.587   3.790  50.648  1.00  0.00    -0.410 N 
HETATM   26  C18 UNL     1      20.607   4.638  51.179  1.00  0.00     0.122 C 
HETATM   27  C21 UNL     1      18.518   3.350  51.440  1.00  0.00     0.136 C 
HETATM   28  C19 UNL     1      21.903   3.874  51.146  1.00  0.00     0.019 C 
HETATM   29  C22 UNL     1      18.407   1.819  51.295  1.00  0.00     0.141 C 
HETATM   30  C23 UNL     1      20.664   0.345  51.773  1.00  0.00     0.149 C 
ENDBRANCH   1  17
TORSDOF 7
ENDMDL
MODEL 4
REMARK VINA RESULT:      -7.7      3.411      5.423
REMARK  7 active torsions:
REMARK  status: ('A' for Active; 'I' for Inactive)
REMARK    1  A    between atoms: O1_2  and  C2_3 
REMARK    2  A    between atoms: C7_8  and  N1_9 
REMARK    3  A    between atoms: N1_9  and  C8_10 
REMARK    4  A    between atoms: C8_10  and  C9_11 
REMARK    5  A    between atoms: C8_10  and  C10_13 
REMARK    6  A    between atoms: C10_13  and  C11_14 
REMARK    7  A    between atoms: C11_14  and  C12_16 
ROOT
HETATM    1  C11 UNL     1      22.944  -0.041  53.217  1.00  0.00     0.155 C 
HETATM    2  O3  UNL     1      23.128  -1.194  53.734  1.00  0.00    -0.293 OA
ENDROOT
BRANCH   1   3
HETATM    3  C10 UNL     1      23.402   1.352  53.223  1.00  0.00     0.115 C 
BRANCH   3   4
HETATM    4  C8  UNL     1      24.818   1.572  52.788  1.00  0.00     0.150 C 
BRANCH   4   5
HETATM    5  N1  UNL     1      25.745   0.540  52.828  1.00  0.00    -0.376 N 
HETATM    6  H8  UNL     1      26.360   1.186  53.415  1.00  0.00     0.160 HD
BRANCH   5   7
HETATM    7  C7  UNL     1      26.705  -0.495  52.887  1.00  0.00     0.062 A 
HETATM    8  C2  UNL     1      27.753   0.146  53.587  1.00  0.00     0.094 A 
HETATM    9  C3  UNL     1      28.931  -0.587  53.837  1.00  0.00     0.039 A 
HETATM   10  C4  UNL     1      28.987  -1.865  53.391  1.00  0.00     0.003 A 
HETATM   11  C5  UNL     1      27.976  -2.488  52.714  1.00  0.00     0.002 A 
HETATM   12  C6  UNL     1      26.828  -1.797  52.461  1.00  0.00     0.032 A 
BRANCH   8  13
HETATM   13  O1  UNL     1      27.871   1.437  54.112  1.00  0.00    -0.354 OA
HETATM   14  C1  UNL     1      28.627   2.481  53.585  1.00  0.00     0.210 C 
ENDBRANCH   8  13
ENDBRANCH   5   7
ENDBRANCH   4   5
BRANCH   4  15
HETATM   15  C9  UNL     1      24.843   2.266  51.441  1.00  0.00     0.256 C 
HETATM   16  O2  UNL     1      24.543   2.863  50.421  1.00  0.00    -0.305 OA
ENDBRANCH   4  15
ENDBRANCH   3   4
ENDBRANCH   1   3
BRANCH   1  17
HETATM   17  C12 UNL     1      21.935   0.113  52.224  1.00  0.00    -0.020 A 
HETATM   18  C13 UNL     1      21.112   0.270  51.161  1.00  0.00     0.052 A 
HETATM   19  C14 UNL     1      19.636   0.237  51.290  1.00  0.00     0.008 C 
HETATM   20  C20 UNL     1      21.053   1.280  52.604  1.00  0.00     0.037 A 
HETATM   21  C15 UNL     1      18.385   0.309  51.014  1.00  0.00     0.005 C 
HETATM   22  C16 UNL     1      18.109   0.721  49.570  1.00  0.00     0.076 C 
HETATM   23  N3  UNL     1      17.429   0.108  52.025  1.00  0.00    -0.387 N 
HETATM   24  C17 UNL     1      17.917   2.282  49.794  1.00  0.00     0.123 C 
HETATM   25  N2  UNL     1      17.905   2.460  51.230  1.00  0.00    -0.410 N 
HETATM   26  C18 UNL     1      19.029   3.129  51.805  1.00  0.00     0.122 C 
HETATM   27  C21 UNL     1      16.671   2.407  51.891  1.00  0.00     0.136 C 
HETATM   28  C19 UNL     1      20.089   2.096  52.076  1.00  0.00     0.019 C 
HETATM   29  C22 UNL     1      16.203   0.938  51.923  1.00  0.00     0.141 C 
HETATM   30  C23 UNL     1      17.947  -0.914  52.935  1.00  0.00     0.149 C 
ENDBRANCH   1  17
TORSDOF 7
ENDMDL
MODEL 5
REMARK VINA RESULT:      -7.6      2.603      5.471
REMARK  7 active torsions:
REMARK  status: ('A' for Active; 'I' for Inactive)
REMARK    1  A    between atoms: O1_2  and  C2_3 
REMARK    2  A    between atoms: C7_8  and  N1_9 
REMARK    3  A    between atoms: N1_9  and  C8_10 
REMARK    4  A    between atoms: C8_10  and  C9_11 
REMARK    5  A    between atoms: C8_10  and  C10_13 
REMARK    6  A    between atoms: C10_13  and  C11_14 
REMARK    7  A    between atoms: C11_14  and  C12_16 
ROOT
HETATM    1  C11 UNL     1      24.328   0.163  53.412  1.00  0.00     0.155 C 
HETATM    2  O3  UNL     1      25.124  -0.199  54.343  1.00  0.00    -0.293 OA
ENDROOT
BRANCH   1   3
HETATM    3  C10 UNL     1      22.997  -0.052  52.836  1.00  0.00     0.115 C 
BRANCH   3   4
HETATM    4  C8  UNL     1      21.887  -0.247  53.822  1.00  0.00     0.150 C 
BRANCH   4   5
HETATM    5  N1  UNL     1      20.570  -0.359  53.402  1.00  0.00    -0.376 N 
HETATM    6  H8  UNL     1      20.540  -1.294  53.915  1.00  0.00     0.160 HD
BRANCH   5   7
HETATM    7  C7  UNL     1      19.225  -0.496  52.989  1.00  0.00     0.062 A 
HETATM    8  C2  UNL     1      19.111   0.577  52.075  1.00  0.00     0.094 A 
HETATM    9  C3  UNL     1      17.867   0.780  51.442  1.00  0.00     0.039 A 
HETATM   10  C4  UNL     1      16.855  -0.067  51.748  1.00  0.00     0.003 A 
HETATM   11  C5  UNL     1      16.963  -1.104  52.631  1.00  0.00     0.002 A 
HETATM   12  C6  UNL     1      18.156  -1.320  53.256  1.00  0.00     0.032 A 
BRANCH   8  13
HETATM   13  O1  UNL     1      20.032   1.537  51.645  1.00  0.00    -0.354 OA
HETATM   14  C1  UNL     1      20.123   2.854  52.087  1.00  0.00     0.210 C 
ENDBRANCH   8  13
ENDBRANCH   5   7
ENDBRANCH   4   5
BRANCH   4  15
HETATM   15  C9  UNL     1      22.242  -1.364  54.785  1.00  0.00     0.256 C 
HETATM   16  O2  UNL     1      22.655  -2.012  55.731  1.00  0.00    -0.305 OA
ENDBRANCH   4  15
ENDBRANCH   3   4
ENDBRANCH   1   3
BRANCH   1  17
HETATM   17  C12 UNL     1      24.756   1.162  52.493  1.00  0.00    -0.020 A 
HETATM   18  C13 UNL     1      25.326   2.093  51.691  1.00  0.00     0.052 A 
HETATM   19  C14 UNL     1      24.568   2.796  50.630  1.00  0.00     0.008 C 
HETATM   20  C20 UNL     1      23.902   2.395  52.684  1.00  0.00     0.037 A 
HETATM   21  C15 UNL     1      24.259   3.607  49.685  1.00  0.00     0.005 C 
HETATM   22  C16 UNL     1      25.381   4.581  49.335  1.00  0.00     0.076 C 
HETATM   23  N3  UNL     1      22.960   3.597  49.147  1.00  0.00    -0.387 N 
HETATM   24  C17 UNL     1      24.926   5.811  50.230  1.00  0.00     0.123 C 
HETATM   25  N2  UNL     1      23.620   5.448  50.737  1.00  0.00    -0.410 N 
HETATM   26  C18 UNL     1      23.525   5.172  52.135  1.00  0.00     0.122 C 
HETATM   27  C21 UNL     1      22.495   5.822  49.989  1.00  0.00     0.136 C 
HETATM   28  C19 UNL     1      23.861   3.720  52.341  1.00  0.00     0.019 C 
HETATM   29  C22 UNL     1      22.424   4.919  48.741  1.00  0.00     0.141 C 
HETATM   30  C23 UNL     1      22.487   2.213  49.143  1.00  0.00     0.149 C 
ENDBRANCH   1  17
TORSDOF 7
ENDMDL
MODEL 6
REMARK VINA RESULT:      -7.6      1.293      2.685
REMARK  7 active torsions:
REMARK  status: ('A' for Active; 'I' for Inactive)
REMARK    1  A    between atoms: O1_2  and  C2_3 
REMARK    2  A    between atoms: C7_8  and  N1_9 
REMARK    3  A    between atoms: N1_9  and  C8_10 
REMARK    4  A    between atoms: C8_10  and  C9_11 
REMARK    5  A    between atoms: C8_10  and  C10_13 
REMARK    6  A    between atoms: C10_13  and  C11_14 
REMARK    7  A    between atoms: C11_14  and  C12_16 
ROOT
HETATM    1  C11 UNL     1      21.946   0.296  52.544  1.00  0.00     0.155 C 
HETATM    2  O3  UNL     1      20.936  -0.469  52.699  1.00  0.00    -0.293 OA
ENDROOT
BRANCH   1   3
HETATM    3  C10 UNL     1      23.366   0.470  52.866  1.00  0.00     0.115 C 
BRANCH   3   4
HETATM    4  C8  UNL     1      24.062  -0.740  53.408  1.00  0.00     0.150 C 
BRANCH   4   5
HETATM    5  N1  UNL     1      25.447  -0.816  53.433  1.00  0.00    -0.376 N 
HETATM    6  H8  UNL     1      25.363  -1.615  52.730  1.00  0.00     0.160 HD
BRANCH   5   7
HETATM    7  C7  UNL     1      26.857  -0.914  53.437  1.00  0.00     0.062 A 
HETATM    8  C2  UNL     1      27.211   0.310  54.051  1.00  0.00     0.094 A 
HETATM    9  C3  UNL     1      28.582   0.593  54.226  1.00  0.00     0.039 A 
HETATM   10  C4  UNL     1      29.477  -0.328  53.795  1.00  0.00     0.003 A 
HETATM   11  C5  UNL     1      29.138  -1.511  53.202  1.00  0.00     0.002 A 
HETATM   12  C6  UNL     1      27.819  -1.805  53.022  1.00  0.00     0.032 A 
BRANCH   8  13
HETATM   13  O1  UNL     1      26.436   1.363  54.547  1.00  0.00    -0.354 OA
HETATM   14  C1  UNL     1      26.041   2.502  53.850  1.00  0.00     0.210 C 
ENDBRANCH   8  13
ENDBRANCH   5   7
ENDBRANCH   4   5
BRANCH   4  15
HETATM   15  C9  UNL     1      23.478  -1.110  54.758  1.00  0.00     0.256 C 
HETATM   16  O2  UNL     1      22.725  -1.354  55.685  1.00  0.00    -0.305 OA
ENDBRANCH   4  15
ENDBRANCH   3   4
ENDBRANCH   1   3
BRANCH   1  17
HETATM   17  C12 UNL     1      21.795   1.487  51.779  1.00  0.00    -0.020 A 
HETATM   18  C13 UNL     1      21.517   2.533  50.966  1.00  0.00     0.052 A 
HETATM   19  C14 UNL     1      22.227   3.829  51.070  1.00  0.00     0.008 C 
HETATM   20  C20 UNL     1      23.121   1.823  51.136  1.00  0.00     0.037 A 
HETATM   21  C15 UNL     1      22.625   5.025  50.832  1.00  0.00     0.005 C 
HETATM   22  C16 UNL     1      21.997   5.631  49.580  1.00  0.00     0.076 C 
HETATM   23  N3  UNL     1      23.617   5.611  51.639  1.00  0.00    -0.387 N 
HETATM   24  C17 UNL     1      23.145   5.286  48.538  1.00  0.00     0.123 C 
HETATM   25  N2  UNL     1      24.239   4.773  49.336  1.00  0.00    -0.410 N 
HETATM   26  C18 UNL     1      24.534   3.382  49.206  1.00  0.00     0.122 C 
HETATM   27  C21 UNL     1      25.197   5.683  49.802  1.00  0.00     0.136 C 
HETATM   28  C19 UNL     1      23.655   2.633  50.170  1.00  0.00     0.019 C 
HETATM   29  C22 UNL     1      24.564   6.512  50.938  1.00  0.00     0.141 C 
HETATM   30  C23 UNL     1      23.417   5.137  53.009  1.00  0.00     0.149 C 
ENDBRANCH   1  17
TORSDOF 7
ENDMDL
MODEL 7
REMARK VINA RESULT:      -7.6      4.532      8.127
REMARK  7 active torsions:
REMARK  status: ('A' for Active; 'I' for Inactive)
REMARK    1  A    between atoms: O1_2  and  C2_3 
REMARK    2  A    between atoms: C7_8  and  N1_9 
REMARK    3  A    between atoms: N1_9  and  C8_10 
REMARK    4  A    between atoms: C8_10  and  C9_11 
REMARK    5  A    between atoms: C8_10  and  C10_13 
REMARK    6  A    between atoms: C10_13  and  C11_14 
REMARK    7  A    between atoms: C11_14  and  C12_16 
ROOT
HETATM    1  C11 UNL     1      25.571   4.727  50.081  1.00  0.00     0.155 C 
HETATM    2  O3  UNL     1      24.707   5.333  50.798  1.00  0.00    -0.293 OA
ENDROOT
BRANCH   1   3
HETATM    3  C10 UNL     1      26.472   4.866  48.932  1.00  0.00     0.115 C 
BRANCH   3   4
HETATM    4  C8  UNL     1      27.239   6.150  48.863  1.00  0.00     0.150 C 
BRANCH   4   5
HETATM    5  N1  UNL     1      28.597   6.156  48.579  1.00  0.00    -0.376 N 
HETATM    6  H8  UNL     1      28.596   5.113  48.801  1.00  0.00     0.160 HD
BRANCH   5   7
HETATM    7  C7  UNL     1      29.981   6.134  48.292  1.00  0.00     0.062 A 
HETATM    8  C2  UNL     1      30.349   7.457  48.629  1.00  0.00     0.094 A 
HETATM    9  C3  UNL     1      31.698   7.835  48.460  1.00  0.00     0.039 A 
HETATM   10  C4  UNL     1      32.560   6.904  47.985  1.00  0.00     0.003 A 
HETATM   11  C5  UNL     1      32.208   5.625  47.659  1.00  0.00     0.002 A 
HETATM   12  C6  UNL     1      30.909   5.238  47.813  1.00  0.00     0.032 A 
BRANCH   8  13
HETATM   13  O1  UNL     1      29.607   8.535  49.122  1.00  0.00    -0.354 OA
HETATM   14  C1  UNL     1      30.082   9.816  49.389  1.00  0.00     0.210 C 
ENDBRANCH   8  13
ENDBRANCH   5   7
ENDBRANCH   4   5
BRANCH   4  15
HETATM   15  C9  UNL     1      26.502   7.147  47.990  1.00  0.00     0.256 C 
HETATM   16  O2  UNL     1      26.188   8.117  47.324  1.00  0.00    -0.305 OA
ENDBRANCH   4  15
ENDBRANCH   3   4
ENDBRANCH   1   3
BRANCH   1  17
HETATM   17  C12 UNL     1      25.899   3.377  50.395  1.00  0.00    -0.020 A 
HETATM   18  C13 UNL     1      26.146   2.053  50.530  1.00  0.00     0.052 A 
HETATM   19  C14 UNL     1      26.807   1.489  51.730  1.00  0.00     0.008 C 
HETATM   20  C20 UNL     1      25.212   2.998  51.687  1.00  0.00     0.037 A 
HETATM   21  C15 UNL     1      27.289   0.657  52.580  1.00  0.00     0.005 C 
HETATM   22  C16 UNL     1      27.084  -0.802  52.180  1.00  0.00     0.076 C 
HETATM   23  N3  UNL     1      27.848   1.125  53.783  1.00  0.00    -0.387 N 
HETATM   24  C17 UNL     1      25.751  -1.094  52.992  1.00  0.00     0.123 C 
HETATM   25  N2  UNL     1      25.547   0.077  53.819  1.00  0.00    -0.410 N 
HETATM   26  C18 UNL     1      24.442   0.917  53.484  1.00  0.00     0.122 C 
HETATM   27  C21 UNL     1      26.104   0.081  55.105  1.00  0.00     0.136 C 
HETATM   28  C19 UNL     1      24.909   1.898  52.442  1.00  0.00     0.019 C 
HETATM   29  C22 UNL     1      27.630   0.262  54.970  1.00  0.00     0.141 C 
HETATM   30  C23 UNL     1      28.517   2.395  53.502  1.00  0.00     0.149 C 
ENDBRANCH   1  17
TORSDOF 7
ENDMDL
MODEL 8
REMARK VINA RESULT:      -7.6      1.797      3.211
REMARK  7 active torsions:
REMARK  status: ('A' for Active; 'I' for Inactive)
REMARK    1  A    between atoms: O1_2  and  C2_3 
REMARK    2  A    between atoms: C7_8  and  N1_9 
REMARK    3  A    between atoms: N1_9  and  C8_10 
REMARK    4  A    between atoms: C8_10  and  C9_11 
REMARK    5  A    between atoms: C8_10  and  C10_13 
REMARK    6  A    between atoms: C10_13  and  C11_14 
REMARK    7  A    between atoms: C11_14  and  C12_16 
ROOT
HETATM    1  C11 UNL     1      25.931   2.669  51.179  1.00  0.00     0.155 C 
HETATM    2  O3  UNL     1      27.152   2.834  50.845  1.00  0.00    -0.293 OA
ENDROOT
BRANCH   1   3
HETATM    3  C10 UNL     1      25.044   2.200  52.248  1.00  0.00     0.115 C 
BRANCH   3   4
HETATM    4  C8  UNL     1      24.932   0.714  52.393  1.00  0.00     0.150 C 
BRANCH   4   5
HETATM    5  N1  UNL     1      26.051  -0.065  52.648  1.00  0.00    -0.376 N 
HETATM    6  H8  UNL     1      26.470   0.335  51.752  1.00  0.00     0.160 HD
BRANCH   5   7
HETATM    7  C7  UNL     1      27.205  -0.846  52.887  1.00  0.00     0.062 A 
HETATM    8  C2  UNL     1      28.012   0.072  53.597  1.00  0.00     0.094 A 
HETATM    9  C3  UNL     1      29.292  -0.351  54.011  1.00  0.00     0.039 A 
HETATM   10  C4  UNL     1      29.671  -1.615  53.703  1.00  0.00     0.003 A 
HETATM   11  C5  UNL     1      28.892  -2.505  53.017  1.00  0.00     0.002 A 
HETATM   12  C6  UNL     1      27.651  -2.117  52.606  1.00  0.00     0.032 A 
BRANCH   8  13
HETATM   13  O1  UNL     1      27.792   1.394  53.995  1.00  0.00    -0.354 OA
HETATM   14  C1  UNL     1      28.629   2.482  53.758  1.00  0.00     0.210 C 
ENDBRANCH   8  13
ENDBRANCH   5   7
ENDBRANCH   4   5
BRANCH   4  15
HETATM   15  C9  UNL     1      23.807   0.371  53.349  1.00  0.00     0.256 C 
HETATM   16  O2  UNL     1      22.794  -0.075  53.859  1.00  0.00    -0.305 OA
ENDBRANCH   4  15
ENDBRANCH   3   4
ENDBRANCH   1   3
BRANCH   1  17
HETATM   17  C12 UNL     1      24.910   3.046  50.261  1.00  0.00    -0.020 A 
HETATM   18  C13 UNL     1      23.995   3.263  49.287  1.00  0.00     0.052 A 
HETATM   19  C14 UNL     1      22.984   4.343  49.377  1.00  0.00     0.008 C 
HETATM   20  C20 UNL     1      25.121   4.490  49.865  1.00  0.00     0.037 A 
HETATM   21  C15 UNL     1      22.032   5.150  49.081  1.00  0.00     0.005 C 
HETATM   22  C16 UNL     1      21.500   4.962  47.663  1.00  0.00     0.076 C 
HETATM   23  N3  UNL     1      21.644   6.146  49.996  1.00  0.00    -0.387 N 
HETATM   24  C17 UNL     1      22.364   6.072  46.927  1.00  0.00     0.123 C 
HETATM   25  N2  UNL     1      23.035   6.795  47.987  1.00  0.00    -0.410 N 
HETATM   26  C18 UNL     1      24.449   6.622  48.089  1.00  0.00     0.122 C 
HETATM   27  C21 UNL     1      22.396   7.920  48.525  1.00  0.00     0.136 C 
HETATM   28  C19 UNL     1      24.704   5.406  48.937  1.00  0.00     0.019 C 
HETATM   29  C22 UNL     1      21.221   7.436  49.399  1.00  0.00     0.141 C 
HETATM   30  C23 UNL     1      21.778   5.592  51.343  1.00  0.00     0.149 C 
ENDBRANCH   1  17
TORSDOF 7
ENDMDL
MODEL 9
REMARK VINA RESULT:      -7.5      1.879      4.523
REMARK  7 active torsions:
REMARK  status: ('A' for Active; 'I' for Inactive)
REMARK    1  A    between atoms: O1_2  and  C2_3 
REMARK    2  A    between atoms: C7_8  and  N1_9 
REMARK    3  A    between atoms: N1_9  and  C8_10 
REMARK    4  A    between atoms: C8_10  and  C9_11 
REMARK    5  A    between atoms: C8_10  and  C10_13 
REMARK    6  A    between atoms: C10_13  and  C11_14 
REMARK    7  A    between atoms: C11_14  and  C12_16 
ROOT
HETATM    1  C11 UNL     1      26.575   2.300  51.576  1.00  0.00     0.155 C 
HETATM    2  O3  UNL     1      27.749   2.516  52.030  1.00  0.00    -0.293 OA
ENDROOT
BRANCH   1   3
HETATM    3  C10 UNL     1      25.426   1.392  51.635  1.00  0.00     0.115 C 
BRANCH   3   4
HETATM    4  C8  UNL     1      25.098   0.847  52.991  1.00  0.00     0.150 C 
BRANCH   4   5
HETATM    5  N1  UNL     1      23.857   0.287  53.255  1.00  0.00    -0.376 N 
HETATM    6  H8  UNL     1      24.345  -0.327  53.977  1.00  0.00     0.160 HD
BRANCH   5   7
HETATM    7  C7  UNL     1      22.604  -0.299  53.544  1.00  0.00     0.062 A 
HETATM    8  C2  UNL     1      21.725   0.622  52.928  1.00  0.00     0.094 A 
HETATM    9  C3  UNL     1      20.338   0.377  53.016  1.00  0.00     0.039 A 
HETATM   10  C4  UNL     1      19.932  -0.728  53.685  1.00  0.00     0.003 A 
HETATM   11  C5  UNL     1      20.779  -1.620  54.281  1.00  0.00     0.002 A 
HETATM   12  C6  UNL     1      22.124  -1.403  54.210  1.00  0.00     0.032 A 
BRANCH   8  13
HETATM   13  O1  UNL     1      21.960   1.798  52.209  1.00  0.00    -0.354 OA
HETATM   14  C1  UNL     1      21.190   2.958  52.241  1.00  0.00     0.210 C 
ENDBRANCH   8  13
ENDBRANCH   5   7
ENDBRANCH   4   5
BRANCH   4  15
HETATM   15  C9  UNL     1      26.213  -0.065  53.464  1.00  0.00     0.256 C 
HETATM   16  O2  UNL     1      26.938  -0.787  54.126  1.00  0.00    -0.305 OA
ENDBRANCH   4  15
ENDBRANCH   3   4
ENDBRANCH   1   3
BRANCH   1  17
HETATM   17  C12 UNL     1      26.023   3.216  50.635  1.00  0.00    -0.020 A 
HETATM   18  C13 UNL     1      25.664   4.159  49.733  1.00  0.00     0.052 A 
HETATM   19  C14 UNL     1      24.298   4.232  49.164  1.00  0.00     0.008 C 
HETATM   20  C20 UNL     1      24.837   3.907  51.268  1.00  0.00     0.037 A 
HETATM   21  C15 UNL     1      23.268   4.630  48.510  1.00  0.00     0.005 C 
HETATM   22  C16 UNL     1      23.494   5.947  47.773  1.00  0.00     0.076 C 
HETATM   23  N3  UNL     1      22.060   3.914  48.597  1.00  0.00    -0.387 N 
HETATM   24  C17 UNL     1      22.904   6.941  48.862  1.00  0.00     0.123 C 
HETATM   25  N2  UNL     1      22.297   6.090  49.863  1.00  0.00    -0.410 N 
HETATM   26  C18 UNL     1      22.939   6.036  51.138  1.00  0.00     0.122 C 
HETATM   27  C21 UNL     1      20.945   5.755  49.712  1.00  0.00     0.136 C 
HETATM   28  C19 UNL     1      24.005   4.975  51.072  1.00  0.00     0.019 C 
HETATM   29  C22 UNL     1      20.825   4.735  48.562  1.00  0.00     0.141 C 
HETATM   30  C23 UNL     1      22.388   2.493  48.703  1.00  0.00     0.149 C 
ENDBRANCH   1  17
TORSDOF 7
ENDMDL
