MODEL 1
REMARK VINA RESULT:      -7.6      0.000      0.000
REMARK  5 active torsions:
REMARK  status: ('A' for Active; 'I' for Inactive)
REMARK    1  A    between atoms: C3_4  and  N2_5 
REMARK    2  A    between atoms: N2_5  and  C4_6 
REMARK    3  A    between atoms: C5_8  and  O1_9 
REMARK    4  A    between atoms: O1_9  and  C6_10 
REMARK    5  A    between atoms: N4_15  and  C10_16 
ROOT
HETATM    1  C4  UNL     1      26.152   2.875  51.141  1.00  0.00     0.731 A 
HETATM    2  N3  UNL     1      24.930   2.349  51.350  1.00  0.00    -0.037 NA
HETATM    3  C5  UNL     1      24.759   1.187  52.005  1.00  0.00     0.197 A 
HETATM    4  C11 UNL     1      25.826   0.466  52.500  1.00  0.00     0.062 A 
HETATM    5  C12 UNL     1      27.078   1.007  52.284  1.00  0.00     0.172 A 
HETATM    6  N5  UNL     1      27.189   2.172  51.624  1.00  0.00    -0.043 NA
HETATM    7  N6  UNL     1      27.631  -0.110  52.968  1.00  0.00    -0.268 N 
HETATM    8 CL1  UNL     1      29.229  -0.616  53.379  1.00  0.00     0.015 Cl
HETATM    9  C13 UNL     1      26.347  -0.708  53.214  1.00  0.00     0.192 A 
ENDROOT
BRANCH   3  10
HETATM   10  O1  UNL     1      23.445   0.808  52.122  1.00  0.00    -0.307 OA
BRANCH  10  11
HETATM   11  C6  UNL     1      22.744   0.921  53.345  1.00  0.00     0.236 C 
HETATM   12  C7  UNL     1      21.302   1.266  52.955  1.00  0.00     0.093 C 
HETATM   13  C8  UNL     1      20.951  -0.000  52.177  1.00  0.00     0.192 C 
HETATM   14  F1  UNL     1      21.514   0.164  50.909  1.00  0.00    -0.248 F 
HETATM   15  C9  UNL     1      21.644  -1.066  52.965  1.00  0.00     0.165 C 
HETATM   16  N4  UNL     1      22.509  -0.404  53.933  1.00  0.00    -0.329 N 
BRANCH  16  17
HETATM   17  C10 UNL     1      22.903  -1.104  55.117  1.00  0.00     0.353 C 
HETATM   18  O2  UNL     1      22.074  -2.050  55.279  1.00  0.00    -0.283 OA
ENDBRANCH  16  17
ENDBRANCH  10  11
ENDBRANCH   3  10
BRANCH   1  19
HETATM   19  N2  UNL     1      26.318   4.105  50.448  1.00  0.00    -0.185 N 
HETATM   20  H5  UNL     1      27.317   4.381  50.203  1.00  0.00     0.184 HD
BRANCH  19  21
HETATM   21  C3  UNL     1      25.283   4.995  50.054  1.00  0.00     0.085 A 
HETATM   22  C2  UNL     1      24.847   6.115  50.736  1.00  0.00     0.143 A 
HETATM   23  N1  UNL     1      23.855   6.676  50.026  1.00  0.00    -0.283 N 
HETATM   24  C1  UNL     1      23.113   7.883  50.390  1.00  0.00     0.179 C 
HETATM   25  N7  UNL     1      23.661   5.953  48.943  1.00  0.00    -0.183 NA
HETATM   26  C14 UNL     1      24.512   4.910  48.914  1.00  0.00     0.170 A 
ENDBRANCH  19  21
ENDBRANCH   1  19
TORSDOF 5
ENDMDL
MODEL 2
REMARK VINA RESULT:      -7.5      2.076      2.818
REMARK  5 active torsions:
REMARK  status: ('A' for Active; 'I' for Inactive)
REMARK    1  A    between atoms: C3_4  and  N2_5 
REMARK    2  A    between atoms: N2_5  and  C4_6 
REMARK    3  A    between atoms: C5_8  and  O1_9 
REMARK    4  A    between atoms: O1_9  and  C6_10 
REMARK    5  A    between atoms: N4_15  and  C10_16 
ROOT
HETATM    1  C4  UNL     1      25.502   2.512  51.117  1.00  0.00     0.731 A 
HETATM    2  N3  UNL     1      24.433   2.001  51.757  1.00  0.00    -0.037 NA
HETATM    3  C5  UNL     1      24.550   1.338  52.921  1.00  0.00     0.197 A 
HETATM    4  C11 UNL     1      25.774   1.142  53.526  1.00  0.00     0.062 A 
HETATM    5  C12 UNL     1      26.869   1.665  52.869  1.00  0.00     0.172 A 
HETATM    6  N5  UNL     1      26.692   2.320  51.709  1.00  0.00    -0.043 NA
HETATM    7  N6  UNL     1      27.686   1.160  53.918  1.00  0.00    -0.268 N 
HETATM    8 CL1  UNL     1      29.377   1.178  54.259  1.00  0.00     0.015 Cl
HETATM    9  C13 UNL     1      26.573   0.599  54.634  1.00  0.00     0.192 A 
ENDROOT
BRANCH   3  10
HETATM   10  O1  UNL     1      23.354   0.890  53.424  1.00  0.00    -0.307 OA
BRANCH  10  11
HETATM   11  C6  UNL     1      22.340   0.375  52.584  1.00  0.00     0.236 C 
HETATM   12  C7  UNL     1      22.174  -1.091  53.001  1.00  0.00     0.093 C 
HETATM   13  C8  UNL     1      21.713  -0.884  54.442  1.00  0.00     0.192 C 
HETATM   14  F1  UNL     1      22.872  -0.628  55.178  1.00  0.00    -0.248 F 
HETATM   15  C9  UNL     1      20.840   0.325  54.331  1.00  0.00     0.165 C 
HETATM   16  N4  UNL     1      21.022   0.878  52.995  1.00  0.00    -0.329 N 
BRANCH  16  17
HETATM   17  C10 UNL     1      19.997   1.700  52.430  1.00  0.00     0.353 C 
HETATM   18  O2  UNL     1      20.165   2.868  52.893  1.00  0.00    -0.283 OA
ENDBRANCH  16  17
ENDBRANCH  10  11
ENDBRANCH   3  10
BRANCH   1  19
HETATM   19  N2  UNL     1      25.363   3.211  49.887  1.00  0.00    -0.185 N 
HETATM   20  H5  UNL     1      24.692   2.791  49.175  1.00  0.00     0.184 HD
BRANCH  19  21
HETATM   21  C3  UNL     1      26.032   4.410  49.523  1.00  0.00     0.085 A 
HETATM   22  C2  UNL     1      27.239   4.518  48.858  1.00  0.00     0.143 A 
HETATM   23  N1  UNL     1      27.517   5.824  48.708  1.00  0.00    -0.283 N 
HETATM   24  C1  UNL     1      28.703   6.381  48.057  1.00  0.00     0.179 C 
HETATM   25  N7  UNL     1      26.539   6.520  49.249  1.00  0.00    -0.183 NA
HETATM   26  C14 UNL     1      25.604   5.699  49.762  1.00  0.00     0.170 A 
ENDBRANCH  19  21
ENDBRANCH   1  19
TORSDOF 5
ENDMDL
MODEL 3
REMARK VINA RESULT:      -7.5      3.045      4.849
REMARK  5 active torsions:
REMARK  status: ('A' for Active; 'I' for Inactive)
REMARK    1  A    between atoms: C3_4  and  N2_5 
REMARK    2  A    between atoms: N2_5  and  C4_6 
REMARK    3  A    between atoms: C5_8  and  O1_9 
REMARK    4  A    between atoms: O1_9  and  C6_10 
REMARK    5  A    between atoms: N4_15  and  C10_16 
ROOT
HETATM    1  C4  UNL     1      22.948   3.246  51.840  1.00  0.00     0.731 A 
HETATM    2  N3  UNL     1      24.147   2.681  52.071  1.00  0.00    -0.037 NA
HETATM    3  C5  UNL     1      24.264   1.442  52.581  1.00  0.00     0.197 A 
HETATM    4  C11 UNL     1      23.159   0.679  52.899  1.00  0.00     0.062 A 
HETATM    5  C12 UNL     1      21.930   1.260  52.662  1.00  0.00     0.172 A 
HETATM    6  N5  UNL     1      21.873   2.501  52.149  1.00  0.00    -0.043 NA
HETATM    7  N6  UNL     1      21.322   0.072  53.153  1.00  0.00    -0.268 N 
HETATM    8 CL1  UNL     1      19.696  -0.460  53.376  1.00  0.00     0.015 Cl
HETATM    9  C13 UNL     1      22.581  -0.569  53.416  1.00  0.00     0.192 A 
ENDROOT
BRANCH   3  10
HETATM   10  O1  UNL     1      25.563   1.034  52.748  1.00  0.00    -0.307 OA
BRANCH  10  11
HETATM   11  C6  UNL     1      26.290   1.325  53.925  1.00  0.00     0.236 C 
HETATM   12  C7  UNL     1      26.332   0.010  54.712  1.00  0.00     0.093 C 
HETATM   13  C8  UNL     1      27.117  -0.843  53.717  1.00  0.00     0.192 C 
HETATM   14  F1  UNL     1      26.193  -1.251  52.753  1.00  0.00    -0.248 F 
HETATM   15  C9  UNL     1      28.109   0.133  53.168  1.00  0.00     0.165 C 
HETATM   16  N4  UNL     1      27.723   1.459  53.631  1.00  0.00    -0.329 N 
BRANCH  16  17
HETATM   17  C10 UNL     1      28.708   2.495  53.694  1.00  0.00     0.353 C 
HETATM   18  O2  UNL     1      29.392   2.289  54.741  1.00  0.00    -0.283 OA
ENDBRANCH  16  17
ENDBRANCH  10  11
ENDBRANCH   3  10
BRANCH   1  19
HETATM   19  N2  UNL     1      22.839   4.556  51.299  1.00  0.00    -0.185 N 
HETATM   20  H5  UNL     1      21.859   4.969  51.246  1.00  0.00     0.184 HD
BRANCH  19  21
HETATM   21  C3  UNL     1      23.910   5.361  50.825  1.00  0.00     0.085 A 
HETATM   22  C2  UNL     1      24.823   5.032  49.841  1.00  0.00     0.143 A 
HETATM   23  N1  UNL     1      25.668   6.066  49.694  1.00  0.00    -0.283 N 
HETATM   24  C1  UNL     1      26.788   6.134  48.756  1.00  0.00     0.179 C 
HETATM   25  N7  UNL     1      25.316   7.012  50.540  1.00  0.00    -0.183 NA
HETATM   26  C14 UNL     1      24.243   6.627  51.257  1.00  0.00     0.170 A 
ENDBRANCH  19  21
ENDBRANCH   1  19
TORSDOF 5
ENDMDL
MODEL 4
REMARK VINA RESULT:      -7.5      1.503      2.130
REMARK  5 active torsions:
REMARK  status: ('A' for Active; 'I' for Inactive)
REMARK    1  A    between atoms: C3_4  and  N2_5 
REMARK    2  A    between atoms: N2_5  and  C4_6 
REMARK    3  A    between atoms: C5_8  and  O1_9 
REMARK    4  A    between atoms: O1_9  and  C6_10 
REMARK    5  A    between atoms: N4_15  and  C10_16 
ROOT
HETATM    1  C4  UNL     1      26.115   2.872  51.160  1.00  0.00     0.731 A 
HETATM    2  N3  UNL     1      24.878   2.383  51.367  1.00  0.00    -0.037 NA
HETATM    3  C5  UNL     1      24.671   1.218  52.008  1.00  0.00     0.197 A 
HETATM    4  C11 UNL     1      25.717   0.457  52.489  1.00  0.00     0.062 A 
HETATM    5  C12 UNL     1      26.985   0.960  52.276  1.00  0.00     0.172 A 
HETATM    6  N5  UNL     1      27.131   2.130  51.630  1.00  0.00    -0.043 NA
HETATM    7  N6  UNL     1      27.504  -0.182  52.944  1.00  0.00    -0.268 N 
HETATM    8 CL1  UNL     1      29.086  -0.744  53.343  1.00  0.00     0.015 Cl
HETATM    9  C13 UNL     1      26.203  -0.742  53.186  1.00  0.00     0.192 A 
ENDROOT
BRANCH   3  10
HETATM   10  O1  UNL     1      23.347   0.880  52.125  1.00  0.00    -0.307 OA
BRANCH  10  11
HETATM   11  C6  UNL     1      22.353   1.470  51.311  1.00  0.00     0.236 C 
HETATM   12  C7  UNL     1      21.422   0.320  50.910  1.00  0.00     0.093 C 
HETATM   13  C8  UNL     1      20.909  -0.072  52.295  1.00  0.00     0.192 C 
HETATM   14  F1  UNL     1      21.914  -0.857  52.864  1.00  0.00    -0.248 F 
HETATM   15  C9  UNL     1      20.778   1.253  52.977  1.00  0.00     0.165 C 
HETATM   16  N4  UNL     1      21.411   2.251  52.125  1.00  0.00    -0.329 N 
BRANCH  16  17
HETATM   17  C10 UNL     1      21.029   3.623  52.246  1.00  0.00     0.353 C 
HETATM   18  O2  UNL     1      19.762   3.648  52.311  1.00  0.00    -0.283 OA
ENDBRANCH  16  17
ENDBRANCH  10  11
ENDBRANCH   3  10
BRANCH   1  19
HETATM   19  N2  UNL     1      26.318   4.105  50.482  1.00  0.00    -0.185 N 
HETATM   20  H5  UNL     1      27.328   4.374  50.279  1.00  0.00     0.184 HD
BRANCH  19  21
HETATM   21  C3  UNL     1      25.306   5.005  50.054  1.00  0.00     0.085 A 
HETATM   22  C2  UNL     1      24.988   6.226  50.618  1.00  0.00     0.143 A 
HETATM   23  N1  UNL     1      23.975   6.760  49.915  1.00  0.00    -0.283 N 
HETATM   24  C1  UNL     1      23.332   8.047  50.176  1.00  0.00     0.179 C 
HETATM   25  N7  UNL     1      23.658   5.924  48.948  1.00  0.00    -0.183 NA
HETATM   26  C14 UNL     1      24.446   4.833  48.990  1.00  0.00     0.170 A 
ENDBRANCH  19  21
ENDBRANCH   1  19
TORSDOF 5
ENDMDL
MODEL 5
REMARK VINA RESULT:      -7.4      3.140      5.614
REMARK  5 active torsions:
REMARK  status: ('A' for Active; 'I' for Inactive)
REMARK    1  A    between atoms: C3_4  and  N2_5 
REMARK    2  A    between atoms: N2_5  and  C4_6 
REMARK    3  A    between atoms: C5_8  and  O1_9 
REMARK    4  A    between atoms: O1_9  and  C6_10 
REMARK    5  A    between atoms: N4_15  and  C10_16 
ROOT
HETATM    1  C4  UNL     1      25.208   1.885  52.297  1.00  0.00     0.731 A 
HETATM    2  N3  UNL     1      24.425   2.152  51.235  1.00  0.00    -0.037 NA
HETATM    3  C5  UNL     1      23.189   1.637  51.114  1.00  0.00     0.197 A 
HETATM    4  C11 UNL     1      22.652   0.802  52.073  1.00  0.00     0.062 A 
HETATM    5  C12 UNL     1      23.455   0.528  53.161  1.00  0.00     0.172 A 
HETATM    6  N5  UNL     1      24.683   1.072  53.229  1.00  0.00    -0.043 NA
HETATM    7  N6  UNL     1      22.407  -0.282  53.677  1.00  0.00    -0.268 N 
HETATM    8 CL1  UNL     1      22.196  -1.240  55.097  1.00  0.00     0.015 Cl
HETATM    9  C13 UNL     1      21.538  -0.023  52.561  1.00  0.00     0.192 A 
ENDROOT
BRANCH   3  10
HETATM   10  O1  UNL     1      22.541   2.020  49.967  1.00  0.00    -0.307 OA
BRANCH  10  11
HETATM   11  C6  UNL     1      21.932   3.289  49.845  1.00  0.00     0.236 C 
HETATM   12  C7  UNL     1      21.512   3.398  48.374  1.00  0.00     0.093 C 
HETATM   13  C8  UNL     1      20.513   2.244  48.319  1.00  0.00     0.192 C 
HETATM   14  F1  UNL     1      21.280   1.083  48.193  1.00  0.00    -0.248 F 
HETATM   15  C9  UNL     1      19.845   2.333  49.654  1.00  0.00     0.165 C 
HETATM   16  N4  UNL     1      20.597   3.285  50.460  1.00  0.00    -0.329 N 
BRANCH  16  17
HETATM   17  C10 UNL     1      19.953   3.941  51.556  1.00  0.00     0.353 C 
HETATM   18  O2  UNL     1      20.017   3.151  52.546  1.00  0.00    -0.283 OA
ENDBRANCH  16  17
ENDBRANCH  10  11
ENDBRANCH   3  10
BRANCH   1  19
HETATM   19  N2  UNL     1      26.513   2.437  52.413  1.00  0.00    -0.185 N 
HETATM   20  H5  UNL     1      26.650   3.417  52.020  1.00  0.00     0.184 HD
BRANCH  19  21
HETATM   21  C3  UNL     1      27.643   1.807  52.998  1.00  0.00     0.085 A 
HETATM   22  C2  UNL     1      28.004   0.478  52.886  1.00  0.00     0.143 A 
HETATM   23  N1  UNL     1      29.134   0.291  53.588  1.00  0.00    -0.283 N 
HETATM   24  C1  UNL     1      29.856  -0.972  53.735  1.00  0.00     0.179 C 
HETATM   25  N7  UNL     1      29.482   1.442  54.126  1.00  0.00    -0.183 NA
HETATM   26  C14 UNL     1      28.599   2.403  53.793  1.00  0.00     0.170 A 
ENDBRANCH  19  21
ENDBRANCH   1  19
TORSDOF 5
ENDMDL
MODEL 6
REMARK VINA RESULT:      -7.4      3.160      6.748
REMARK  5 active torsions:
REMARK  status: ('A' for Active; 'I' for Inactive)
REMARK    1  A    between atoms: C3_4  and  N2_5 
REMARK    2  A    between atoms: N2_5  and  C4_6 
REMARK    3  A    between atoms: C5_8  and  O1_9 
REMARK    4  A    between atoms: O1_9  and  C6_10 
REMARK    5  A    between atoms: N4_15  and  C10_16 
ROOT
HETATM    1  C4  UNL     1      23.928  -0.206  53.196  1.00  0.00     0.731 A 
HETATM    2  N3  UNL     1      24.030   1.072  52.787  1.00  0.00    -0.037 NA
HETATM    3  C5  UNL     1      22.946   1.824  52.524  1.00  0.00     0.197 A 
HETATM    4  C11 UNL     1      21.666   1.326  52.656  1.00  0.00     0.062 A 
HETATM    5  C12 UNL     1      21.563   0.015  53.075  1.00  0.00     0.172 A 
HETATM    6  N5  UNL     1      22.681  -0.689  53.324  1.00  0.00    -0.043 NA
HETATM    7  N6  UNL     1      20.149   0.148  53.003  1.00  0.00    -0.268 N 
HETATM    8 CL1  UNL     1      18.812  -0.898  53.310  1.00  0.00     0.015 Cl
HETATM    9  C13 UNL     1      20.211   1.515  52.565  1.00  0.00     0.192 A 
ENDROOT
BRANCH   3  10
HETATM   10  O1  UNL     1      23.245   3.101  52.119  1.00  0.00    -0.307 OA
BRANCH  10  11
HETATM   11  C6  UNL     1      23.296   3.455  50.752  1.00  0.00     0.236 C 
HETATM   12  C7  UNL     1      22.077   4.356  50.520  1.00  0.00     0.093 C 
HETATM   13  C8  UNL     1      22.445   5.508  51.454  1.00  0.00     0.192 C 
HETATM   14  F1  UNL     1      22.100   5.081  52.738  1.00  0.00    -0.248 F 
HETATM   15  C9  UNL     1      23.926   5.608  51.274  1.00  0.00     0.165 C 
HETATM   16  N4  UNL     1      24.356   4.444  50.511  1.00  0.00    -0.329 N 
BRANCH  16  17
HETATM   17  C10 UNL     1      25.581   4.500  49.774  1.00  0.00     0.353 C 
HETATM   18  O2  UNL     1      26.415   3.769  50.389  1.00  0.00    -0.283 OA
ENDBRANCH  16  17
ENDBRANCH  10  11
ENDBRANCH   3  10
BRANCH   1  19
HETATM   19  N2  UNL     1      25.082  -0.989  53.471  1.00  0.00    -0.185 N 
HETATM   20  H5  UNL     1      24.975  -2.043  53.374  1.00  0.00     0.184 HD
BRANCH  19  21
HETATM   21  C3  UNL     1      26.356  -0.498  53.862  1.00  0.00     0.085 A 
HETATM   22  C2  UNL     1      27.562  -0.715  53.223  1.00  0.00     0.143 A 
HETATM   23  N1  UNL     1      28.522  -0.077  53.913  1.00  0.00    -0.283 N 
HETATM   24  C1  UNL     1      29.946  -0.048  53.580  1.00  0.00     0.179 C 
HETATM   25  N7  UNL     1      27.962   0.520  54.945  1.00  0.00    -0.183 NA
HETATM   26  C14 UNL     1      26.635   0.293  54.958  1.00  0.00     0.170 A 
ENDBRANCH  19  21
ENDBRANCH   1  19
TORSDOF 5
ENDMDL
MODEL 7
REMARK VINA RESULT:      -7.3      3.380      6.635
REMARK  5 active torsions:
REMARK  status: ('A' for Active; 'I' for Inactive)
REMARK    1  A    between atoms: C3_4  and  N2_5 
REMARK    2  A    between atoms: N2_5  and  C4_6 
REMARK    3  A    between atoms: C5_8  and  O1_9 
REMARK    4  A    between atoms: O1_9  and  C6_10 
REMARK    5  A    between atoms: N4_15  and  C10_16 
ROOT
HETATM    1  C4  UNL     1      23.200  -0.188  53.371  1.00  0.00     0.731 A 
HETATM    2  N3  UNL     1      23.512   0.611  52.333  1.00  0.00    -0.037 NA
HETATM    3  C5  UNL     1      22.582   1.040  51.461  1.00  0.00     0.197 A 
HETATM    4  C11 UNL     1      21.254   0.685  51.580  1.00  0.00     0.062 A 
HETATM    5  C12 UNL     1      20.936  -0.135  52.644  1.00  0.00     0.172 A 
HETATM    6  N5  UNL     1      21.907  -0.532  53.485  1.00  0.00    -0.043 NA
HETATM    7  N6  UNL     1      19.583  -0.102  52.210  1.00  0.00    -0.268 N 
HETATM    8 CL1  UNL     1      18.108  -0.800  52.770  1.00  0.00     0.015 Cl
HETATM    9  C13 UNL     1      19.871   0.750  51.089  1.00  0.00     0.192 A 
ENDROOT
BRANCH   3  10
HETATM   10  O1  UNL     1      23.085   1.844  50.469  1.00  0.00    -0.307 OA
BRANCH  10  11
HETATM   11  C6  UNL     1      23.804   3.026  50.762  1.00  0.00     0.236 C 
HETATM   12  C7  UNL     1      24.409   3.474  49.426  1.00  0.00     0.093 C 
HETATM   13  C8  UNL     1      23.120   3.733  48.650  1.00  0.00     0.192 C 
HETATM   14  F1  UNL     1      22.675   2.480  48.224  1.00  0.00    -0.248 F 
HETATM   15  C9  UNL     1      22.226   4.320  49.695  1.00  0.00     0.165 C 
HETATM   16  N4  UNL     1      22.886   4.151  50.983  1.00  0.00    -0.329 N 
BRANCH  16  17
HETATM   17  C10 UNL     1      22.540   5.016  52.069  1.00  0.00     0.353 C 
HETATM   18  O2  UNL     1      23.420   4.850  52.967  1.00  0.00    -0.283 OA
ENDBRANCH  16  17
ENDBRANCH  10  11
ENDBRANCH   3  10
BRANCH   1  19
HETATM   19  N2  UNL     1      24.193  -0.633  54.285  1.00  0.00    -0.185 N 
HETATM   20  H5  UNL     1      23.844  -1.048  55.201  1.00  0.00     0.184 HD
BRANCH  19  21
HETATM   21  C3  UNL     1      25.599  -0.576  54.092  1.00  0.00     0.085 A 
HETATM   22  C2  UNL     1      26.496   0.241  54.755  1.00  0.00     0.143 A 
HETATM   23  N1  UNL     1      27.726  -0.016  54.278  1.00  0.00    -0.283 N 
HETATM   24  C1  UNL     1      28.966   0.630  54.707  1.00  0.00     0.179 C 
HETATM   25  N7  UNL     1      27.625  -0.950  53.355  1.00  0.00    -0.183 NA
HETATM   26  C14 UNL     1      26.341  -1.327  53.205  1.00  0.00     0.170 A 
ENDBRANCH  19  21
ENDBRANCH   1  19
TORSDOF 5
ENDMDL
MODEL 8
REMARK VINA RESULT:      -7.2      3.076      4.834
REMARK  5 active torsions:
REMARK  status: ('A' for Active; 'I' for Inactive)
REMARK    1  A    between atoms: C3_4  and  N2_5 
REMARK    2  A    between atoms: N2_5  and  C4_6 
REMARK    3  A    between atoms: C5_8  and  O1_9 
REMARK    4  A    between atoms: O1_9  and  C6_10 
REMARK    5  A    between atoms: N4_15  and  C10_16 
ROOT
HETATM    1  C4  UNL     1      22.473   2.792  52.074  1.00  0.00     0.731 A 
HETATM    2  N3  UNL     1      23.651   2.243  52.424  1.00  0.00    -0.037 NA
HETATM    3  C5  UNL     1      23.732   1.012  52.958  1.00  0.00     0.197 A 
HETATM    4  C11 UNL     1      22.610   0.239  53.179  1.00  0.00     0.062 A 
HETATM    5  C12 UNL     1      21.402   0.804  52.821  1.00  0.00     0.172 A 
HETATM    6  N5  UNL     1      21.382   2.039  52.290  1.00  0.00    -0.043 NA
HETATM    7  N6  UNL     1      20.763  -0.386  53.267  1.00  0.00    -0.268 N 
HETATM    8 CL1  UNL     1      19.129  -0.934  53.343  1.00  0.00     0.015 Cl
HETATM    9  C13 UNL     1      21.998  -1.010  53.654  1.00  0.00     0.192 A 
ENDROOT
BRANCH   3  10
HETATM   10  O1  UNL     1      25.014   0.620  53.251  1.00  0.00    -0.307 OA
BRANCH  10  11
HETATM   11  C6  UNL     1      25.889   0.132  52.254  1.00  0.00     0.236 C 
HETATM   12  C7  UNL     1      26.902   1.259  52.016  1.00  0.00     0.093 C 
HETATM   13  C8  UNL     1      27.539   1.310  53.403  1.00  0.00     0.192 C 
HETATM   14  F1  UNL     1      26.656   2.040  54.201  1.00  0.00    -0.248 F 
HETATM   15  C9  UNL     1      27.584  -0.134  53.790  1.00  0.00     0.165 C 
HETATM   16  N4  UNL     1      26.801  -0.876  52.811  1.00  0.00    -0.329 N 
BRANCH  16  17
HETATM   17  C10 UNL     1      27.053  -2.271  52.621  1.00  0.00     0.353 C 
HETATM   18  O2  UNL     1      28.220  -2.498  53.064  1.00  0.00    -0.283 OA
ENDBRANCH  16  17
ENDBRANCH  10  11
ENDBRANCH   3  10
BRANCH   1  19
HETATM   19  N2  UNL     1      22.402   4.095  51.510  1.00  0.00    -0.185 N 
HETATM   20  H5  UNL     1      21.434   4.535  51.450  1.00  0.00     0.184 HD
BRANCH  19  21
HETATM   21  C3  UNL     1      23.495   4.859  51.020  1.00  0.00     0.085 A 
HETATM   22  C2  UNL     1      24.389   4.491  50.033  1.00  0.00     0.143 A 
HETATM   23  N1  UNL     1      25.267   5.495  49.869  1.00  0.00    -0.283 N 
HETATM   24  C1  UNL     1      26.381   5.517  48.922  1.00  0.00     0.179 C 
HETATM   25  N7  UNL     1      24.954   6.459  50.710  1.00  0.00    -0.183 NA
HETATM   26  C14 UNL     1      23.874   6.117  51.439  1.00  0.00     0.170 A 
ENDBRANCH  19  21
ENDBRANCH   1  19
TORSDOF 5
ENDMDL
MODEL 9
REMARK VINA RESULT:      -7.0      3.056      6.103
REMARK  5 active torsions:
REMARK  status: ('A' for Active; 'I' for Inactive)
REMARK    1  A    between atoms: C3_4  and  N2_5 
REMARK    2  A    between atoms: N2_5  and  C4_6 
REMARK    3  A    between atoms: C5_8  and  O1_9 
REMARK    4  A    between atoms: O1_9  and  C6_10 
REMARK    5  A    between atoms: N4_15  and  C10_16 
ROOT
HETATM    1  C4  UNL     1      22.645   2.782  51.676  1.00  0.00     0.731 A 
HETATM    2  N3  UNL     1      23.507   1.892  52.203  1.00  0.00    -0.037 NA
HETATM    3  C5  UNL     1      24.819   1.914  51.911  1.00  0.00     0.197 A 
HETATM    4  C11 UNL     1      25.358   2.849  51.052  1.00  0.00     0.062 A 
HETATM    5  C12 UNL     1      24.473   3.760  50.511  1.00  0.00     0.172 A 
HETATM    6  N5  UNL     1      23.172   3.692  50.839  1.00  0.00    -0.043 NA
HETATM    7  N6  UNL     1      25.567   4.345  49.815  1.00  0.00    -0.268 N 
HETATM    8 CL1  UNL     1      25.746   5.668  48.722  1.00  0.00     0.015 Cl
HETATM    9  C13 UNL     1      26.522   3.416  50.355  1.00  0.00     0.192 A 
ENDROOT
BRANCH   3  10
HETATM   10  O1  UNL     1      25.541   0.932  52.542  1.00  0.00    -0.307 OA
BRANCH  10  11
HETATM   11  C6  UNL     1      26.235   1.177  53.749  1.00  0.00     0.236 C 
HETATM   12  C7  UNL     1      26.322  -0.184  54.450  1.00  0.00     0.093 C 
HETATM   13  C8  UNL     1      27.160  -0.936  53.418  1.00  0.00     0.192 C 
HETATM   14  F1  UNL     1      26.270  -1.319  52.413  1.00  0.00    -0.248 F 
HETATM   15  C9  UNL     1      28.116   0.115  52.952  1.00  0.00     0.165 C 
HETATM   16  N4  UNL     1      27.665   1.391  53.492  1.00  0.00    -0.329 N 
BRANCH  16  17
HETATM   17  C10 UNL     1      28.602   2.461  53.640  1.00  0.00     0.353 C 
HETATM   18  O2  UNL     1      29.221   2.261  54.729  1.00  0.00    -0.283 OA
ENDBRANCH  16  17
ENDBRANCH  10  11
ENDBRANCH   3  10
BRANCH   1  19
HETATM   19  N2  UNL     1      21.260   2.748  51.994  1.00  0.00    -0.185 N 
HETATM   20  H5  UNL     1      20.727   3.664  51.892  1.00  0.00     0.184 HD
BRANCH  19  21
HETATM   21  C3  UNL     1      20.526   1.614  52.433  1.00  0.00     0.085 A 
HETATM   22  C2  UNL     1      19.434   1.040  51.811  1.00  0.00     0.143 A 
HETATM   23  N1  UNL     1      19.038  -0.011  52.548  1.00  0.00    -0.283 N 
HETATM   24  C1  UNL     1      17.914  -0.898  52.247  1.00  0.00     0.179 C 
HETATM   25  N7  UNL     1      19.834  -0.107  53.592  1.00  0.00    -0.183 NA
HETATM   26  C14 UNL     1      20.764   0.866  53.567  1.00  0.00     0.170 A 
ENDBRANCH  19  21
ENDBRANCH   1  19
TORSDOF 5
ENDMDL
