MODEL 1
REMARK VINA RESULT:      -8.4      0.000      0.000
REMARK  4 active torsions:
REMARK  status: ('A' for Active; 'I' for Inactive)
REMARK    1  A    between atoms: O1_2  and  C2_3 
REMARK    2  A    between atoms: C6_8  and  C7_9 
REMARK    3  A    between atoms: C13_15  and  N2_16 
REMARK    4  A    between atoms: C18_21  and  O2_22 
ROOT
HETATM    1  C2  UNL     1      25.532   0.041  53.891  1.00  0.00     0.103 C 
HETATM    2  C3  UNL     1      24.451  -0.041  53.089  1.00  0.00     0.067 C 
HETATM    3  C4  UNL     1      24.497   1.060  52.147  1.00  0.00     0.049 A 
HETATM    4  N1  UNL     1      23.499   1.558  51.469  1.00  0.00    -0.264 NA
HETATM    5  C5  UNL     1      23.927   2.648  50.668  1.00  0.00     0.126 A 
HETATM    6  C6  UNL     1      25.242   2.883  50.822  1.00  0.00    -0.017 A 
HETATM    7  C16 UNL     1      25.631   1.834  51.712  1.00  0.00     0.098 A 
HETATM    8  C17 UNL     1      26.684   1.925  52.687  1.00  0.00     0.028 C 
HETATM    9  C18 UNL     1      26.612   1.035  53.700  1.00  0.00     0.098 C 
ENDROOT
BRANCH   6  10
HETATM   10  C7  UNL     1      25.840   3.972  50.080  1.00  0.00    -0.027 A 
HETATM   11  C8  UNL     1      26.979   3.794  49.323  1.00  0.00     0.012 A 
HETATM   12  C9  UNL     1      27.573   4.820  48.608  1.00  0.00     0.008 A 
HETATM   13  C10 UNL     1      26.997   6.072  48.658  1.00  0.00    -0.050 A 
HETATM   14  C11 UNL     1      25.846   6.328  49.401  1.00  0.00    -0.018 A 
HETATM   15  C15 UNL     1      27.455   7.322  47.975  1.00  0.00     0.041 C 
HETATM   16  C12 UNL     1      25.315   5.245  50.087  1.00  0.00     0.022 A 
HETATM   17  C13 UNL     1      25.460   7.755  49.264  1.00  0.00     0.251 C 
HETATM   18  C14 UNL     1      26.727   8.396  48.753  1.00  0.00     0.045 C 
BRANCH  17  19
HETATM   19  N2  UNL     1      25.078   8.315  50.549  1.00  0.00     0.087 N 
HETATM   20  H10 UNL     1      24.210   8.866  50.409  1.00  0.00     0.313 HD
HETATM   21  H11 UNL     1      24.971   7.520  51.218  1.00  0.00     0.313 HD
ENDBRANCH  17  19
ENDBRANCH   6  10
BRANCH   9  22
HETATM   22  O2  UNL     1      27.618   1.005  54.686  1.00  0.00    -0.353 OA
HETATM   23  C19 UNL     1      28.879   0.568  54.199  1.00  0.00     0.210 C 
ENDBRANCH   9  22
BRANCH   1  24
HETATM   24  O1  UNL     1      25.655  -0.905  54.919  1.00  0.00    -0.353 OA
HETATM   25  C1  UNL     1      24.570  -1.265  55.744  1.00  0.00     0.210 C 
ENDBRANCH   1  24
TORSDOF 4
ENDMDL
MODEL 2
REMARK VINA RESULT:      -8.3      3.354      6.755
REMARK  4 active torsions:
REMARK  status: ('A' for Active; 'I' for Inactive)
REMARK    1  A    between atoms: O1_2  and  C2_3 
REMARK    2  A    between atoms: C6_8  and  C7_9 
REMARK    3  A    between atoms: C13_15  and  N2_16 
REMARK    4  A    between atoms: C18_21  and  O2_22 
ROOT
HETATM    1  C2  UNL     1      27.713   0.772  53.253  1.00  0.00     0.103 C 
HETATM    2  C3  UNL     1      27.429  -0.198  54.146  1.00  0.00     0.067 C 
HETATM    3  C4  UNL     1      25.991  -0.376  54.185  1.00  0.00     0.049 A 
HETATM    4  N1  UNL     1      25.291  -0.921  55.143  1.00  0.00    -0.264 NA
HETATM    5  C5  UNL     1      23.907  -0.894  54.835  1.00  0.00     0.126 A 
HETATM    6  C6  UNL     1      23.681  -0.310  53.644  1.00  0.00    -0.017 A 
HETATM    7  C16 UNL     1      25.008  -0.036  53.188  1.00  0.00     0.098 A 
HETATM    8  C17 UNL     1      25.383   1.072  52.353  1.00  0.00     0.028 C 
HETATM    9  C18 UNL     1      26.689   1.412  52.395  1.00  0.00     0.098 C 
ENDROOT
BRANCH   6  10
HETATM   10  C7  UNL     1      22.315  -0.192  53.182  1.00  0.00    -0.027 A 
HETATM   11  C8  UNL     1      21.263  -0.745  53.881  1.00  0.00     0.012 A 
HETATM   12  C9  UNL     1      19.948  -0.651  53.458  1.00  0.00     0.008 A 
HETATM   13  C10 UNL     1      19.684   0.025  52.286  1.00  0.00    -0.050 A 
HETATM   14  C11 UNL     1      20.695   0.610  51.525  1.00  0.00    -0.018 A 
HETATM   15  C15 UNL     1      18.356   0.255  51.636  1.00  0.00     0.041 C 
HETATM   16  C12 UNL     1      21.983   0.469  52.021  1.00  0.00     0.022 A 
HETATM   17  C13 UNL     1      20.114   1.265  50.326  1.00  0.00     0.251 C 
HETATM   18  C14 UNL     1      18.751   0.626  50.224  1.00  0.00     0.045 C 
BRANCH  17  19
HETATM   19  N2  UNL     1      20.909   0.982  49.143  1.00  0.00     0.087 N 
HETATM   20  H10 UNL     1      21.697   0.372  49.429  1.00  0.00     0.313 HD
HETATM   21  H11 UNL     1      20.273   0.550  48.435  1.00  0.00     0.313 HD
ENDBRANCH  17  19
ENDBRANCH   6  10
BRANCH   9  22
HETATM   22  O2  UNL     1      27.175   2.453  51.580  1.00  0.00    -0.353 OA
HETATM   23  C19 UNL     1      26.215   2.948  50.656  1.00  0.00     0.210 C 
ENDBRANCH   9  22
BRANCH   1  24
HETATM   24  O1  UNL     1      29.055   1.145  53.097  1.00  0.00    -0.353 OA
HETATM   25  C1  UNL     1      30.120   0.292  53.458  1.00  0.00     0.210 C 
ENDBRANCH   1  24
TORSDOF 4
ENDMDL
MODEL 3
REMARK VINA RESULT:      -8.2      4.523      7.035
REMARK  4 active torsions:
REMARK  status: ('A' for Active; 'I' for Inactive)
REMARK    1  A    between atoms: O1_2  and  C2_3 
REMARK    2  A    between atoms: C6_8  and  C7_9 
REMARK    3  A    between atoms: C13_15  and  N2_16 
REMARK    4  A    between atoms: C18_21  and  O2_22 
ROOT
HETATM    1  C2  UNL     1      20.418   2.446  52.390  1.00  0.00     0.103 C 
HETATM    2  C3  UNL     1      20.317   1.227  52.957  1.00  0.00     0.067 C 
HETATM    3  C4  UNL     1      21.650   0.676  53.096  1.00  0.00     0.049 A 
HETATM    4  N1  UNL     1      21.971  -0.582  53.241  1.00  0.00    -0.264 NA
HETATM    5  C5  UNL     1      23.379  -0.738  53.318  1.00  0.00     0.126 A 
HETATM    6  C6  UNL     1      24.010   0.446  53.216  1.00  0.00    -0.017 A 
HETATM    7  C16 UNL     1      22.915   1.363  53.142  1.00  0.00     0.098 A 
HETATM    8  C17 UNL     1      22.929   2.609  52.426  1.00  0.00     0.028 C 
HETATM    9  C18 UNL     1      21.714   3.105  52.105  1.00  0.00     0.098 C 
ENDROOT
BRANCH   6  10
HETATM   10  C7  UNL     1      25.456   0.463  53.267  1.00  0.00    -0.027 A 
HETATM   11  C8  UNL     1      26.172   1.633  53.125  1.00  0.00     0.012 A 
HETATM   12  C9  UNL     1      27.555   1.675  53.165  1.00  0.00     0.008 A 
HETATM   13  C10 UNL     1      28.242   0.494  53.353  1.00  0.00    -0.050 A 
HETATM   14  C11 UNL     1      27.587  -0.727  53.504  1.00  0.00    -0.018 A 
HETATM   15  C15 UNL     1      29.722   0.294  53.430  1.00  0.00     0.041 C 
HETATM   16  C12 UNL     1      26.201  -0.680  53.452  1.00  0.00     0.022 A 
HETATM   17  C13 UNL     1      28.578  -1.816  53.691  1.00  0.00     0.251 C 
HETATM   18  C14 UNL     1      29.857  -1.192  53.187  1.00  0.00     0.045 C 
BRANCH  17  19
HETATM   19  N2  UNL     1      28.223  -2.983  52.901  1.00  0.00     0.087 N 
HETATM   20  H10 UNL     1      27.192  -2.993  52.798  1.00  0.00     0.313 HD
HETATM   21  H11 UNL     1      28.740  -2.916  51.995  1.00  0.00     0.313 HD
ENDBRANCH  17  19
ENDBRANCH   6  10
BRANCH   9  22
HETATM   22  O2  UNL     1      21.609   4.345  51.445  1.00  0.00    -0.353 OA
HETATM   23  C19 UNL     1      22.591   5.290  51.847  1.00  0.00     0.210 C 
ENDBRANCH   9  22
BRANCH   1  24
HETATM   24  O1  UNL     1      19.231   3.139  52.113  1.00  0.00    -0.353 OA
HETATM   25  C1  UNL     1      18.148   2.537  51.440  1.00  0.00     0.210 C 
ENDBRANCH   1  24
TORSDOF 4
ENDMDL
MODEL 4
REMARK VINA RESULT:      -8.2      3.998      7.258
REMARK  4 active torsions:
REMARK  status: ('A' for Active; 'I' for Inactive)
REMARK    1  A    between atoms: O1_2  and  C2_3 
REMARK    2  A    between atoms: C6_8  and  C7_9 
REMARK    3  A    between atoms: C13_15  and  N2_16 
REMARK    4  A    between atoms: C18_21  and  O2_22 
ROOT
HETATM    1  C2  UNL     1      27.311   0.893  53.227  1.00  0.00     0.103 C 
HETATM    2  C3  UNL     1      26.755   2.109  53.047  1.00  0.00     0.067 C 
HETATM    3  C4  UNL     1      25.320   1.942  52.932  1.00  0.00     0.049 A 
HETATM    4  N1  UNL     1      24.471   2.776  52.396  1.00  0.00    -0.264 NA
HETATM    5  C5  UNL     1      23.152   2.255  52.444  1.00  0.00     0.126 A 
HETATM    6  C6  UNL     1      23.126   1.041  53.023  1.00  0.00    -0.017 A 
HETATM    7  C16 UNL     1      24.493   0.859  53.399  1.00  0.00     0.098 A 
HETATM    8  C17 UNL     1      25.170  -0.407  53.464  1.00  0.00     0.028 C 
HETATM    9  C18 UNL     1      26.518  -0.345  53.401  1.00  0.00     0.098 C 
ENDROOT
BRANCH   6  10
HETATM   10  C7  UNL     1      21.854   0.362  53.144  1.00  0.00    -0.027 A 
HETATM   11  C8  UNL     1      21.677  -0.701  54.004  1.00  0.00     0.012 A 
HETATM   12  C9  UNL     1      20.473  -1.370  54.135  1.00  0.00     0.008 A 
HETATM   13  C10 UNL     1      19.405  -0.951  53.368  1.00  0.00    -0.050 A 
HETATM   14  C11 UNL     1      19.507   0.115  52.477  1.00  0.00    -0.018 A 
HETATM   15  C15 UNL     1      18.019  -1.514  53.338  1.00  0.00     0.041 C 
HETATM   16  C12 UNL     1      20.749   0.730  52.408  1.00  0.00     0.022 A 
HETATM   17  C13 UNL     1      18.206   0.335  51.797  1.00  0.00     0.251 C 
HETATM   18  C14 UNL     1      17.481  -0.968  52.035  1.00  0.00     0.045 C 
BRANCH  17  19
HETATM   19  N2  UNL     1      18.395   0.571  50.375  1.00  0.00     0.087 N 
HETATM   20  H10 UNL     1      18.824   1.508  50.265  1.00  0.00     0.313 HD
HETATM   21  H11 UNL     1      18.980  -0.211  50.004  1.00  0.00     0.313 HD
ENDBRANCH  17  19
ENDBRANCH   6  10
BRANCH   9  22
HETATM   22  O2  UNL     1      27.285  -1.523  53.503  1.00  0.00    -0.353 OA
HETATM   23  C19 UNL     1      27.123  -2.406  52.402  1.00  0.00     0.210 C 
ENDBRANCH   9  22
BRANCH   1  24
HETATM   24  O1  UNL     1      28.709   0.819  53.307  1.00  0.00    -0.353 OA
HETATM   25  C1  UNL     1      29.423   1.278  54.434  1.00  0.00     0.210 C 
ENDBRANCH   1  24
TORSDOF 4
ENDMDL
MODEL 5
REMARK VINA RESULT:      -8.0      5.221      7.506
REMARK  4 active torsions:
REMARK  status: ('A' for Active; 'I' for Inactive)
REMARK    1  A    between atoms: O1_2  and  C2_3 
REMARK    2  A    between atoms: C6_8  and  C7_9 
REMARK    3  A    between atoms: C13_15  and  N2_16 
REMARK    4  A    between atoms: C18_21  and  O2_22 
ROOT
HETATM    1  C2  UNL     1      18.157  -0.689  52.257  1.00  0.00     0.103 C 
HETATM    2  C3  UNL     1      18.476  -1.283  53.424  1.00  0.00     0.067 C 
HETATM    3  C4  UNL     1      19.887  -1.065  53.677  1.00  0.00     0.049 A 
HETATM    4  N1  UNL     1      20.661  -1.757  54.468  1.00  0.00    -0.264 NA
HETATM    5  C5  UNL     1      21.989  -1.260  54.435  1.00  0.00     0.126 A 
HETATM    6  C6  UNL     1      22.101  -0.213  53.597  1.00  0.00    -0.017 A 
HETATM    7  C16 UNL     1      20.752  -0.037  53.157  1.00  0.00     0.098 A 
HETATM    8  C17 UNL     1      20.362   0.457  51.866  1.00  0.00     0.028 C 
HETATM    9  C18 UNL     1      19.106   0.143  51.482  1.00  0.00     0.098 C 
ENDROOT
BRANCH   6  10
HETATM   10  C7  UNL     1      23.398   0.409  53.439  1.00  0.00    -0.027 A 
HETATM   11  C8  UNL     1      23.530   1.706  52.990  1.00  0.00     0.012 A 
HETATM   12  C9  UNL     1      24.759   2.322  52.826  1.00  0.00     0.008 A 
HETATM   13  C10 UNL     1      25.897   1.603  53.126  1.00  0.00    -0.050 A 
HETATM   14  C11 UNL     1      25.843   0.288  53.585  1.00  0.00    -0.018 A 
HETATM   15  C15 UNL     1      27.321   2.053  53.028  1.00  0.00     0.041 C 
HETATM   16  C12 UNL     1      24.572  -0.253  53.721  1.00  0.00     0.022 A 
HETATM   17  C13 UNL     1      27.216  -0.224  53.823  1.00  0.00     0.251 C 
HETATM   18  C14 UNL     1      28.072   0.741  53.040  1.00  0.00     0.045 C 
BRANCH  17  19
HETATM   19  N2  UNL     1      27.361  -1.577  53.314  1.00  0.00     0.087 N 
HETATM   20  H10 UNL     1      26.786  -2.203  53.908  1.00  0.00     0.313 HD
HETATM   21  H11 UNL     1      27.076  -1.566  52.309  1.00  0.00     0.313 HD
ENDBRANCH  17  19
ENDBRANCH   6  10
BRANCH   9  22
HETATM   22  O2  UNL     1      18.603   0.616  50.254  1.00  0.00    -0.353 OA
HETATM   23  C19 UNL     1      19.428   1.596  49.640  1.00  0.00     0.210 C 
ENDBRANCH   9  22
BRANCH   1  24
HETATM   24  O1  UNL     1      16.841  -0.826  51.793  1.00  0.00    -0.353 OA
HETATM   25  C1  UNL     1      15.735  -0.319  52.506  1.00  0.00     0.210 C 
ENDBRANCH   1  24
TORSDOF 4
ENDMDL
MODEL 6
REMARK VINA RESULT:      -7.8      4.232      7.509
REMARK  4 active torsions:
REMARK  status: ('A' for Active; 'I' for Inactive)
REMARK    1  A    between atoms: O1_2  and  C2_3 
REMARK    2  A    between atoms: C6_8  and  C7_9 
REMARK    3  A    between atoms: C13_15  and  N2_16 
REMARK    4  A    between atoms: C18_21  and  O2_22 
ROOT
HETATM    1  C2  UNL     1      25.679   0.453  53.994  1.00  0.00     0.103 C 
HETATM    2  C3  UNL     1      25.306  -0.603  54.746  1.00  0.00     0.067 C 
HETATM    3  C4  UNL     1      23.881  -0.804  54.577  1.00  0.00     0.049 A 
HETATM    4  N1  UNL     1      23.076  -1.448  55.378  1.00  0.00    -0.264 NA
HETATM    5  C5  UNL     1      21.744  -1.409  54.894  1.00  0.00     0.126 A 
HETATM    6  C6  UNL     1      21.660  -0.716  53.743  1.00  0.00    -0.017 A 
HETATM    7  C16 UNL     1      23.028  -0.382  53.496  1.00  0.00     0.098 A 
HETATM    8  C17 UNL     1      23.479   0.807  52.826  1.00  0.00     0.028 C 
HETATM    9  C18 UNL     1      24.759   1.159  53.073  1.00  0.00     0.098 C 
ENDROOT
BRANCH   6  10
HETATM   10  C7  UNL     1      20.363  -0.573  53.118  1.00  0.00    -0.027 A 
HETATM   11  C8  UNL     1      19.269  -1.295  53.543  1.00  0.00     0.012 A 
HETATM   12  C9  UNL     1      18.019  -1.180  52.959  1.00  0.00     0.008 A 
HETATM   13  C10 UNL     1      17.868  -0.304  51.905  1.00  0.00    -0.050 A 
HETATM   14  C11 UNL     1      18.928   0.460  51.419  1.00  0.00    -0.018 A 
HETATM   15  C15 UNL     1      16.626  -0.013  51.122  1.00  0.00     0.041 C 
HETATM   16  C12 UNL     1      20.145   0.284  52.062  1.00  0.00     0.022 A 
HETATM   17  C13 UNL     1      18.469   1.306  50.289  1.00  0.00     0.251 C 
HETATM   18  C14 UNL     1      17.180   0.639  49.875  1.00  0.00     0.045 C 
BRANCH  17  19
HETATM   19  N2  UNL     1      19.433   1.291  49.202  1.00  0.00     0.087 N 
HETATM   20  H10 UNL     1      19.263   0.436  48.641  1.00  0.00     0.313 HD
HETATM   21  H11 UNL     1      19.316   2.181  48.668  1.00  0.00     0.313 HD
ENDBRANCH  17  19
ENDBRANCH   6  10
BRANCH   9  22
HETATM   22  O2  UNL     1      25.320   2.281  52.431  1.00  0.00    -0.353 OA
HETATM   23  C19 UNL     1      24.870   2.457  51.095  1.00  0.00     0.210 C 
ENDBRANCH   9  22
BRANCH   1  24
HETATM   24  O1  UNL     1      27.020   0.856  54.054  1.00  0.00    -0.353 OA
HETATM   25  C1  UNL     1      27.983   0.160  54.815  1.00  0.00     0.210 C 
ENDBRANCH   1  24
TORSDOF 4
ENDMDL
MODEL 7
REMARK VINA RESULT:      -7.8      3.237      7.721
REMARK  4 active torsions:
REMARK  status: ('A' for Active; 'I' for Inactive)
REMARK    1  A    between atoms: O1_2  and  C2_3 
REMARK    2  A    between atoms: C6_8  and  C7_9 
REMARK    3  A    between atoms: C13_15  and  N2_16 
REMARK    4  A    between atoms: C18_21  and  O2_22 
ROOT
HETATM    1  C2  UNL     1      25.223   6.118  49.830  1.00  0.00     0.103 C 
HETATM    2  C3  UNL     1      26.168   5.242  49.432  1.00  0.00     0.067 C 
HETATM    3  C4  UNL     1      26.002   4.016  50.187  1.00  0.00     0.049 A 
HETATM    4  N1  UNL     1      26.896   3.085  50.383  1.00  0.00    -0.264 NA
HETATM    5  C5  UNL     1      26.374   2.047  51.197  1.00  0.00     0.126 A 
HETATM    6  C6  UNL     1      25.102   2.299  51.556  1.00  0.00    -0.017 A 
HETATM    7  C16 UNL     1      24.831   3.519  50.863  1.00  0.00     0.098 A 
HETATM    8  C17 UNL     1      23.940   4.549  51.321  1.00  0.00     0.028 C 
HETATM    9  C18 UNL     1      24.147   5.772  50.786  1.00  0.00     0.098 C 
ENDROOT
BRANCH   6  10
HETATM   10  C7  UNL     1      24.422   1.339  52.399  1.00  0.00    -0.027 A 
HETATM   11  C8  UNL     1      25.114   0.404  53.139  1.00  0.00     0.012 A 
HETATM   12  C9  UNL     1      24.487  -0.528  53.948  1.00  0.00     0.008 A 
HETATM   13  C10 UNL     1      23.110  -0.516  54.014  1.00  0.00    -0.050 A 
HETATM   14  C11 UNL     1      22.342   0.400  53.296  1.00  0.00    -0.018 A 
HETATM   15  C15 UNL     1      22.220  -1.415  54.812  1.00  0.00     0.041 C 
HETATM   16  C12 UNL     1      23.050   1.298  52.510  1.00  0.00     0.022 A 
HETATM   17  C13 UNL     1      20.899   0.174  53.564  1.00  0.00     0.251 C 
HETATM   18  C14 UNL     1      20.881  -1.222  54.136  1.00  0.00     0.045 C 
BRANCH  17  19
HETATM   19  N2  UNL     1      20.125   0.242  52.336  1.00  0.00     0.087 N 
HETATM   20  H10 UNL     1      20.467  -0.507  51.706  1.00  0.00     0.313 HD
HETATM   21  H11 UNL     1      19.117   0.151  52.597  1.00  0.00     0.313 HD
ENDBRANCH  17  19
ENDBRANCH   6  10
BRANCH   9  22
HETATM   22  O2  UNL     1      23.301   6.845  51.130  1.00  0.00    -0.353 OA
HETATM   23  C19 UNL     1      21.947   6.649  50.746  1.00  0.00     0.210 C 
ENDBRANCH   9  22
BRANCH   1  24
HETATM   24  O1  UNL     1      25.237   7.398  49.259  1.00  0.00    -0.353 OA
HETATM   25  C1  UNL     1      26.090   8.420  49.725  1.00  0.00     0.210 C 
ENDBRANCH   1  24
TORSDOF 4
ENDMDL
MODEL 8
REMARK VINA RESULT:      -7.7      3.276      7.829
REMARK  4 active torsions:
REMARK  status: ('A' for Active; 'I' for Inactive)
REMARK    1  A    between atoms: O1_2  and  C2_3 
REMARK    2  A    between atoms: C6_8  and  C7_9 
REMARK    3  A    between atoms: C13_15  and  N2_16 
REMARK    4  A    between atoms: C18_21  and  O2_22 
ROOT
HETATM    1  C2  UNL     1      25.570   6.613  49.440  1.00  0.00     0.103 C 
HETATM    2  C3  UNL     1      26.431   5.683  48.980  1.00  0.00     0.067 C 
HETATM    3  C4  UNL     1      26.195   4.447  49.700  1.00  0.00     0.049 A 
HETATM    4  N1  UNL     1      27.019   3.443  49.833  1.00  0.00    -0.264 NA
HETATM    5  C5  UNL     1      26.444   2.420  50.630  1.00  0.00     0.126 A 
HETATM    6  C6  UNL     1      25.207   2.755  51.040  1.00  0.00    -0.017 A 
HETATM    7  C16 UNL     1      25.010   4.017  50.398  1.00  0.00     0.098 A 
HETATM    8  C17 UNL     1      24.217   5.095  50.920  1.00  0.00     0.028 C 
HETATM    9  C18 UNL     1      24.501   6.317  50.420  1.00  0.00     0.098 C 
ENDROOT
BRANCH   6  10
HETATM   10  C7  UNL     1      24.480   1.821  51.873  1.00  0.00    -0.027 A 
HETATM   11  C8  UNL     1      23.104   1.748  51.849  1.00  0.00     0.012 A 
HETATM   12  C9  UNL     1      22.385   0.867  52.639  1.00  0.00     0.008 A 
HETATM   13  C10 UNL     1      23.080   0.029  53.485  1.00  0.00    -0.050 A 
HETATM   14  C11 UNL     1      24.472   0.045  53.564  1.00  0.00    -0.018 A 
HETATM   15  C15 UNL     1      22.526  -0.996  54.424  1.00  0.00     0.041 C 
HETATM   16  C12 UNL     1      25.114   0.958  52.738  1.00  0.00     0.022 A 
HETATM   17  C13 UNL     1      24.937  -0.960  54.553  1.00  0.00     0.251 C 
HETATM   18  C14 UNL     1      23.691  -1.236  55.358  1.00  0.00     0.045 C 
BRANCH  17  19
HETATM   19  N2  UNL     1      25.988  -0.414  55.394  1.00  0.00     0.087 N 
HETATM   20  H10 UNL     1      25.951   0.619  55.317  1.00  0.00     0.313 HD
HETATM   21  H11 UNL     1      25.831  -0.773  56.363  1.00  0.00     0.313 HD
ENDBRANCH  17  19
ENDBRANCH   6  10
BRANCH   9  22
HETATM   22  O2  UNL     1      23.752   7.439  50.828  1.00  0.00    -0.353 OA
HETATM   23  C19 UNL     1      22.347   7.248  50.739  1.00  0.00     0.210 C 
ENDBRANCH   9  22
BRANCH   1  24
HETATM   24  O1  UNL     1      25.666   7.909  48.912  1.00  0.00    -0.353 OA
HETATM   25  C1  UNL     1      26.648   8.265  47.966  1.00  0.00     0.210 C 
ENDBRANCH   1  24
TORSDOF 4
ENDMDL
MODEL 9
REMARK VINA RESULT:      -7.5      3.935      8.062
REMARK  4 active torsions:
REMARK  status: ('A' for Active; 'I' for Inactive)
REMARK    1  A    between atoms: O1_2  and  C2_3 
REMARK    2  A    between atoms: C6_8  and  C7_9 
REMARK    3  A    between atoms: C13_15  and  N2_16 
REMARK    4  A    between atoms: C18_21  and  O2_22 
ROOT
HETATM    1  C2  UNL     1      25.435   3.735  50.509  1.00  0.00     0.103 C 
HETATM    2  C3  UNL     1      26.200   2.749  51.020  1.00  0.00     0.067 C 
HETATM    3  C4  UNL     1      25.338   1.821  51.724  1.00  0.00     0.049 A 
HETATM    4  N1  UNL     1      25.688   0.966  52.647  1.00  0.00    -0.264 NA
HETATM    5  C5  UNL     1      24.561   0.247  53.123  1.00  0.00     0.126 A 
HETATM    6  C6  UNL     1      23.433   0.638  52.503  1.00  0.00    -0.017 A 
HETATM    7  C16 UNL     1      23.924   1.594  51.561  1.00  0.00     0.098 A 
HETATM    8  C17 UNL     1      23.198   2.744  51.096  1.00  0.00     0.028 C 
HETATM    9  C18 UNL     1      23.956   3.736  50.580  1.00  0.00     0.098 C 
ENDROOT
BRANCH   6  10
HETATM   10  C7  UNL     1      22.186   0.007  52.879  1.00  0.00    -0.027 A 
HETATM   11  C8  UNL     1      22.135  -0.988  53.832  1.00  0.00     0.012 A 
HETATM   12  C9  UNL     1      20.957  -1.611  54.206  1.00  0.00     0.008 A 
HETATM   13  C10 UNL     1      19.785  -1.216  53.595  1.00  0.00    -0.050 A 
HETATM   14  C11 UNL     1      19.757  -0.217  52.623  1.00  0.00    -0.018 A 
HETATM   15  C15 UNL     1      18.404  -1.738  53.832  1.00  0.00     0.041 C 
HETATM   16  C12 UNL     1      20.982   0.355  52.309  1.00  0.00     0.022 A 
HETATM   17  C13 UNL     1      18.366  -0.007  52.150  1.00  0.00     0.251 C 
HETATM   18  C14 UNL     1      17.668  -1.268  52.598  1.00  0.00     0.045 C 
BRANCH  17  19
HETATM   19  N2  UNL     1      18.323   0.125  50.704  1.00  0.00     0.087 N 
HETATM   20  H10 UNL     1      19.144   0.687  50.413  1.00  0.00     0.313 HD
HETATM   21  H11 UNL     1      18.304  -0.840  50.303  1.00  0.00     0.313 HD
ENDBRANCH  17  19
ENDBRANCH   6  10
BRANCH   9  22
HETATM   22  O2  UNL     1      23.345   4.889  50.051  1.00  0.00    -0.353 OA
HETATM   23  C19 UNL     1      22.841   5.773  51.043  1.00  0.00     0.210 C 
ENDBRANCH   9  22
BRANCH   1  24
HETATM   24  O1  UNL     1      26.081   4.777  49.829  1.00  0.00    -0.353 OA
HETATM   25  C1  UNL     1      27.166   4.548  48.958  1.00  0.00     0.210 C 
ENDBRANCH   1  24
TORSDOF 4
ENDMDL
