MODEL 1
REMARK VINA RESULT:      -8.0      0.000      0.000
REMARK  7 active torsions:
REMARK  status: ('A' for Active; 'I' for Inactive)
REMARK    1  A    between atoms: C2_2  and  C3_3 
REMARK    2  A    between atoms: C3_3  and  C4_4 
REMARK    3  A    between atoms: C4_4  and  C5_5 
REMARK    4  A    between atoms: C4_4  and  C12_14 
REMARK    5  A    between atoms: C5_5  and  C6_6 
REMARK    6  A    between atoms: C11_12  and  O1_13 
REMARK       I    between atoms: C12_14  and  N1_16 
REMARK    7  A    between atoms: N1_16  and  C13_17 
ROOT
HETATM    1  C4  UNL     1      23.632  -0.312  53.134  1.00  0.00     0.082 C 
ENDROOT
BRANCH   1   2
HETATM    2  C3  UNL     1      22.462  -0.889  53.845  1.00  0.00     0.014 C 
BRANCH   2   3
HETATM    3  C2  UNL     1      21.359   0.039  54.198  1.00  0.00    -0.004 C 
HETATM    4  C1  UNL     1      20.055  -0.173  53.510  1.00  0.00     0.005 C 
ENDBRANCH   2   3
ENDBRANCH   1   2
BRANCH   1   5
HETATM    5  C5  UNL     1      23.453   1.217  53.186  1.00  0.00     0.055 C 
BRANCH   5   6
HETATM    6  C6  UNL     1      23.427   1.770  51.791  1.00  0.00    -0.022 A 
HETATM    7  C7  UNL     1      22.390   1.535  50.900  1.00  0.00     0.010 A 
HETATM    8  C8  UNL     1      22.503   2.105  49.662  1.00  0.00     0.002 A 
HETATM    9  C9  UNL     1      23.580   2.887  49.268  1.00  0.00     0.026 A 
HETATM   10  C10 UNL     1      24.611   3.113  50.174  1.00  0.00     0.067 A 
HETATM   11 CL1  UNL     1      25.957   4.104  49.646  1.00  0.00    -0.081 Cl
HETATM   12  C11 UNL     1      24.504   2.547  51.413  1.00  0.00     0.093 A 
BRANCH  12  13
HETATM   13  O1  UNL     1      25.600   2.839  52.249  1.00  0.00    -0.358 OA
HETATM   14  H14 UNL     1      26.139   2.045  52.539  1.00  0.00     0.217 HD
ENDBRANCH  12  13
ENDBRANCH   5   6
ENDBRANCH   1   5
BRANCH   1  15
HETATM   15  C12 UNL     1      24.941  -0.528  53.852  1.00  0.00     0.226 C 
HETATM   16  O2  UNL     1      25.658  -0.782  54.856  1.00  0.00    -0.273 OA
HETATM   17  N1  UNL     1      25.979  -0.349  52.855  1.00  0.00    -0.327 N 
HETATM   18  H15 UNL     1      26.066  -0.120  51.814  1.00  0.00     0.169 HD
BRANCH  17  19
HETATM   19  C13 UNL     1      27.376  -0.467  53.115  1.00  0.00     0.034 A 
HETATM   20  C14 UNL     1      28.075  -1.652  53.025  1.00  0.00     0.029 A 
HETATM   21  C15 UNL     1      29.427  -1.769  53.276  1.00  0.00     0.002 A 
HETATM   22  C16 UNL     1      30.146  -0.640  53.643  1.00  0.00     0.000 A 
HETATM   23  C17 UNL     1      29.437   0.539  53.729  1.00  0.00     0.002 A 
HETATM   24  C18 UNL     1      28.069   0.673  53.477  1.00  0.00     0.029 A 
ENDBRANCH  17  19
ENDBRANCH   1  15
TORSDOF 7
ENDMDL
MODEL 2
REMARK VINA RESULT:      -7.6      1.536      1.763
REMARK  7 active torsions:
REMARK  status: ('A' for Active; 'I' for Inactive)
REMARK    1  A    between atoms: C2_2  and  C3_3 
REMARK    2  A    between atoms: C3_3  and  C4_4 
REMARK    3  A    between atoms: C4_4  and  C5_5 
REMARK    4  A    between atoms: C4_4  and  C12_14 
REMARK    5  A    between atoms: C5_5  and  C6_6 
REMARK    6  A    between atoms: C11_12  and  O1_13 
REMARK       I    between atoms: C12_14  and  N1_16 
REMARK    7  A    between atoms: N1_16  and  C13_17 
ROOT
HETATM    1  C4  UNL     1      23.817   0.949  52.735  1.00  0.00     0.082 C 
ENDROOT
BRANCH   1   2
HETATM    2  C3  UNL     1      22.470   0.626  53.274  1.00  0.00     0.014 C 
BRANCH   2   3
HETATM    3  C2  UNL     1      22.033  -0.790  53.203  1.00  0.00    -0.004 C 
HETATM    4  C1  UNL     1      21.762  -1.476  54.497  1.00  0.00     0.005 C 
ENDBRANCH   2   3
ENDBRANCH   1   2
BRANCH   1   5
HETATM    5  C5  UNL     1      24.048   2.443  53.028  1.00  0.00     0.055 C 
BRANCH   5   6
HETATM    6  C6  UNL     1      23.954   3.228  51.751  1.00  0.00    -0.022 A 
HETATM    7  C7  UNL     1      23.962   2.640  50.496  1.00  0.00     0.010 A 
HETATM    8  C8  UNL     1      23.869   3.482  49.422  1.00  0.00     0.002 A 
HETATM    9  C9  UNL     1      23.771   4.862  49.531  1.00  0.00     0.026 A 
HETATM   10  C10 UNL     1      23.765   5.435  50.798  1.00  0.00     0.067 A 
HETATM   11 CL1  UNL     1      23.640   7.181  50.901  1.00  0.00    -0.081 Cl
HETATM   12  C11 UNL     1      23.856   4.600  51.875  1.00  0.00     0.093 A 
BRANCH  12  13
HETATM   13  O1  UNL     1      23.840   5.284  53.106  1.00  0.00    -0.358 OA
HETATM   14  H14 UNL     1      23.242   6.088  53.141  1.00  0.00     0.217 HD
ENDBRANCH  12  13
ENDBRANCH   5   6
ENDBRANCH   1   5
BRANCH   1  15
HETATM   15  C12 UNL     1      24.942   0.276  53.481  1.00  0.00     0.226 C 
HETATM   16  O2  UNL     1      25.449  -0.351  54.449  1.00  0.00    -0.273 OA
HETATM   17  N1  UNL     1      26.115   0.407  52.639  1.00  0.00    -0.327 N 
HETATM   18  H15 UNL     1      26.386   0.823  51.692  1.00  0.00     0.169 HD
BRANCH  17  19
HETATM   19  C13 UNL     1      27.407  -0.097  52.972  1.00  0.00     0.034 A 
HETATM   20  C14 UNL     1      27.758  -1.428  52.880  1.00  0.00     0.029 A 
HETATM   21  C15 UNL     1      29.007  -1.918  53.202  1.00  0.00     0.002 A 
HETATM   22  C16 UNL     1      29.984  -1.039  53.646  1.00  0.00     0.000 A 
HETATM   23  C17 UNL     1      29.622   0.288  53.732  1.00  0.00     0.002 A 
HETATM   24  C18 UNL     1      28.362   0.799  53.410  1.00  0.00     0.029 A 
ENDBRANCH  17  19
ENDBRANCH   1  15
TORSDOF 7
ENDMDL
MODEL 3
REMARK VINA RESULT:      -7.6      2.448      5.540
REMARK  7 active torsions:
REMARK  status: ('A' for Active; 'I' for Inactive)
REMARK    1  A    between atoms: C2_2  and  C3_3 
REMARK    2  A    between atoms: C3_3  and  C4_4 
REMARK    3  A    between atoms: C4_4  and  C5_5 
REMARK    4  A    between atoms: C4_4  and  C12_14 
REMARK    5  A    between atoms: C5_5  and  C6_6 
REMARK    6  A    between atoms: C11_12  and  O1_13 
REMARK       I    between atoms: C12_14  and  N1_16 
REMARK    7  A    between atoms: N1_16  and  C13_17 
ROOT
HETATM    1  C4  UNL     1      26.003   0.499  52.044  1.00  0.00     0.082 C 
ENDROOT
BRANCH   1   2
HETATM    2  C3  UNL     1      26.972  -0.587  52.340  1.00  0.00     0.014 C 
BRANCH   2   3
HETATM    3  C2  UNL     1      27.866  -0.398  53.510  1.00  0.00    -0.004 C 
HETATM    4  C1  UNL     1      29.191  -1.078  53.461  1.00  0.00     0.005 C 
ENDBRANCH   2   3
ENDBRANCH   1   2
BRANCH   1   5
HETATM    5  C5  UNL     1      25.296   0.815  53.375  1.00  0.00     0.055 C 
BRANCH   5   6
HETATM    6  C6  UNL     1      23.835   0.485  53.262  1.00  0.00    -0.022 A 
HETATM    7  C7  UNL     1      23.328  -0.791  53.456  1.00  0.00     0.010 A 
HETATM    8  C8  UNL     1      21.975  -0.941  53.319  1.00  0.00     0.002 A 
HETATM    9  C9  UNL     1      21.111   0.099  53.005  1.00  0.00     0.026 A 
HETATM   10  C10 UNL     1      21.638   1.372  52.814  1.00  0.00     0.067 A 
HETATM   11 CL1  UNL     1      20.520   2.664  52.417  1.00  0.00    -0.081 Cl
HETATM   12  C11 UNL     1      22.988   1.529  52.949  1.00  0.00     0.093 A 
BRANCH  12  13
HETATM   13  O1  UNL     1      23.412   2.855  52.736  1.00  0.00    -0.358 OA
HETATM   14  H14 UNL     1      24.105   2.972  52.019  1.00  0.00     0.217 HD
ENDBRANCH  12  13
ENDBRANCH   5   6
ENDBRANCH   1   5
BRANCH   1  15
HETATM   15  C12 UNL     1      26.657   1.810  51.685  1.00  0.00     0.226 C 
HETATM   16  O2  UNL     1      27.555   2.689  51.759  1.00  0.00    -0.273 OA
HETATM   17  N1  UNL     1      25.789   2.435  50.705  1.00  0.00    -0.327 N 
HETATM   18  H15 UNL     1      24.870   2.234  50.198  1.00  0.00     0.169 HD
BRANCH  17  19
HETATM   19  C13 UNL     1      26.039   3.700  50.097  1.00  0.00     0.034 A 
HETATM   20  C14 UNL     1      27.069   3.934  49.209  1.00  0.00     0.029 A 
HETATM   21  C15 UNL     1      27.313   5.158  48.619  1.00  0.00     0.002 A 
HETATM   22  C16 UNL     1      26.487   6.230  48.922  1.00  0.00     0.000 A 
HETATM   23  C17 UNL     1      25.461   5.984  49.810  1.00  0.00     0.002 A 
HETATM   24  C18 UNL     1      25.202   4.752  50.414  1.00  0.00     0.029 A 
ENDBRANCH  17  19
ENDBRANCH   1  15
TORSDOF 7
ENDMDL
MODEL 4
REMARK VINA RESULT:      -7.3      2.273      4.349
REMARK  7 active torsions:
REMARK  status: ('A' for Active; 'I' for Inactive)
REMARK    1  A    between atoms: C2_2  and  C3_3 
REMARK    2  A    between atoms: C3_3  and  C4_4 
REMARK    3  A    between atoms: C4_4  and  C5_5 
REMARK    4  A    between atoms: C4_4  and  C12_14 
REMARK    5  A    between atoms: C5_5  and  C6_6 
REMARK    6  A    between atoms: C11_12  and  O1_13 
REMARK       I    between atoms: C12_14  and  N1_16 
REMARK    7  A    between atoms: N1_16  and  C13_17 
ROOT
HETATM    1  C4  UNL     1      24.647   2.702  52.222  1.00  0.00     0.082 C 
ENDROOT
BRANCH   1   2
HETATM    2  C3  UNL     1      24.358   3.974  51.511  1.00  0.00     0.014 C 
BRANCH   2   3
HETATM    3  C2  UNL     1      24.317   3.928  50.028  1.00  0.00    -0.004 C 
HETATM    4  C1  UNL     1      25.449   4.570  49.303  1.00  0.00     0.005 C 
ENDBRANCH   2   3
ENDBRANCH   1   2
BRANCH   1   5
HETATM    5  C5  UNL     1      23.843   1.612  51.489  1.00  0.00     0.055 C 
BRANCH   5   6
HETATM    6  C6  UNL     1      22.662   1.208  52.324  1.00  0.00    -0.022 A 
HETATM    7  C7  UNL     1      21.464   1.906  52.332  1.00  0.00     0.010 A 
HETATM    8  C8  UNL     1      20.475   1.421  53.143  1.00  0.00     0.002 A 
HETATM    9  C9  UNL     1      20.615   0.292  53.938  1.00  0.00     0.026 A 
HETATM   10  C10 UNL     1      21.824  -0.396  53.918  1.00  0.00     0.067 A 
HETATM   11 CL1  UNL     1      21.968  -1.819  54.933  1.00  0.00    -0.081 Cl
HETATM   12  C11 UNL     1      22.815   0.083  53.110  1.00  0.00     0.093 A 
BRANCH  12  13
HETATM   13  O1  UNL     1      23.993  -0.687  53.166  1.00  0.00    -0.358 OA
HETATM   14  H14 UNL     1      23.895  -1.641  52.869  1.00  0.00     0.217 HD
ENDBRANCH  12  13
ENDBRANCH   5   6
ENDBRANCH   1   5
BRANCH   1  15
HETATM   15  C12 UNL     1      26.074   2.236  52.069  1.00  0.00     0.226 C 
HETATM   16  O2  UNL     1      27.221   2.241  51.549  1.00  0.00    -0.273 OA
HETATM   17  N1  UNL     1      26.266   1.200  53.065  1.00  0.00    -0.327 N 
HETATM   18  H15 UNL     1      25.708   0.706  53.832  1.00  0.00     0.169 HD
BRANCH  17  19
HETATM   19  C13 UNL     1      27.485   0.488  53.264  1.00  0.00     0.034 A 
HETATM   20  C14 UNL     1      28.631   1.057  53.777  1.00  0.00     0.029 A 
HETATM   21  C15 UNL     1      29.812   0.370  53.970  1.00  0.00     0.002 A 
HETATM   22  C16 UNL     1      29.873  -0.975  53.634  1.00  0.00     0.000 A 
HETATM   23  C17 UNL     1      28.722  -1.534  53.123  1.00  0.00     0.002 A 
HETATM   24  C18 UNL     1      27.519  -0.851  52.922  1.00  0.00     0.029 A 
ENDBRANCH  17  19
ENDBRANCH   1  15
TORSDOF 7
ENDMDL
MODEL 5
REMARK VINA RESULT:      -7.1      2.555      4.376
REMARK  7 active torsions:
REMARK  status: ('A' for Active; 'I' for Inactive)
REMARK    1  A    between atoms: C2_2  and  C3_3 
REMARK    2  A    between atoms: C3_3  and  C4_4 
REMARK    3  A    between atoms: C4_4  and  C5_5 
REMARK    4  A    between atoms: C4_4  and  C12_14 
REMARK    5  A    between atoms: C5_5  and  C6_6 
REMARK    6  A    between atoms: C11_12  and  O1_13 
REMARK       I    between atoms: C12_14  and  N1_16 
REMARK    7  A    between atoms: N1_16  and  C13_17 
ROOT
HETATM    1  C4  UNL     1      24.260   1.909  52.525  1.00  0.00     0.082 C 
ENDROOT
BRANCH   1   2
HETATM    2  C3  UNL     1      23.850   3.214  51.946  1.00  0.00     0.014 C 
BRANCH   2   3
HETATM    3  C2  UNL     1      23.281   3.199  50.575  1.00  0.00    -0.004 C 
HETATM    4  C1  UNL     1      24.199   3.569  49.462  1.00  0.00     0.005 C 
ENDBRANCH   2   3
ENDBRANCH   1   2
BRANCH   1   5
HETATM    5  C5  UNL     1      23.420   0.838  51.803  1.00  0.00     0.055 C 
BRANCH   5   6
HETATM    6  C6  UNL     1      22.600   0.078  52.806  1.00  0.00    -0.022 A 
HETATM    7  C7  UNL     1      23.142  -0.517  53.935  1.00  0.00     0.010 A 
HETATM    8  C8  UNL     1      22.272  -1.176  54.759  1.00  0.00     0.002 A 
HETATM    9  C9  UNL     1      20.908  -1.273  54.521  1.00  0.00     0.026 A 
HETATM   10  C10 UNL     1      20.381  -0.670  53.384  1.00  0.00     0.067 A 
HETATM   11 CL1  UNL     1      18.655  -0.811  53.112  1.00  0.00    -0.081 Cl
HETATM   12  C11 UNL     1      21.245  -0.010  52.557  1.00  0.00     0.093 A 
BRANCH  12  13
HETATM   13  O1  UNL     1      20.608   0.563  51.438  1.00  0.00    -0.358 OA
HETATM   14  H14 UNL     1      20.686   0.038  50.587  1.00  0.00     0.217 HD
ENDBRANCH  12  13
ENDBRANCH   5   6
ENDBRANCH   1   5
BRANCH   1  15
HETATM   15  C12 UNL     1      25.677   1.517  52.188  1.00  0.00     0.226 C 
HETATM   16  O2  UNL     1      26.709   1.497  51.466  1.00  0.00    -0.273 OA
HETATM   17  N1  UNL     1      26.144   0.709  53.298  1.00  0.00    -0.327 N 
HETATM   18  H15 UNL     1      25.783   0.338  54.233  1.00  0.00     0.169 HD
BRANCH  17  19
HETATM   19  C13 UNL     1      27.445   0.131  53.383  1.00  0.00     0.034 A 
HETATM   20  C14 UNL     1      27.720  -1.186  53.081  1.00  0.00     0.029 A 
HETATM   21  C15 UNL     1      28.978  -1.748  53.163  1.00  0.00     0.002 A 
HETATM   22  C16 UNL     1      30.044  -0.960  53.572  1.00  0.00     0.000 A 
HETATM   23  C17 UNL     1      29.757   0.354  53.871  1.00  0.00     0.002 A 
HETATM   24  C18 UNL     1      28.490   0.937  53.792  1.00  0.00     0.029 A 
ENDBRANCH  17  19
ENDBRANCH   1  15
TORSDOF 7
ENDMDL
MODEL 6
REMARK VINA RESULT:      -7.1      2.392      6.192
REMARK  7 active torsions:
REMARK  status: ('A' for Active; 'I' for Inactive)
REMARK    1  A    between atoms: C2_2  and  C3_3 
REMARK    2  A    between atoms: C3_3  and  C4_4 
REMARK    3  A    between atoms: C4_4  and  C5_5 
REMARK    4  A    between atoms: C4_4  and  C12_14 
REMARK    5  A    between atoms: C5_5  and  C6_6 
REMARK    6  A    between atoms: C11_12  and  O1_13 
REMARK       I    between atoms: C12_14  and  N1_16 
REMARK    7  A    between atoms: N1_16  and  C13_17 
ROOT
HETATM    1  C4  UNL     1      24.417   0.832  53.365  1.00  0.00     0.082 C 
ENDROOT
BRANCH   1   2
HETATM    2  C3  UNL     1      23.942  -0.507  53.796  1.00  0.00     0.014 C 
BRANCH   2   3
HETATM    3  C2  UNL     1      22.645  -0.567  54.516  1.00  0.00    -0.004 C 
HETATM    4  C1  UNL     1      21.623  -1.513  53.985  1.00  0.00     0.005 C 
ENDBRANCH   2   3
ENDBRANCH   1   2
BRANCH   1   5
HETATM    5  C5  UNL     1      25.505   0.578  52.305  1.00  0.00     0.055 C 
BRANCH   5   6
HETATM    6  C6  UNL     1      26.856   0.894  52.881  1.00  0.00    -0.022 A 
HETATM    7  C7  UNL     1      27.261   2.180  53.204  1.00  0.00     0.010 A 
HETATM    8  C8  UNL     1      28.520   2.315  53.721  1.00  0.00     0.002 A 
HETATM    9  C9  UNL     1      29.386   1.251  53.931  1.00  0.00     0.026 A 
HETATM   10  C10 UNL     1      28.963  -0.032  53.602  1.00  0.00     0.067 A 
HETATM   11 CL1  UNL     1      30.080  -1.354  53.879  1.00  0.00    -0.081 Cl
HETATM   12  C11 UNL     1      27.706  -0.174  53.085  1.00  0.00     0.093 A 
BRANCH  12  13
HETATM   13  O1  UNL     1      27.381  -1.512  52.788  1.00  0.00    -0.358 OA
HETATM   14  H14 UNL     1      28.015  -2.198  53.154  1.00  0.00     0.217 HD
ENDBRANCH  12  13
ENDBRANCH   5   6
ENDBRANCH   1   5
BRANCH   1  15
HETATM   15  C12 UNL     1      23.381   1.626  52.608  1.00  0.00     0.226 C 
HETATM   16  O2  UNL     1      22.458   2.476  52.499  1.00  0.00    -0.273 OA
HETATM   17  N1  UNL     1      23.472   1.191  51.228  1.00  0.00    -0.327 N 
HETATM   18  H15 UNL     1      24.038   0.505  50.635  1.00  0.00     0.169 HD
BRANCH  17  19
HETATM   19  C13 UNL     1      22.662   1.695  50.168  1.00  0.00     0.034 A 
HETATM   20  C14 UNL     1      22.993   2.797  49.407  1.00  0.00     0.029 A 
HETATM   21  C15 UNL     1      22.210   3.287  48.381  1.00  0.00     0.002 A 
HETATM   22  C16 UNL     1      21.015   2.650  48.081  1.00  0.00     0.000 A 
HETATM   23  C17 UNL     1      20.695   1.550  48.848  1.00  0.00     0.002 A 
HETATM   24  C18 UNL     1      21.477   1.042  49.888  1.00  0.00     0.029 A 
ENDBRANCH  17  19
ENDBRANCH   1  15
TORSDOF 7
ENDMDL
MODEL 7
REMARK VINA RESULT:      -7.0      2.313      5.936
REMARK  7 active torsions:
REMARK  status: ('A' for Active; 'I' for Inactive)
REMARK    1  A    between atoms: C2_2  and  C3_3 
REMARK    2  A    between atoms: C3_3  and  C4_4 
REMARK    3  A    between atoms: C4_4  and  C5_5 
REMARK    4  A    between atoms: C4_4  and  C12_14 
REMARK    5  A    between atoms: C5_5  and  C6_6 
REMARK    6  A    between atoms: C11_12  and  O1_13 
REMARK       I    between atoms: C12_14  and  N1_16 
REMARK    7  A    between atoms: N1_16  and  C13_17 
ROOT
HETATM    1  C4  UNL     1      24.518   0.759  53.201  1.00  0.00     0.082 C 
ENDROOT
BRANCH   1   2
HETATM    2  C3  UNL     1      23.876  -0.568  53.382  1.00  0.00     0.014 C 
BRANCH   2   3
HETATM    3  C2  UNL     1      22.808  -0.670  54.408  1.00  0.00    -0.004 C 
HETATM    4  C1  UNL     1      21.499  -1.224  53.963  1.00  0.00     0.005 C 
ENDBRANCH   2   3
ENDBRANCH   1   2
BRANCH   1   5
HETATM    5  C5  UNL     1      25.578   0.575  52.099  1.00  0.00     0.055 C 
BRANCH   5   6
HETATM    6  C6  UNL     1      26.892   0.198  52.719  1.00  0.00    -0.022 A 
HETATM    7  C7  UNL     1      27.374  -1.101  52.745  1.00  0.00     0.010 A 
HETATM    8  C8  UNL     1      28.589  -1.294  53.345  1.00  0.00     0.002 A 
HETATM    9  C9  UNL     1      29.338  -0.273  53.914  1.00  0.00     0.026 A 
HETATM   10  C10 UNL     1      28.839   1.024  53.878  1.00  0.00     0.067 A 
HETATM   11 CL1  UNL     1      29.810   2.290  54.605  1.00  0.00    -0.081 Cl
HETATM   12  C11 UNL     1      27.628   1.224  53.280  1.00  0.00     0.093 A 
BRANCH  12  13
HETATM   13  O1  UNL     1      27.218   2.571  53.300  1.00  0.00    -0.358 OA
HETATM   14  H14 UNL     1      26.937   2.946  52.413  1.00  0.00     0.217 HD
ENDBRANCH  12  13
ENDBRANCH   5   6
ENDBRANCH   1   5
BRANCH   1  15
HETATM   15  C12 UNL     1      23.596   1.802  52.619  1.00  0.00     0.226 C 
HETATM   16  O2  UNL     1      22.478   2.344  52.418  1.00  0.00    -0.273 OA
HETATM   17  N1  UNL     1      24.440   2.701  51.856  1.00  0.00    -0.327 N 
HETATM   18  H15 UNL     1      25.473   2.822  51.608  1.00  0.00     0.169 HD
BRANCH  17  19
HETATM   19  C13 UNL     1      23.965   3.838  51.138  1.00  0.00     0.034 A 
HETATM   20  C14 UNL     1      23.664   5.047  51.729  1.00  0.00     0.029 A 
HETATM   21  C15 UNL     1      23.203   6.149  51.036  1.00  0.00     0.002 A 
HETATM   22  C16 UNL     1      23.026   6.057  49.663  1.00  0.00     0.000 A 
HETATM   23  C17 UNL     1      23.331   4.844  49.084  1.00  0.00     0.002 A 
HETATM   24  C18 UNL     1      23.798   3.721  49.771  1.00  0.00     0.029 A 
ENDBRANCH  17  19
ENDBRANCH   1  15
TORSDOF 7
ENDMDL
MODEL 8
REMARK VINA RESULT:      -6.9      2.650      5.946
REMARK  7 active torsions:
REMARK  status: ('A' for Active; 'I' for Inactive)
REMARK    1  A    between atoms: C2_2  and  C3_3 
REMARK    2  A    between atoms: C3_3  and  C4_4 
REMARK    3  A    between atoms: C4_4  and  C5_5 
REMARK    4  A    between atoms: C4_4  and  C12_14 
REMARK    5  A    between atoms: C5_5  and  C6_6 
REMARK    6  A    between atoms: C11_12  and  O1_13 
REMARK       I    between atoms: C12_14  and  N1_16 
REMARK    7  A    between atoms: N1_16  and  C13_17 
ROOT
HETATM    1  C4  UNL     1      23.490   2.277  52.113  1.00  0.00     0.082 C 
ENDROOT
BRANCH   1   2
HETATM    2  C3  UNL     1      22.273   1.687  51.499  1.00  0.00     0.014 C 
BRANCH   2   3
HETATM    3  C2  UNL     1      21.858   0.343  51.973  1.00  0.00    -0.004 C 
HETATM    4  C1  UNL     1      21.628   0.187  53.436  1.00  0.00     0.005 C 
ENDBRANCH   2   3
ENDBRANCH   1   2
BRANCH   1   5
HETATM    5  C5  UNL     1      24.684   1.499  51.527  1.00  0.00     0.055 C 
BRANCH   5   6
HETATM    6  C6  UNL     1      25.609   1.084  52.634  1.00  0.00    -0.022 A 
HETATM    7  C7  UNL     1      25.328   0.047  53.509  1.00  0.00     0.010 A 
HETATM    8  C8  UNL     1      26.266  -0.218  54.470  1.00  0.00     0.002 A 
HETATM    9  C9  UNL     1      27.454   0.487  54.602  1.00  0.00     0.026 A 
HETATM   10  C10 UNL     1      27.719   1.525  53.715  1.00  0.00     0.067 A 
HETATM   11 CL1  UNL     1      29.229   2.396  53.910  1.00  0.00    -0.081 Cl
HETATM   12  C11 UNL     1      26.787   1.794  52.754  1.00  0.00     0.093 A 
BRANCH  12  13
HETATM   13  O1  UNL     1      27.157   2.861  51.912  1.00  0.00    -0.358 OA
HETATM   14  H14 UNL     1      28.129   2.896  51.667  1.00  0.00     0.217 HD
ENDBRANCH  12  13
ENDBRANCH   5   6
ENDBRANCH   1   5
BRANCH   1  15
HETATM   15  C12 UNL     1      23.759   3.696  51.677  1.00  0.00     0.226 C 
HETATM   16  O2  UNL     1      23.756   4.947  51.818  1.00  0.00    -0.273 OA
HETATM   17  N1  UNL     1      24.356   3.604  50.359  1.00  0.00    -0.327 N 
HETATM   18  H15 UNL     1      24.642   2.853  49.654  1.00  0.00     0.169 HD
BRANCH  17  19
HETATM   19  C13 UNL     1      24.768   4.725  49.581  1.00  0.00     0.034 A 
HETATM   20  C14 UNL     1      26.076   5.151  49.481  1.00  0.00     0.029 A 
HETATM   21  C15 UNL     1      26.477   6.236  48.729  1.00  0.00     0.002 A 
HETATM   22  C16 UNL     1      25.526   6.956  48.022  1.00  0.00     0.000 A 
HETATM   23  C17 UNL     1      24.222   6.522  48.128  1.00  0.00     0.002 A 
HETATM   24  C18 UNL     1      23.801   5.425  48.886  1.00  0.00     0.029 A 
ENDBRANCH  17  19
ENDBRANCH   1  15
TORSDOF 7
ENDMDL
MODEL 9
REMARK VINA RESULT:      -6.9      3.263      6.829
REMARK  7 active torsions:
REMARK  status: ('A' for Active; 'I' for Inactive)
REMARK    1  A    between atoms: C2_2  and  C3_3 
REMARK    2  A    between atoms: C3_3  and  C4_4 
REMARK    3  A    between atoms: C4_4  and  C5_5 
REMARK    4  A    between atoms: C4_4  and  C12_14 
REMARK    5  A    between atoms: C5_5  and  C6_6 
REMARK    6  A    between atoms: C11_12  and  O1_13 
REMARK       I    between atoms: C12_14  and  N1_16 
REMARK    7  A    between atoms: N1_16  and  C13_17 
ROOT
HETATM    1  C4  UNL     1      24.808   2.366  52.664  1.00  0.00     0.082 C 
ENDROOT
BRANCH   1   2
HETATM    2  C3  UNL     1      23.601   1.665  53.173  1.00  0.00     0.014 C 
BRANCH   2   3
HETATM    3  C2  UNL     1      23.507   0.205  52.916  1.00  0.00    -0.004 C 
HETATM    4  C1  UNL     1      22.315  -0.498  53.466  1.00  0.00     0.005 C 
ENDBRANCH   2   3
ENDBRANCH   1   2
BRANCH   1   5
HETATM    5  C5  UNL     1      25.643   1.301  51.929  1.00  0.00     0.055 C 
BRANCH   5   6
HETATM    6  C6  UNL     1      26.961   1.123  52.626  1.00  0.00    -0.022 A 
HETATM    7  C7  UNL     1      27.672   2.174  53.185  1.00  0.00     0.010 A 
HETATM    8  C8  UNL     1      28.860   1.860  53.788  1.00  0.00     0.002 A 
HETATM    9  C9  UNL     1      29.369   0.572  53.864  1.00  0.00     0.026 A 
HETATM   10  C10 UNL     1      28.642  -0.470  53.298  1.00  0.00     0.067 A 
HETATM   11 CL1  UNL     1      29.314  -2.086  53.411  1.00  0.00    -0.081 Cl
HETATM   12  C11 UNL     1      27.456  -0.164  52.694  1.00  0.00     0.093 A 
BRANCH  12  13
HETATM   13  O1  UNL     1      26.804  -1.292  52.157  1.00  0.00    -0.358 OA
HETATM   14  H14 UNL     1      27.246  -1.698  51.353  1.00  0.00     0.217 HD
ENDBRANCH  12  13
ENDBRANCH   5   6
ENDBRANCH   1   5
BRANCH   1  15
HETATM   15  C12 UNL     1      24.510   3.374  51.582  1.00  0.00     0.226 C 
HETATM   16  O2  UNL     1      24.496   3.796  50.396  1.00  0.00    -0.273 OA
HETATM   17  N1  UNL     1      23.891   4.504  52.247  1.00  0.00    -0.327 N 
HETATM   18  H15 UNL     1      23.605   4.802  53.233  1.00  0.00     0.169 HD
BRANCH  17  19
HETATM   19  C13 UNL     1      23.449   5.687  51.584  1.00  0.00     0.034 A 
HETATM   20  C14 UNL     1      24.284   6.726  51.230  1.00  0.00     0.029 A 
HETATM   21  C15 UNL     1      23.858   7.871  50.589  1.00  0.00     0.002 A 
HETATM   22  C16 UNL     1      22.515   8.008  50.272  1.00  0.00     0.000 A 
HETATM   23  C17 UNL     1      21.690   6.963  50.630  1.00  0.00     0.002 A 
HETATM   24  C18 UNL     1      22.106   5.798  51.279  1.00  0.00     0.029 A 
ENDBRANCH  17  19
ENDBRANCH   1  15
TORSDOF 7
ENDMDL
