MODEL 1
REMARK VINA RESULT:     -10.2      0.000      0.000
REMARK  4 active torsions:
REMARK  status: ('A' for Active; 'I' for Inactive)
REMARK    1  A    between atoms: C6_9  and  N3_10 
REMARK    2  A    between atoms: N3_10  and  C7_11 
REMARK    3  A    between atoms: C11_15  and  C12_16 
REMARK    4  A    between atoms: C22_27  and  O2_28 
ROOT
HETATM    1  C1  UNL     1      29.723  -0.703  53.833  1.00  0.00     0.039 C 
HETATM    2  C2  UNL     1      28.276  -0.574  54.002  1.00  0.00     0.007 C 
HETATM    3  C3  UNL     1      27.243   0.217  53.853  1.00  0.00     0.083 C 
HETATM    4  O1  UNL     1      25.898  -0.102  54.175  1.00  0.00    -0.290 OA
HETATM    5  C4  UNL     1      24.792   0.234  53.360  1.00  0.00     0.202 A 
HETATM    6  N1  UNL     1      23.688  -0.398  53.801  1.00  0.00    -0.215 NA
HETATM    7  C5  UNL     1      22.497  -0.211  53.152  1.00  0.00     0.238 A 
HETATM    8  N2  UNL     1      22.478   0.601  52.095  1.00  0.00    -0.222 NA
HETATM    9  C6  UNL     1      23.509   1.270  51.584  1.00  0.00     0.160 A 
HETATM   10  C19 UNL     1      24.687   1.058  52.258  1.00  0.00     0.129 A 
HETATM   11  N4  UNL     1      25.787   1.757  51.688  1.00  0.00    -0.379 N 
HETATM   12  C20 UNL     1      26.998   2.334  52.207  1.00  0.00     0.163 C 
HETATM   13  C21 UNL     1      27.594   1.541  53.296  1.00  0.00     0.018 C 
HETATM   14  C22 UNL     1      28.614   2.162  53.857  1.00  0.00     0.193 C 
HETATM   15  H16 UNL     1      25.657   1.852  50.635  1.00  0.00     0.160 HD
ENDROOT
BRANCH   9  16
HETATM   16  N3  UNL     1      23.427   2.113  50.477  1.00  0.00    -0.339 N 
HETATM   17  H6  UNL     1      23.181   1.927  49.490  1.00  0.00     0.167 HD
BRANCH  16  18
HETATM   18  C7  UNL     1      23.706   3.501  50.468  1.00  0.00     0.034 A 
HETATM   19  C8  UNL     1      22.855   4.355  51.130  1.00  0.00     0.029 A 
HETATM   20  C9  UNL     1      23.035   5.715  51.155  1.00  0.00     0.003 A 
HETATM   21  C10 UNL     1      24.104   6.318  50.506  1.00  0.00     0.012 A 
HETATM   22  C11 UNL     1      24.987   5.508  49.828  1.00  0.00    -0.024 A 
HETATM   23  C18 UNL     1      24.760   4.153  49.835  1.00  0.00     0.041 A 
BRANCH  22  24
HETATM   24  C12 UNL     1      26.159   6.025  49.099  1.00  0.00    -0.026 A 
HETATM   25  C13 UNL     1      26.378   7.277  48.568  1.00  0.00     0.012 A 
HETATM   26  C14 UNL     1      27.564   7.534  47.923  1.00  0.00     0.001 A 
HETATM   27  C15 UNL     1      28.562   6.608  47.771  1.00  0.00     0.000 A 
HETATM   28  C16 UNL     1      28.356   5.340  48.302  1.00  0.00     0.001 A 
HETATM   29  C17 UNL     1      27.162   5.063  48.957  1.00  0.00     0.012 A 
ENDBRANCH  22  24
ENDBRANCH  16  18
ENDBRANCH   9  16
BRANCH  14  30
HETATM   30  O2  UNL     1      29.548   2.017  54.857  1.00  0.00    -0.167 OA
HETATM   31  F1  UNL     1      30.603   2.857  55.028  1.00  0.00    -0.043 F 
ENDBRANCH  14  30
TORSDOF 4
ENDMDL
MODEL 2
REMARK VINA RESULT:      -9.9      3.144      6.960
REMARK  4 active torsions:
REMARK  status: ('A' for Active; 'I' for Inactive)
REMARK    1  A    between atoms: C6_9  and  N3_10 
REMARK    2  A    between atoms: N3_10  and  C7_11 
REMARK    3  A    between atoms: C11_15  and  C12_16 
REMARK    4  A    between atoms: C22_27  and  O2_28 
ROOT
HETATM    1  C1  UNL     1      24.389   7.300  48.223  1.00  0.00     0.039 C 
HETATM    2  C2  UNL     1      23.736   5.992  48.173  1.00  0.00     0.007 C 
HETATM    3  C3  UNL     1      23.660   4.806  48.723  1.00  0.00     0.083 C 
HETATM    4  O1  UNL     1      22.805   3.751  48.311  1.00  0.00    -0.290 OA
HETATM    5  C4  UNL     1      22.089   2.922  49.206  1.00  0.00     0.202 A 
HETATM    6  N1  UNL     1      21.195   2.179  48.527  1.00  0.00    -0.215 NA
HETATM    7  C5  UNL     1      20.391   1.301  49.205  1.00  0.00     0.238 A 
HETATM    8  N2  UNL     1      20.529   1.217  50.528  1.00  0.00    -0.222 NA
HETATM    9  C6  UNL     1      21.380   1.903  51.288  1.00  0.00     0.160 A 
HETATM   10  C19 UNL     1      22.168   2.774  50.576  1.00  0.00     0.129 A 
HETATM   11  N4  UNL     1      23.056   3.521  51.399  1.00  0.00    -0.379 N 
HETATM   12  C20 UNL     1      24.364   4.089  51.222  1.00  0.00     0.163 C 
HETATM   13  C21 UNL     1      24.578   4.632  49.869  1.00  0.00     0.018 C 
HETATM   14  C22 UNL     1      25.829   5.010  49.682  1.00  0.00     0.193 C 
HETATM   15  H16 UNL     1      22.618   3.686  52.357  1.00  0.00     0.160 HD
ENDROOT
BRANCH   9  16
HETATM   16  N3  UNL     1      21.484   1.767  52.671  1.00  0.00    -0.339 N 
HETATM   17  H6  UNL     1      21.093   2.327  53.446  1.00  0.00     0.167 HD
BRANCH  16  18
HETATM   18  C7  UNL     1      22.220   0.768  53.353  1.00  0.00     0.034 A 
HETATM   19  C8  UNL     1      21.557  -0.080  54.209  1.00  0.00     0.029 A 
HETATM   20  C9  UNL     1      22.193  -1.060  54.927  1.00  0.00     0.003 A 
HETATM   21  C10 UNL     1      23.564  -1.258  54.831  1.00  0.00     0.012 A 
HETATM   22  C11 UNL     1      24.276  -0.437  53.987  1.00  0.00    -0.024 A 
HETATM   23  C18 UNL     1      23.589   0.529  53.290  1.00  0.00     0.041 A 
BRANCH  22  24
HETATM   24  C12 UNL     1      25.734  -0.544  53.797  1.00  0.00    -0.026 A 
HETATM   25  C13 UNL     1      26.444  -1.235  52.840  1.00  0.00     0.012 A 
HETATM   26  C14 UNL     1      27.817  -1.187  52.860  1.00  0.00     0.001 A 
HETATM   27  C15 UNL     1      28.540  -0.481  53.785  1.00  0.00     0.000 A 
HETATM   28  C16 UNL     1      27.838   0.221  54.757  1.00  0.00     0.001 A 
HETATM   29  C17 UNL     1      26.448   0.184  54.753  1.00  0.00     0.012 A 
ENDBRANCH  22  24
ENDBRANCH  16  18
ENDBRANCH   9  16
BRANCH  14  30
HETATM   30  O2  UNL     1      26.661   5.550  48.728  1.00  0.00    -0.167 OA
HETATM   31  F1  UNL     1      27.761   4.914  48.244  1.00  0.00    -0.043 F 
ENDBRANCH  14  30
TORSDOF 4
ENDMDL
MODEL 3
REMARK VINA RESULT:      -9.8      1.715      2.214
REMARK  4 active torsions:
REMARK  status: ('A' for Active; 'I' for Inactive)
REMARK    1  A    between atoms: C6_9  and  N3_10 
REMARK    2  A    between atoms: N3_10  and  C7_11 
REMARK    3  A    between atoms: C11_15  and  C12_16 
REMARK    4  A    between atoms: C22_27  and  O2_28 
ROOT
HETATM    1  C1  UNL     1      27.480  -1.533  52.696  1.00  0.00     0.039 C 
HETATM    2  C2  UNL     1      26.062  -1.224  52.877  1.00  0.00     0.007 C 
HETATM    3  C3  UNL     1      25.201  -0.320  53.273  1.00  0.00     0.083 C 
HETATM    4  O1  UNL     1      23.788  -0.459  53.271  1.00  0.00    -0.290 OA
HETATM    5  C4  UNL     1      22.897   0.561  52.866  1.00  0.00     0.202 A 
HETATM    6  N1  UNL     1      21.651   0.062  52.750  1.00  0.00    -0.215 NA
HETATM    7  C5  UNL     1      20.627   0.886  52.366  1.00  0.00     0.238 A 
HETATM    8  N2  UNL     1      20.907   2.165  52.121  1.00  0.00    -0.222 NA
HETATM    9  C6  UNL     1      22.098   2.753  52.208  1.00  0.00     0.160 A 
HETATM   10  C19 UNL     1      23.102   1.899  52.593  1.00  0.00     0.129 A 
HETATM   11  N4  UNL     1      24.375   2.530  52.658  1.00  0.00    -0.379 N 
HETATM   12  C20 UNL     1      25.558   2.344  53.455  1.00  0.00     0.163 C 
HETATM   13  C21 UNL     1      25.838   0.927  53.749  1.00  0.00     0.018 C 
HETATM   14  C22 UNL     1      26.835   0.788  54.603  1.00  0.00     0.193 C 
HETATM   15  H16 UNL     1      24.437   3.309  51.935  1.00  0.00     0.160 HD
ENDROOT
BRANCH   9  16
HETATM   16  N3  UNL     1      22.330   4.101  51.944  1.00  0.00    -0.339 N 
HETATM   17  H6  UNL     1      22.246   4.941  52.541  1.00  0.00     0.167 HD
BRANCH  16  18
HETATM   18  C7  UNL     1      22.738   4.645  50.703  1.00  0.00     0.034 A 
HETATM   19  C8  UNL     1      21.781   4.964  49.768  1.00  0.00     0.029 A 
HETATM   20  C9  UNL     1      22.087   5.474  48.532  1.00  0.00     0.003 A 
HETATM   21  C10 UNL     1      23.400   5.703  48.145  1.00  0.00     0.012 A 
HETATM   22  C11 UNL     1      24.399   5.401  49.043  1.00  0.00    -0.024 A 
HETATM   23  C18 UNL     1      24.037   4.893  50.268  1.00  0.00     0.041 A 
BRANCH  22  24
HETATM   24  C12 UNL     1      25.831   5.596  48.754  1.00  0.00    -0.026 A 
HETATM   25  C13 UNL     1      26.882   4.717  48.899  1.00  0.00     0.012 A 
HETATM   26  C14 UNL     1      28.148   5.125  48.558  1.00  0.00     0.001 A 
HETATM   27  C15 UNL     1      28.441   6.372  48.074  1.00  0.00     0.000 A 
HETATM   28  C16 UNL     1      27.392   7.270  47.922  1.00  0.00     0.001 A 
HETATM   29  C17 UNL     1      26.103   6.875  48.261  1.00  0.00     0.012 A 
ENDBRANCH  22  24
ENDBRANCH  16  18
ENDBRANCH   9  16
BRANCH  14  30
HETATM   30  O2  UNL     1      27.557  -0.174  55.269  1.00  0.00    -0.167 OA
HETATM   31  F1  UNL     1      28.916  -0.181  55.338  1.00  0.00    -0.043 F 
ENDBRANCH  14  30
TORSDOF 4
ENDMDL
MODEL 4
REMARK VINA RESULT:      -9.7      3.861      8.076
REMARK  4 active torsions:
REMARK  status: ('A' for Active; 'I' for Inactive)
REMARK    1  A    between atoms: C6_9  and  N3_10 
REMARK    2  A    between atoms: N3_10  and  C7_11 
REMARK    3  A    between atoms: C11_15  and  C12_16 
REMARK    4  A    between atoms: C22_27  and  O2_28 
ROOT
HETATM    1  C1  UNL     1      29.544   9.653  49.458  1.00  0.00     0.039 C 
HETATM    2  C2  UNL     1      28.169   9.193  49.647  1.00  0.00     0.007 C 
HETATM    3  C3  UNL     1      27.279   8.294  49.305  1.00  0.00     0.083 C 
HETATM    4  O1  UNL     1      25.944   8.221  49.783  1.00  0.00    -0.290 OA
HETATM    5  C4  UNL     1      25.304   7.014  50.148  1.00  0.00     0.202 A 
HETATM    6  N1  UNL     1      24.143   7.283  50.776  1.00  0.00    -0.215 NA
HETATM    7  C5  UNL     1      23.358   6.250  51.217  1.00  0.00     0.238 A 
HETATM    8  N2  UNL     1      23.780   5.005  51.002  1.00  0.00    -0.222 NA
HETATM    9  C6  UNL     1      24.905   4.636  50.393  1.00  0.00     0.160 A 
HETATM   10  C19 UNL     1      25.668   5.695  49.966  1.00  0.00     0.129 A 
HETATM   11  N4  UNL     1      26.879   5.291  49.339  1.00  0.00    -0.379 N 
HETATM   12  C20 UNL     1      27.710   5.833  48.299  1.00  0.00     0.163 C 
HETATM   13  C21 UNL     1      27.791   7.304  48.333  1.00  0.00     0.018 C 
HETATM   14  C22 UNL     1      28.431   7.788  47.285  1.00  0.00     0.193 C 
HETATM   15  H16 UNL     1      27.227   4.379  49.765  1.00  0.00     0.160 HD
ENDROOT
BRANCH   9  16
HETATM   16  N3  UNL     1      25.290   3.312  50.191  1.00  0.00    -0.339 N 
HETATM   17  H6  UNL     1      25.476   2.776  49.328  1.00  0.00     0.167 HD
BRANCH  16  18
HETATM   18  C7  UNL     1      25.503   2.347  51.205  1.00  0.00     0.034 A 
HETATM   19  C8  UNL     1      26.793   2.050  51.582  1.00  0.00     0.029 A 
HETATM   20  C9  UNL     1      27.092   1.113  52.538  1.00  0.00     0.003 A 
HETATM   21  C10 UNL     1      26.098   0.399  53.192  1.00  0.00     0.012 A 
HETATM   22  C11 UNL     1      24.789   0.657  52.853  1.00  0.00    -0.024 A 
HETATM   23  C18 UNL     1      24.544   1.606  51.889  1.00  0.00     0.041 A 
BRANCH  22  24
HETATM   24  C12 UNL     1      23.643  -0.034  53.472  1.00  0.00    -0.026 A 
HETATM   25  C13 UNL     1      23.616  -0.892  54.549  1.00  0.00     0.012 A 
HETATM   26  C14 UNL     1      22.415  -1.420  54.954  1.00  0.00     0.001 A 
HETATM   27  C15 UNL     1      21.218  -1.143  54.346  1.00  0.00     0.000 A 
HETATM   28  C16 UNL     1      21.230  -0.279  53.259  1.00  0.00     0.001 A 
HETATM   29  C17 UNL     1      22.436   0.265  52.834  1.00  0.00     0.012 A 
ENDBRANCH  22  24
ENDBRANCH  16  18
ENDBRANCH   9  16
BRANCH  14  30
HETATM   30  O2  UNL     1      28.829   8.976  46.718  1.00  0.00    -0.167 OA
HETATM   31  F1  UNL     1      27.976   9.999  46.440  1.00  0.00    -0.043 F 
ENDBRANCH  14  30
TORSDOF 4
ENDMDL
MODEL 5
REMARK VINA RESULT:      -9.6      3.575      7.279
REMARK  4 active torsions:
REMARK  status: ('A' for Active; 'I' for Inactive)
REMARK    1  A    between atoms: C6_9  and  N3_10 
REMARK    2  A    between atoms: N3_10  and  C7_11 
REMARK    3  A    between atoms: C11_15  and  C12_16 
REMARK    4  A    between atoms: C22_27  and  O2_28 
ROOT
HETATM    1  C1  UNL     1      27.546   9.221  50.250  1.00  0.00     0.039 C 
HETATM    2  C2  UNL     1      26.225   8.597  50.317  1.00  0.00     0.007 C 
HETATM    3  C3  UNL     1      25.485   7.600  49.901  1.00  0.00     0.083 C 
HETATM    4  O1  UNL     1      24.132   7.362  50.257  1.00  0.00    -0.290 OA
HETATM    5  C4  UNL     1      23.611   6.085  50.568  1.00  0.00     0.202 A 
HETATM    6  N1  UNL     1      22.376   6.207  51.090  1.00  0.00    -0.215 NA
HETATM    7  C5  UNL     1      21.686   5.084  51.462  1.00  0.00     0.238 A 
HETATM    8  N2  UNL     1      22.272   3.900  51.290  1.00  0.00    -0.222 NA
HETATM    9  C6  UNL     1      23.483   3.674  50.785  1.00  0.00     0.160 A 
HETATM   10  C19 UNL     1      24.147   4.820  50.424  1.00  0.00     0.129 A 
HETATM   11  N4  UNL     1      25.449   4.570  49.909  1.00  0.00    -0.379 N 
HETATM   12  C20 UNL     1      26.298   5.217  48.945  1.00  0.00     0.163 C 
HETATM   13  C21 UNL     1      26.196   6.686  48.981  1.00  0.00     0.018 C 
HETATM   14  C22 UNL     1      26.864   7.251  47.993  1.00  0.00     0.193 C 
HETATM   15  H16 UNL     1      25.865   3.703  50.367  1.00  0.00     0.160 HD
ENDROOT
BRANCH   9  16
HETATM   16  N3  UNL     1      24.042   2.408  50.623  1.00  0.00    -0.339 N 
HETATM   17  H6  UNL     1      24.320   1.884  49.776  1.00  0.00     0.167 HD
BRANCH  16  18
HETATM   18  C7  UNL     1      24.350   1.498  51.663  1.00  0.00     0.034 A 
HETATM   19  C8  UNL     1      23.347   1.098  52.516  1.00  0.00     0.029 A 
HETATM   20  C9  UNL     1      23.559   0.239  53.563  1.00  0.00     0.003 A 
HETATM   21  C10 UNL     1      24.816  -0.288  53.828  1.00  0.00     0.012 A 
HETATM   22  C11 UNL     1      25.856   0.080  53.005  1.00  0.00    -0.024 A 
HETATM   23  C18 UNL     1      25.588   0.944  51.969  1.00  0.00     0.041 A 
BRANCH  22  24
HETATM   24  C12 UNL     1      27.236  -0.408  53.180  1.00  0.00    -0.026 A 
HETATM   25  C13 UNL     1      27.767  -1.650  52.911  1.00  0.00     0.012 A 
HETATM   26  C14 UNL     1      29.099  -1.876  53.157  1.00  0.00     0.001 A 
HETATM   27  C15 UNL     1      29.952  -0.929  53.660  1.00  0.00     0.000 A 
HETATM   28  C16 UNL     1      29.430   0.329  53.937  1.00  0.00     0.001 A 
HETATM   29  C17 UNL     1      28.084   0.577  53.695  1.00  0.00     0.012 A 
ENDBRANCH  22  24
ENDBRANCH  16  18
ENDBRANCH   9  16
BRANCH  14  30
HETATM   30  O2  UNL     1      27.164   8.483  47.460  1.00  0.00    -0.167 OA
HETATM   31  F1  UNL     1      26.222   9.367  47.034  1.00  0.00    -0.043 F 
ENDBRANCH  14  30
TORSDOF 4
ENDMDL
MODEL 6
REMARK VINA RESULT:      -9.6      3.920      7.574
REMARK  4 active torsions:
REMARK  status: ('A' for Active; 'I' for Inactive)
REMARK    1  A    between atoms: C6_9  and  N3_10 
REMARK    2  A    between atoms: N3_10  and  C7_11 
REMARK    3  A    between atoms: C11_15  and  C12_16 
REMARK    4  A    between atoms: C22_27  and  O2_28 
ROOT
HETATM    1  C1  UNL     1      31.204   8.970  49.330  1.00  0.00     0.039 C 
HETATM    2  C2  UNL     1      29.774   8.825  49.062  1.00  0.00     0.007 C 
HETATM    3  C3  UNL     1      28.845   8.037  48.582  1.00  0.00     0.083 C 
HETATM    4  O1  UNL     1      27.457   8.330  48.517  1.00  0.00    -0.290 OA
HETATM    5  C4  UNL     1      26.440   7.398  48.829  1.00  0.00     0.202 A 
HETATM    6  N1  UNL     1      25.251   8.025  48.903  1.00  0.00    -0.215 NA
HETATM    7  C5  UNL     1      24.124   7.303  49.195  1.00  0.00     0.238 A 
HETATM    8  N2  UNL     1      24.252   5.992  49.396  1.00  0.00    -0.222 NA
HETATM    9  C6  UNL     1      25.376   5.282  49.344  1.00  0.00     0.160 A 
HETATM   10  C19 UNL     1      26.486   6.036  49.050  1.00  0.00     0.129 A 
HETATM   11  N4  UNL     1      27.686   5.273  49.022  1.00  0.00    -0.379 N 
HETATM   12  C20 UNL     1      28.925   5.360  48.297  1.00  0.00     0.163 C 
HETATM   13  C21 UNL     1      29.370   6.749  48.083  1.00  0.00     0.018 C 
HETATM   14  C22 UNL     1      30.423   6.811  47.289  1.00  0.00     0.193 C 
HETATM   15  H16 UNL     1      27.623   4.463  49.711  1.00  0.00     0.160 HD
ENDROOT
BRANCH   9  16
HETATM   16  N3  UNL     1      25.447   3.907  49.557  1.00  0.00    -0.339 N 
HETATM   17  H6  UNL     1      25.481   3.111  48.898  1.00  0.00     0.167 HD
BRANCH  16  18
HETATM   18  C7  UNL     1      25.466   3.263  50.818  1.00  0.00     0.034 A 
HETATM   19  C8  UNL     1      24.426   3.480  51.692  1.00  0.00     0.029 A 
HETATM   20  C9  UNL     1      24.373   2.916  52.941  1.00  0.00     0.003 A 
HETATM   21  C10 UNL     1      25.380   2.081  53.404  1.00  0.00     0.012 A 
HETATM   22  C11 UNL     1      26.445   1.830  52.570  1.00  0.00    -0.024 A 
HETATM   23  C18 UNL     1      26.448   2.420  51.328  1.00  0.00     0.041 A 
BRANCH  22  24
HETATM   24  C12 UNL     1      27.577   0.963  52.943  1.00  0.00    -0.026 A 
HETATM   25  C13 UNL     1      28.819   1.305  53.430  1.00  0.00     0.012 A 
HETATM   26  C14 UNL     1      29.725   0.312  53.713  1.00  0.00     0.001 A 
HETATM   27  C15 UNL     1      29.468  -1.023  53.542  1.00  0.00     0.000 A 
HETATM   28  C16 UNL     1      28.219  -1.384  53.052  1.00  0.00     0.001 A 
HETATM   29  C17 UNL     1      27.290  -0.392  52.759  1.00  0.00     0.012 A 
ENDBRANCH  22  24
ENDBRANCH  16  18
ENDBRANCH   9  16
BRANCH  14  30
HETATM   30  O2  UNL     1      31.281   7.715  46.705  1.00  0.00    -0.167 OA
HETATM   31  F1  UNL     1      30.873   8.702  45.864  1.00  0.00    -0.043 F 
ENDBRANCH  14  30
TORSDOF 4
ENDMDL
MODEL 7
REMARK VINA RESULT:      -9.4      4.384      8.015
REMARK  4 active torsions:
REMARK  status: ('A' for Active; 'I' for Inactive)
REMARK    1  A    between atoms: C6_9  and  N3_10 
REMARK    2  A    between atoms: N3_10  and  C7_11 
REMARK    3  A    between atoms: C11_15  and  C12_16 
REMARK    4  A    between atoms: C22_27  and  O2_28 
ROOT
HETATM    1  C1  UNL     1      30.551   9.432  49.219  1.00  0.00     0.039 C 
HETATM    2  C2  UNL     1      29.105   9.250  49.341  1.00  0.00     0.007 C 
HETATM    3  C3  UNL     1      28.088   8.488  49.024  1.00  0.00     0.083 C 
HETATM    4  O1  UNL     1      26.735   8.711  49.393  1.00  0.00    -0.290 OA
HETATM    5  C4  UNL     1      25.859   7.691  49.830  1.00  0.00     0.202 A 
HETATM    6  N1  UNL     1      24.732   8.235  50.326  1.00  0.00    -0.215 NA
HETATM    7  C5  UNL     1      23.743   7.420  50.808  1.00  0.00     0.238 A 
HETATM    8  N2  UNL     1      23.938   6.103  50.765  1.00  0.00    -0.222 NA
HETATM    9  C6  UNL     1      25.010   5.469  50.295  1.00  0.00     0.160 A 
HETATM   10  C19 UNL     1      25.982   6.316  49.822  1.00  0.00     0.129 A 
HETATM   11  N4  UNL     1      27.134   5.631  49.346  1.00  0.00    -0.379 N 
HETATM   12  C20 UNL     1      28.115   5.887  48.327  1.00  0.00     0.163 C 
HETATM   13  C21 UNL     1      28.466   7.314  48.209  1.00  0.00     0.018 C 
HETATM   14  C22 UNL     1      29.250   7.545  47.173  1.00  0.00     0.193 C 
HETATM   15  H16 UNL     1      27.279   4.729  49.895  1.00  0.00     0.160 HD
ENDROOT
BRANCH   9  16
HETATM   16  N3  UNL     1      25.155   4.083  50.269  1.00  0.00    -0.339 N 
HETATM   17  H6  UNL     1      25.994   3.482  50.232  1.00  0.00     0.167 HD
BRANCH  16  18
HETATM   18  C7  UNL     1      24.100   3.139  50.267  1.00  0.00     0.034 A 
HETATM   19  C8  UNL     1      23.401   2.925  49.101  1.00  0.00     0.029 A 
HETATM   20  C9  UNL     1      22.351   2.047  49.013  1.00  0.00     0.003 A 
HETATM   21  C10 UNL     1      21.925   1.311  50.111  1.00  0.00     0.012 A 
HETATM   22  C11 UNL     1      22.590   1.487  51.303  1.00  0.00    -0.024 A 
HETATM   23  C18 UNL     1      23.636   2.379  51.336  1.00  0.00     0.041 A 
BRANCH  22  24
HETATM   24  C12 UNL     1      22.235   0.767  52.539  1.00  0.00    -0.026 A 
HETATM   25  C13 UNL     1      21.049   0.761  53.239  1.00  0.00     0.012 A 
HETATM   26  C14 UNL     1      20.948   0.003  54.380  1.00  0.00     0.001 A 
HETATM   27  C15 UNL     1      21.969  -0.764  54.876  1.00  0.00     0.000 A 
HETATM   28  C16 UNL     1      23.172  -0.768  54.181  1.00  0.00     0.001 A 
HETATM   29  C17 UNL     1      23.293  -0.006  53.024  1.00  0.00     0.012 A 
ENDBRANCH  22  24
ENDBRANCH  16  18
ENDBRANCH   9  16
BRANCH  14  30
HETATM   30  O2  UNL     1      29.896   8.567  46.518  1.00  0.00    -0.167 OA
HETATM   31  F1  UNL     1      29.288   9.727  46.149  1.00  0.00    -0.043 F 
ENDBRANCH  14  30
TORSDOF 4
ENDMDL
MODEL 8
REMARK VINA RESULT:      -9.3      3.962      7.420
REMARK  4 active torsions:
REMARK  status: ('A' for Active; 'I' for Inactive)
REMARK    1  A    between atoms: C6_9  and  N3_10 
REMARK    2  A    between atoms: N3_10  and  C7_11 
REMARK    3  A    between atoms: C11_15  and  C12_16 
REMARK    4  A    between atoms: C22_27  and  O2_28 
ROOT
HETATM    1  C1  UNL     1      23.641   7.557  50.700  1.00  0.00     0.039 C 
HETATM    2  C2  UNL     1      22.434   6.730  50.685  1.00  0.00     0.007 C 
HETATM    3  C3  UNL     1      21.919   5.588  50.304  1.00  0.00     0.083 C 
HETATM    4  O1  UNL     1      20.582   5.163  50.525  1.00  0.00    -0.290 OA
HETATM    5  C4  UNL     1      20.227   3.853  50.920  1.00  0.00     0.202 A 
HETATM    6  N1  UNL     1      18.928   3.817  51.275  1.00  0.00    -0.215 NA
HETATM    7  C5  UNL     1      18.374   2.636  51.693  1.00  0.00     0.238 A 
HETATM    8  N2  UNL     1      19.153   1.556  51.731  1.00  0.00    -0.222 NA
HETATM    9  C6  UNL     1      20.441   1.487  51.401  1.00  0.00     0.160 A 
HETATM   10  C19 UNL     1      20.964   2.688  50.988  1.00  0.00     0.129 A 
HETATM   11  N4  UNL     1      22.346   2.610  50.662  1.00  0.00    -0.379 N 
HETATM   12  C20 UNL     1      23.208   3.293  49.736  1.00  0.00     0.163 C 
HETATM   13  C21 UNL     1      22.879   4.721  49.587  1.00  0.00     0.018 C 
HETATM   14  C22 UNL     1      23.579   5.291  48.625  1.00  0.00     0.193 C 
HETATM   15  H16 UNL     1      22.825   1.873  51.265  1.00  0.00     0.160 HD
ENDROOT
BRANCH   9  16
HETATM   16  N3  UNL     1      21.204   0.323  51.455  1.00  0.00    -0.339 N 
HETATM   17  H6  UNL     1      21.394  -0.407  50.748  1.00  0.00     0.167 HD
BRANCH  16  18
HETATM   18  C7  UNL     1      21.916  -0.151  52.584  1.00  0.00     0.034 A 
HETATM   19  C8  UNL     1      21.215  -0.723  53.621  1.00  0.00     0.029 A 
HETATM   20  C9  UNL     1      21.819  -1.188  54.761  1.00  0.00     0.003 A 
HETATM   21  C10 UNL     1      23.194  -1.108  54.939  1.00  0.00     0.012 A 
HETATM   22  C11 UNL     1      23.943  -0.544  53.931  1.00  0.00    -0.024 A 
HETATM   23  C18 UNL     1      23.287  -0.094  52.810  1.00  0.00     0.041 A 
BRANCH  22  24
HETATM   24  C12 UNL     1      25.409  -0.399  53.999  1.00  0.00    -0.026 A 
HETATM   25  C13 UNL     1      26.193   0.109  55.011  1.00  0.00     0.012 A 
HETATM   26  C14 UNL     1      27.556   0.142  54.850  1.00  0.00     0.001 A 
HETATM   27  C15 UNL     1      28.200  -0.307  53.727  1.00  0.00     0.000 A 
HETATM   28  C16 UNL     1      27.423  -0.823  52.698  1.00  0.00     0.001 A 
HETATM   29  C17 UNL     1      26.041  -0.865  52.843  1.00  0.00     0.012 A 
ENDBRANCH  22  24
ENDBRANCH  16  18
ENDBRANCH   9  16
BRANCH  14  30
HETATM   30  O2  UNL     1      23.756   6.499  47.990  1.00  0.00    -0.167 OA
HETATM   31  F1  UNL     1      24.946   6.913  47.480  1.00  0.00    -0.043 F 
ENDBRANCH  14  30
TORSDOF 4
ENDMDL
MODEL 9
REMARK VINA RESULT:      -9.2      1.479      2.155
REMARK  4 active torsions:
REMARK  status: ('A' for Active; 'I' for Inactive)
REMARK    1  A    between atoms: C6_9  and  N3_10 
REMARK    2  A    between atoms: N3_10  and  C7_11 
REMARK    3  A    between atoms: C11_15  and  C12_16 
REMARK    4  A    between atoms: C22_27  and  O2_28 
ROOT
HETATM    1  C1  UNL     1      27.476  -1.919  52.859  1.00  0.00     0.039 C 
HETATM    2  C2  UNL     1      26.290  -1.081  53.024  1.00  0.00     0.007 C 
HETATM    3  C3  UNL     1      25.807   0.132  52.918  1.00  0.00     0.083 C 
HETATM    4  O1  UNL     1      24.475   0.526  53.209  1.00  0.00    -0.290 OA
HETATM    5  C4  UNL     1      23.725   1.418  52.409  1.00  0.00     0.202 A 
HETATM    6  N1  UNL     1      22.437   1.415  52.801  1.00  0.00    -0.215 NA
HETATM    7  C5  UNL     1      21.531   2.215  52.155  1.00  0.00     0.238 A 
HETATM    8  N2  UNL     1      21.968   2.975  51.152  1.00  0.00    -0.222 NA
HETATM    9  C6  UNL     1      23.214   3.051  50.691  1.00  0.00     0.160 A 
HETATM   10  C19 UNL     1      24.095   2.236  51.359  1.00  0.00     0.129 A 
HETATM   11  N4  UNL     1      25.418   2.306  50.844  1.00  0.00    -0.379 N 
HETATM   12  C20 UNL     1      26.734   2.160  51.406  1.00  0.00     0.163 C 
HETATM   13  C21 UNL     1      26.802   1.119  52.448  1.00  0.00     0.018 C 
HETATM   14  C22 UNL     1      27.974   1.106  53.055  1.00  0.00     0.193 C 
HETATM   15  H16 UNL     1      25.395   2.506  49.797  1.00  0.00     0.160 HD
ENDROOT
BRANCH   9  16
HETATM   16  N3  UNL     1      23.614   3.873  49.639  1.00  0.00    -0.339 N 
HETATM   17  H6  UNL     1      23.460   3.805  48.619  1.00  0.00     0.167 HD
BRANCH  16  18
HETATM   18  C7  UNL     1      24.391   5.051  49.755  1.00  0.00     0.034 A 
HETATM   19  C8  UNL     1      23.977   6.039  50.619  1.00  0.00     0.029 A 
HETATM   20  C9  UNL     1      24.655   7.220  50.778  1.00  0.00     0.003 A 
HETATM   21  C10 UNL     1      25.816   7.493  50.067  1.00  0.00     0.012 A 
HETATM   22  C11 UNL     1      26.274   6.538  49.188  1.00  0.00    -0.024 A 
HETATM   23  C18 UNL     1      25.557   5.372  49.068  1.00  0.00     0.041 A 
BRANCH  22  24
HETATM   24  C12 UNL     1      27.492   6.707  48.375  1.00  0.00    -0.026 A 
HETATM   25  C13 UNL     1      28.661   5.980  48.387  1.00  0.00     0.012 A 
HETATM   26  C14 UNL     1      29.674   6.325  47.526  1.00  0.00     0.001 A 
HETATM   27  C15 UNL     1      29.595   7.365  46.637  1.00  0.00     0.000 A 
HETATM   28  C16 UNL     1      28.421   8.108  46.613  1.00  0.00     0.001 A 
HETATM   29  C17 UNL     1      27.386   7.773  47.478  1.00  0.00     0.012 A 
ENDBRANCH  22  24
ENDBRANCH  16  18
ENDBRANCH   9  16
BRANCH  14  30
HETATM   30  O2  UNL     1      28.666   0.456  54.050  1.00  0.00    -0.167 OA
HETATM   31  F1  UNL     1      29.927  -0.029  53.896  1.00  0.00    -0.043 F 
ENDBRANCH  14  30
TORSDOF 4
ENDMDL
