MODEL 1
REMARK VINA RESULT:      -7.6      0.000      0.000
REMARK  3 active torsions:
REMARK  status: ('A' for Active; 'I' for Inactive)
REMARK    1  A    between atoms: C2_2  and  C3_3 
REMARK    2  A    between atoms: C3_3  and  C4_4 
REMARK    3  A    between atoms: C5_5  and  O1_6 
ROOT
HETATM    1  C4  UNL     1      25.503   0.151  53.223  1.00  0.00     0.097 C 
HETATM    2  C5  UNL     1      24.637  -0.593  54.160  1.00  0.00     0.055 C 
HETATM    3  C6  UNL     1      23.324  -0.706  54.157  1.00  0.00     0.064 C 
HETATM    4  C7  UNL     1      22.357  -0.129  53.231  1.00  0.00     0.060 A 
HETATM    5  C8  UNL     1      21.125  -0.611  53.266  1.00  0.00     0.099 A 
HETATM    6 CL1  UNL     1      20.826  -1.883  54.428  1.00  0.00    -0.079 Cl
HETATM    7  C9  UNL     1      20.080  -0.104  52.383  1.00  0.00     0.138 A 
HETATM    8  F1  UNL     1      18.827  -0.616  52.440  1.00  0.00    -0.204 F 
HETATM    9  C10 UNL     1      20.406   0.860  51.538  1.00  0.00     0.042 A 
HETATM   10  C11 UNL     1      21.736   1.501  51.378  1.00  0.00     0.109 A 
HETATM   11  C12 UNL     1      22.153   1.409  49.941  1.00  0.00     0.037 C 
HETATM   12  N1  UNL     1      22.647   0.908  52.300  1.00  0.00    -0.344 N 
HETATM   13  C13 UNL     1      23.824   1.694  51.942  1.00  0.00     0.259 A 
HETATM   14  N2  UNL     1      23.585   3.100  52.027  1.00  0.00    -0.251 NA
HETATM   15  C14 UNL     1      24.374   3.600  52.904  1.00  0.00     0.229 A 
HETATM   16  N3  UNL     1      25.173   2.591  53.451  1.00  0.00    -0.246 NA
HETATM   17  C15 UNL     1      24.889   1.449  52.920  1.00  0.00     0.068 A 
ENDROOT
BRANCH   1  18
HETATM   18  C3  UNL     1      26.840   0.326  53.890  1.00  0.00     0.043 C 
BRANCH  18  19
HETATM   19  C2  UNL     1      27.916  -0.415  53.192  1.00  0.00    -0.036 C 
HETATM   20  C1  UNL     1      29.095  -0.599  53.819  1.00  0.00     0.007 C 
ENDBRANCH  18  19
ENDBRANCH   1  18
BRANCH   2  21
HETATM   21  O1  UNL     1      25.221  -1.290  55.207  1.00  0.00    -0.364 OA
HETATM   22  H7  UNL     1      26.108  -1.734  55.137  1.00  0.00     0.217 HD
ENDBRANCH   2  21
TORSDOF 3
ENDMDL
MODEL 2
REMARK VINA RESULT:      -7.5      2.979      3.931
REMARK  3 active torsions:
REMARK  status: ('A' for Active; 'I' for Inactive)
REMARK    1  A    between atoms: C2_2  and  C3_3 
REMARK    2  A    between atoms: C3_3  and  C4_4 
REMARK    3  A    between atoms: C5_5  and  O1_6 
ROOT
HETATM    1  C4  UNL     1      25.358   3.150  50.403  1.00  0.00     0.097 C 
HETATM    2  C5  UNL     1      26.017   2.535  51.573  1.00  0.00     0.055 C 
HETATM    3  C6  UNL     1      25.531   1.659  52.428  1.00  0.00     0.064 C 
HETATM    4  C7  UNL     1      24.207   1.050  52.462  1.00  0.00     0.060 A 
HETATM    5  C8  UNL     1      24.047  -0.006  53.244  1.00  0.00     0.099 A 
HETATM    6 CL1  UNL     1      25.458  -0.527  54.136  1.00  0.00    -0.079 Cl
HETATM    7  C9  UNL     1      22.763  -0.690  53.352  1.00  0.00     0.138 A 
HETATM    8  F1  UNL     1      22.627  -1.768  54.161  1.00  0.00    -0.204 F 
HETATM    9  C10 UNL     1      21.755  -0.219  52.637  1.00  0.00     0.042 A 
HETATM   10  C11 UNL     1      21.775   0.948  51.718  1.00  0.00     0.109 A 
HETATM   11  C12 UNL     1      21.278   0.517  50.371  1.00  0.00     0.037 C 
HETATM   12  N1  UNL     1      23.085   1.510  51.716  1.00  0.00    -0.344 N 
HETATM   13  C13 UNL     1      22.829   2.593  50.771  1.00  0.00     0.259 A 
HETATM   14  N2  UNL     1      21.733   3.417  51.173  1.00  0.00    -0.251 NA
HETATM   15  C14 UNL     1      22.160   4.611  51.359  1.00  0.00     0.229 A 
HETATM   16  N3  UNL     1      23.534   4.666  51.103  1.00  0.00    -0.246 NA
HETATM   17  C15 UNL     1      23.978   3.505  50.754  1.00  0.00     0.068 A 
ENDROOT
BRANCH   1  18
HETATM   18  C3  UNL     1      26.153   4.371  50.029  1.00  0.00     0.043 C 
BRANCH  18  19
HETATM   19  C2  UNL     1      27.085   4.111  48.907  1.00  0.00    -0.036 C 
HETATM   20  C1  UNL     1      27.958   5.073  48.547  1.00  0.00     0.007 C 
ENDBRANCH  18  19
ENDBRANCH   1  18
BRANCH   2  21
HETATM   21  O1  UNL     1      27.327   2.884  51.867  1.00  0.00    -0.364 OA
HETATM   22  H7  UNL     1      27.567   3.660  52.439  1.00  0.00     0.217 HD
ENDBRANCH   2  21
TORSDOF 3
ENDMDL
MODEL 3
REMARK VINA RESULT:      -6.9      2.843      4.600
REMARK  3 active torsions:
REMARK  status: ('A' for Active; 'I' for Inactive)
REMARK    1  A    between atoms: C2_2  and  C3_3 
REMARK    2  A    between atoms: C3_3  and  C4_4 
REMARK    3  A    between atoms: C5_5  and  O1_6 
ROOT
HETATM    1  C4  UNL     1      23.238   2.274  50.432  1.00  0.00     0.097 C 
HETATM    2  C5  UNL     1      24.386   1.863  51.266  1.00  0.00     0.055 C 
HETATM    3  C6  UNL     1      24.387   1.144  52.371  1.00  0.00     0.064 C 
HETATM    4  C7  UNL     1      23.259   0.553  53.080  1.00  0.00     0.060 A 
HETATM    5  C8  UNL     1      23.534  -0.355  54.002  1.00  0.00     0.099 A 
HETATM    6 CL1  UNL     1      25.227  -0.723  54.244  1.00  0.00    -0.079 Cl
HETATM    7  C9  UNL     1      22.480  -1.008  54.771  1.00  0.00     0.138 A 
HETATM    8  F1  UNL     1      22.790  -1.935  55.709  1.00  0.00    -0.204 F 
HETATM    9  C10 UNL     1      21.229  -0.662  54.514  1.00  0.00     0.042 A 
HETATM   10  C11 UNL     1      20.761   0.334  53.517  1.00  0.00     0.109 A 
HETATM   11  C12 UNL     1      19.757  -0.316  52.612  1.00  0.00     0.037 C 
HETATM   12  N1  UNL     1      21.894   0.885  52.849  1.00  0.00    -0.344 N 
HETATM   13  C13 UNL     1      21.173   1.794  51.963  1.00  0.00     0.259 A 
HETATM   14  N2  UNL     1      20.307   2.677  52.678  1.00  0.00    -0.251 NA
HETATM   15  C14 UNL     1      20.685   3.883  52.473  1.00  0.00     0.229 A 
HETATM   16  N3  UNL     1      21.800   3.891  51.629  1.00  0.00    -0.246 NA
HETATM   17  C15 UNL     1      22.129   2.687  51.300  1.00  0.00     0.068 A 
ENDROOT
BRANCH   1  18
HETATM   18  C3  UNL     1      23.700   3.413  49.564  1.00  0.00     0.043 C 
BRANCH  18  19
HETATM   19  C2  UNL     1      22.905   3.527  48.319  1.00  0.00    -0.036 C 
HETATM   20  C1  UNL     1      22.655   4.751  47.813  1.00  0.00     0.007 C 
ENDBRANCH  18  19
ENDBRANCH   1  18
BRANCH   2  21
HETATM   21  O1  UNL     1      25.663   2.253  50.893  1.00  0.00    -0.364 OA
HETATM   22  H7  UNL     1      26.198   1.775  50.205  1.00  0.00     0.217 HD
ENDBRANCH   2  21
TORSDOF 3
ENDMDL
MODEL 4
REMARK VINA RESULT:      -6.6     10.661     12.302
REMARK  3 active torsions:
REMARK  status: ('A' for Active; 'I' for Inactive)
REMARK    1  A    between atoms: C2_2  and  C3_3 
REMARK    2  A    between atoms: C3_3  and  C4_4 
REMARK    3  A    between atoms: C5_5  and  O1_6 
ROOT
HETATM    1  C4  UNL     1      33.333   4.874  46.182  1.00  0.00     0.097 C 
HETATM    2  C5  UNL     1      32.072   4.311  46.706  1.00  0.00     0.055 C 
HETATM    3  C6  UNL     1      31.141   4.902  47.426  1.00  0.00     0.064 C 
HETATM    4  C7  UNL     1      31.091   6.277  47.908  1.00  0.00     0.060 A 
HETATM    5  C8  UNL     1      29.930   6.715  48.368  1.00  0.00     0.099 A 
HETATM    6 CL1  UNL     1      28.606   5.573  48.333  1.00  0.00    -0.079 Cl
HETATM    7  C9  UNL     1      29.771   8.074  48.875  1.00  0.00     0.138 A 
HETATM    8  F1  UNL     1      28.571   8.495  49.340  1.00  0.00    -0.204 F 
HETATM    9  C10 UNL     1      30.834   8.862  48.859  1.00  0.00     0.042 A 
HETATM   10  C11 UNL     1      32.196   8.521  48.378  1.00  0.00     0.109 A 
HETATM   11  C12 UNL     1      32.620   9.532  47.354  1.00  0.00     0.037 C 
HETATM   12  N1  UNL     1      32.199   7.172  47.917  1.00  0.00    -0.344 N 
HETATM   13  C13 UNL     1      33.601   7.105  47.519  1.00  0.00     0.259 A 
HETATM   14  N2  UNL     1      34.485   7.465  48.583  1.00  0.00    -0.251 NA
HETATM   15  C14 UNL     1      35.233   6.461  48.856  1.00  0.00     0.229 A 
HETATM   16  N3  UNL     1      34.909   5.389  48.017  1.00  0.00    -0.246 NA
HETATM   17  C15 UNL     1      33.955   5.716  47.211  1.00  0.00     0.068 A 
ENDROOT
BRANCH   1  18
HETATM   18  C3  UNL     1      34.224   3.718  45.817  1.00  0.00     0.043 C 
BRANCH  18  19
HETATM   19  C2  UNL     1      35.086   4.020  44.651  1.00  0.00    -0.036 C 
HETATM   20  C1  UNL     1      34.628   4.856  43.698  1.00  0.00     0.007 C 
ENDBRANCH  18  19
ENDBRANCH   1  18
BRANCH   2  21
HETATM   21  O1  UNL     1      31.766   2.984  46.440  1.00  0.00    -0.364 OA
HETATM   22  H7  UNL     1      32.091   2.503  45.633  1.00  0.00     0.217 HD
ENDBRANCH   2  21
TORSDOF 3
ENDMDL
MODEL 5
REMARK VINA RESULT:      -6.6     11.613     13.207
REMARK  3 active torsions:
REMARK  status: ('A' for Active; 'I' for Inactive)
REMARK    1  A    between atoms: C2_2  and  C3_3 
REMARK    2  A    between atoms: C3_3  and  C4_4 
REMARK    3  A    between atoms: C5_5  and  O1_6 
ROOT
HETATM    1  C4  UNL     1      32.163   5.920  47.682  1.00  0.00     0.097 C 
HETATM    2  C5  UNL     1      31.138   6.490  48.580  1.00  0.00     0.055 C 
HETATM    3  C6  UNL     1      30.872   7.756  48.829  1.00  0.00     0.064 C 
HETATM    4  C7  UNL     1      31.512   8.951  48.291  1.00  0.00     0.060 A 
HETATM    5  C8  UNL     1      30.889  10.104  48.473  1.00  0.00     0.099 A 
HETATM    6 CL1  UNL     1      29.372  10.035  49.340  1.00  0.00    -0.079 Cl
HETATM    7  C9  UNL     1      31.443  11.358  47.975  1.00  0.00     0.138 A 
HETATM    8  F1  UNL     1      30.784  12.525  48.175  1.00  0.00    -0.204 F 
HETATM    9  C10 UNL     1      32.597  11.306  47.330  1.00  0.00     0.042 A 
HETATM   10  C11 UNL     1      33.413  10.098  47.047  1.00  0.00     0.109 A 
HETATM   11  C12 UNL     1      33.680  10.024  45.574  1.00  0.00     0.037 C 
HETATM   12  N1  UNL     1      32.751   8.958  47.590  1.00  0.00    -0.344 N 
HETATM   13  C13 UNL     1      33.730   7.954  47.184  1.00  0.00     0.259 A 
HETATM   14  N2  UNL     1      35.047   8.263  47.646  1.00  0.00    -0.251 NA
HETATM   15  C14 UNL     1      35.441   7.328  48.428  1.00  0.00     0.229 A 
HETATM   16  N3  UNL     1      34.441   6.355  48.542  1.00  0.00    -0.246 NA
HETATM   17  C15 UNL     1      33.413   6.676  47.830  1.00  0.00     0.068 A 
ENDROOT
BRANCH   1  18
HETATM   18  C3  UNL     1      32.352   4.480  48.073  1.00  0.00     0.043 C 
BRANCH  18  19
HETATM   19  C2  UNL     1      32.051   3.552  46.958  1.00  0.00    -0.036 C 
HETATM   20  C1  UNL     1      32.717   2.383  46.883  1.00  0.00     0.007 C 
ENDBRANCH  18  19
ENDBRANCH   1  18
BRANCH   2  21
HETATM   21  O1  UNL     1      30.310   5.631  49.286  1.00  0.00    -0.364 OA
HETATM   22  H7  UNL     1      29.591   5.094  48.858  1.00  0.00     0.217 HD
ENDBRANCH   2  21
TORSDOF 3
ENDMDL
MODEL 6
REMARK VINA RESULT:      -6.6      3.230      5.417
REMARK  3 active torsions:
REMARK  status: ('A' for Active; 'I' for Inactive)
REMARK    1  A    between atoms: C2_2  and  C3_3 
REMARK    2  A    between atoms: C3_3  and  C4_4 
REMARK    3  A    between atoms: C5_5  and  O1_6 
ROOT
HETATM    1  C4  UNL     1      21.642   4.531  51.776  1.00  0.00     0.097 C 
HETATM    2  C5  UNL     1      20.612   3.516  52.081  1.00  0.00     0.055 C 
HETATM    3  C6  UNL     1      20.773   2.283  52.517  1.00  0.00     0.064 C 
HETATM    4  C7  UNL     1      22.008   1.573  52.821  1.00  0.00     0.060 A 
HETATM    5  C8  UNL     1      21.904   0.447  53.509  1.00  0.00     0.099 A 
HETATM    6 CL1  UNL     1      20.286  -0.036  53.960  1.00  0.00    -0.079 Cl
HETATM    7  C9  UNL     1      23.079  -0.342  53.866  1.00  0.00     0.138 A 
HETATM    8  F1  UNL     1      22.943  -1.491  54.570  1.00  0.00    -0.204 F 
HETATM    9  C10 UNL     1      24.261   0.108  53.478  1.00  0.00     0.042 A 
HETATM   10  C11 UNL     1      24.541   1.345  52.707  1.00  0.00     0.109 A 
HETATM   11  C12 UNL     1      25.540   2.173  53.458  1.00  0.00     0.037 C 
HETATM   12  N1  UNL     1      23.308   2.006  52.432  1.00  0.00    -0.344 N 
HETATM   13  C13 UNL     1      23.855   3.141  51.695  1.00  0.00     0.259 A 
HETATM   14  N2  UNL     1      24.671   2.732  50.595  1.00  0.00    -0.251 NA
HETATM   15  C14 UNL     1      24.148   3.167  49.509  1.00  0.00     0.229 A 
HETATM   16  N3  UNL     1      22.978   3.877  49.800  1.00  0.00    -0.246 NA
HETATM   17  C15 UNL     1      22.760   3.892  51.072  1.00  0.00     0.068 A 
ENDROOT
BRANCH   1  18
HETATM   18  C3  UNL     1      20.994   5.584  50.919  1.00  0.00     0.043 C 
BRANCH  18  19
HETATM   19  C2  UNL     1      21.689   6.889  51.013  1.00  0.00    -0.036 C 
HETATM   20  C1  UNL     1      21.823   7.640  49.902  1.00  0.00     0.007 C 
ENDBRANCH  18  19
ENDBRANCH   1  18
BRANCH   2  21
HETATM   21  O1  UNL     1      19.275   3.841  51.906  1.00  0.00    -0.364 OA
HETATM   22  H7  UNL     1      18.966   4.749  51.645  1.00  0.00     0.217 HD
ENDBRANCH   2  21
TORSDOF 3
ENDMDL
MODEL 7
REMARK VINA RESULT:      -6.5      2.814      5.843
REMARK  3 active torsions:
REMARK  status: ('A' for Active; 'I' for Inactive)
REMARK    1  A    between atoms: C2_2  and  C3_3 
REMARK    2  A    between atoms: C3_3  and  C4_4 
REMARK    3  A    between atoms: C5_5  and  O1_6 
ROOT
HETATM    1  C4  UNL     1      19.418   1.525  51.721  1.00  0.00     0.097 C 
HETATM    2  C5  UNL     1      19.474   0.270  52.498  1.00  0.00     0.055 C 
HETATM    3  C6  UNL     1      20.528  -0.353  52.983  1.00  0.00     0.064 C 
HETATM    4  C7  UNL     1      21.935   0.018  52.891  1.00  0.00     0.060 A 
HETATM    5  C8  UNL     1      22.779  -0.610  53.694  1.00  0.00     0.099 A 
HETATM    6 CL1  UNL     1      22.085  -1.809  54.760  1.00  0.00    -0.079 Cl
HETATM    7  C9  UNL     1      24.208  -0.315  53.682  1.00  0.00     0.138 A 
HETATM    8  F1  UNL     1      25.050  -0.974  54.514  1.00  0.00    -0.204 F 
HETATM    9  C10 UNL     1      24.636   0.610  52.838  1.00  0.00     0.042 A 
HETATM   10  C11 UNL     1      23.820   1.398  51.881  1.00  0.00     0.109 A 
HETATM   11  C12 UNL     1      24.071   2.858  52.112  1.00  0.00     0.037 C 
HETATM   12  N1  UNL     1      22.455   1.003  52.005  1.00  0.00    -0.344 N 
HETATM   13  C13 UNL     1      21.902   1.898  50.993  1.00  0.00     0.259 A 
HETATM   14  N2  UNL     1      22.544   1.748  49.726  1.00  0.00    -0.251 NA
HETATM   15  C14 UNL     1      21.675   1.364  48.866  1.00  0.00     0.229 A 
HETATM   16  N3  UNL     1      20.426   1.233  49.482  1.00  0.00    -0.246 NA
HETATM   17  C15 UNL     1      20.504   1.535  50.735  1.00  0.00     0.068 A 
ENDROOT
BRANCH   1  18
HETATM   18  C3  UNL     1      18.074   1.577  51.047  1.00  0.00     0.043 C 
BRANCH  18  19
HETATM   19  C2  UNL     1      17.249   2.710  51.526  1.00  0.00    -0.036 C 
HETATM   20  C1  UNL     1      17.548   3.957  51.111  1.00  0.00     0.007 C 
ENDBRANCH  18  19
ENDBRANCH   1  18
BRANCH   2  21
HETATM   21  O1  UNL     1      18.291  -0.393  52.790  1.00  0.00    -0.364 OA
HETATM   22  H7  UNL     1      17.982  -0.569  53.718  1.00  0.00     0.217 HD
ENDBRANCH   2  21
TORSDOF 3
ENDMDL
MODEL 8
REMARK VINA RESULT:      -6.4      3.022      5.604
REMARK  3 active torsions:
REMARK  status: ('A' for Active; 'I' for Inactive)
REMARK    1  A    between atoms: C2_2  and  C3_3 
REMARK    2  A    between atoms: C3_3  and  C4_4 
REMARK    3  A    between atoms: C5_5  and  O1_6 
ROOT
HETATM    1  C4  UNL     1      21.290   0.655  52.379  1.00  0.00     0.097 C 
HETATM    2  C5  UNL     1      22.328  -0.237  52.934  1.00  0.00     0.055 C 
HETATM    3  C6  UNL     1      23.638  -0.115  52.875  1.00  0.00     0.064 C 
HETATM    4  C7  UNL     1      24.433   0.932  52.245  1.00  0.00     0.060 A 
HETATM    5  C8  UNL     1      25.718   0.987  52.559  1.00  0.00     0.099 A 
HETATM    6 CL1  UNL     1      26.288  -0.216  53.693  1.00  0.00    -0.079 Cl
HETATM    7  C9  UNL     1      26.603   1.995  51.986  1.00  0.00     0.138 A 
HETATM    8  F1  UNL     1      27.914   2.028  52.324  1.00  0.00    -0.204 F 
HETATM    9  C10 UNL     1      26.075   2.862  51.136  1.00  0.00     0.042 A 
HETATM   10  C11 UNL     1      24.662   2.931  50.687  1.00  0.00     0.109 A 
HETATM   11  C12 UNL     1      24.138   4.314  50.936  1.00  0.00     0.037 C 
HETATM   12  N1  UNL     1      23.924   1.892  51.325  1.00  0.00    -0.344 N 
HETATM   13  C13 UNL     1      22.624   2.182  50.728  1.00  0.00     0.259 A 
HETATM   14  N2  UNL     1      22.675   2.205  49.300  1.00  0.00    -0.251 NA
HETATM   15  C14 UNL     1      21.905   1.288  48.844  1.00  0.00     0.229 A 
HETATM   16  N3  UNL     1      21.302   0.606  49.907  1.00  0.00    -0.246 NA
HETATM   17  C15 UNL     1      21.692   1.093  51.037  1.00  0.00     0.068 A 
ENDROOT
BRANCH   1  18
HETATM   18  C3  UNL     1      20.005  -0.126  52.332  1.00  0.00     0.043 C 
BRANCH  18  19
HETATM   19  C2  UNL     1      18.841   0.728  51.996  1.00  0.00    -0.036 C 
HETATM   20  C1  UNL     1      17.856   0.219  51.230  1.00  0.00     0.007 C 
ENDBRANCH  18  19
ENDBRANCH   1  18
BRANCH   2  21
HETATM   21  O1  UNL     1      21.937  -1.376  53.624  1.00  0.00    -0.364 OA
HETATM   22  H7  UNL     1      21.199  -1.382  54.289  1.00  0.00     0.217 HD
ENDBRANCH   2  21
TORSDOF 3
ENDMDL
MODEL 9
REMARK VINA RESULT:      -6.2     10.039     11.309
REMARK  3 active torsions:
REMARK  status: ('A' for Active; 'I' for Inactive)
REMARK    1  A    between atoms: C2_2  and  C3_3 
REMARK    2  A    between atoms: C3_3  and  C4_4 
REMARK    3  A    between atoms: C5_5  and  O1_6 
ROOT
HETATM    1  C4  UNL     1      32.584   5.796  46.756  1.00  0.00     0.097 C 
HETATM    2  C5  UNL     1      31.715   5.100  47.727  1.00  0.00     0.055 C 
HETATM    3  C6  UNL     1      30.478   5.386  48.079  1.00  0.00     0.064 C 
HETATM    4  C7  UNL     1      29.619   6.466  47.611  1.00  0.00     0.060 A 
HETATM    5  C8  UNL     1      28.330   6.380  47.899  1.00  0.00     0.099 A 
HETATM    6 CL1  UNL     1      27.833   4.972  48.808  1.00  0.00    -0.079 Cl
HETATM    7  C9  UNL     1      27.383   7.407  47.478  1.00  0.00     0.138 A 
HETATM    8  F1  UNL     1      26.068   7.294  47.787  1.00  0.00    -0.204 F 
HETATM    9  C10 UNL     1      27.857   8.436  46.794  1.00  0.00     0.042 A 
HETATM   10  C11 UNL     1      29.267   8.673  46.394  1.00  0.00     0.109 A 
HETATM   11  C12 UNL     1      29.325   8.887  44.911  1.00  0.00     0.037 C 
HETATM   12  N1  UNL     1      30.069   7.596  46.871  1.00  0.00    -0.344 N 
HETATM   13  C13 UNL     1      31.352   8.068  46.360  1.00  0.00     0.259 A 
HETATM   14  N2  UNL     1      31.657   9.393  46.800  1.00  0.00    -0.251 NA
HETATM   15  C14 UNL     1      32.732   9.360  47.496  1.00  0.00     0.229 A 
HETATM   16  N3  UNL     1      33.207   8.046  47.570  1.00  0.00    -0.246 NA
HETATM   17  C15 UNL     1      32.431   7.246  46.918  1.00  0.00     0.068 A 
ENDROOT
BRANCH   1  18
HETATM   18  C3  UNL     1      33.999   5.366  47.031  1.00  0.00     0.043 C 
BRANCH  18  19
HETATM   19  C2  UNL     1      34.576   4.584  45.913  1.00  0.00    -0.036 C 
HETATM   20  C1  UNL     1      35.042   3.343  46.156  1.00  0.00     0.007 C 
ENDBRANCH  18  19
ENDBRANCH   1  18
BRANCH   2  21
HETATM   21  O1  UNL     1      32.208   3.988  48.394  1.00  0.00    -0.364 OA
HETATM   22  H7  UNL     1      31.624   3.324  48.848  1.00  0.00     0.217 HD
ENDBRANCH   2  21
TORSDOF 3
ENDMDL
