MODEL 1
REMARK VINA RESULT:      -6.8      0.000      0.000
REMARK  8 active torsions:
REMARK  status: ('A' for Active; 'I' for Inactive)
REMARK    1  A    between atoms: O1_2  and  C2_3 
REMARK    2  A    between atoms: C2_3  and  C3_4 
REMARK    3  A    between atoms: C3_4  and  C4_5 
REMARK    4  A    between atoms: C4_5  and  C5_6 
REMARK    5  A    between atoms: C12_16  and  O2_17 
REMARK    6  A    between atoms: O2_17  and  C13_18 
REMARK    7  A    between atoms: C13_18  and  C14_19 
REMARK    8  A    between atoms: C14_19  and  O3_20 
ROOT
HETATM    1  C5  UNL     1      26.244   0.434  52.446  1.00  0.00    -0.022 A 
HETATM    2  C6  UNL     1      26.852   1.243  51.509  1.00  0.00     0.042 A 
HETATM    3  C7  UNL     1      26.176   2.391  51.151  1.00  0.00     0.072 A 
HETATM    4  N1  UNL     1      26.660   3.282  50.236  1.00  0.00    -0.241 NA
HETATM    5  C8  UNL     1      25.929   4.394  49.935  1.00  0.00     0.235 A 
HETATM    6  N2  UNL     1      24.737   4.685  50.490  1.00  0.00    -0.229 NA
HETATM    7  C9  UNL     1      24.200   3.833  51.412  1.00  0.00     0.140 A 
HETATM    8 CL1  UNL     1      22.660   4.161  52.161  1.00  0.00    -0.061 Cl
HETATM    9  C10 UNL     1      24.953   2.714  51.703  1.00  0.00     0.036 A 
HETATM   10  C11 UNL     1      24.367   1.867  52.653  1.00  0.00     0.054 A 
HETATM   11  C12 UNL     1      25.025   0.706  53.031  1.00  0.00     0.076 A 
ENDROOT
BRANCH   1  12
HETATM   12  C4  UNL     1      26.983  -0.809  52.825  1.00  0.00     0.043 C 
BRANCH  12  13
HETATM   13  C3  UNL     1      28.332  -0.462  53.433  1.00  0.00     0.031 C 
BRANCH  13  14
HETATM   14  C2  UNL     1      28.097   0.089  54.808  1.00  0.00     0.167 C 
BRANCH  14  15
HETATM   15  O1  UNL     1      28.989   1.099  55.092  1.00  0.00    -0.396 OA
HETATM   16  C1  UNL     1      29.102   2.050  54.118  1.00  0.00     0.201 C 
ENDBRANCH  14  15
ENDBRANCH  13  14
ENDBRANCH  12  13
ENDBRANCH   1  12
BRANCH  11  17
HETATM   17  O2  UNL     1      24.545  -0.207  53.960  1.00  0.00    -0.348 OA
BRANCH  17  18
HETATM   18  C13 UNL     1      23.229  -0.705  53.819  1.00  0.00     0.201 C 
BRANCH  18  19
HETATM   19  C14 UNL     1      22.816  -1.271  55.159  1.00  0.00     0.193 C 
BRANCH  19  20
HETATM   20  O3  UNL     1      21.558  -1.853  55.094  1.00  0.00    -0.394 OA
HETATM   21  C15 UNL     1      20.810  -1.226  54.080  1.00  0.00     0.201 C 
ENDBRANCH  19  20
ENDBRANCH  18  19
ENDBRANCH  17  18
ENDBRANCH  11  17
TORSDOF 8
ENDMDL
MODEL 2
REMARK VINA RESULT:      -6.6      1.846      4.794
REMARK  8 active torsions:
REMARK  status: ('A' for Active; 'I' for Inactive)
REMARK    1  A    between atoms: O1_2  and  C2_3 
REMARK    2  A    between atoms: C2_3  and  C3_4 
REMARK    3  A    between atoms: C3_4  and  C4_5 
REMARK    4  A    between atoms: C4_5  and  C5_6 
REMARK    5  A    between atoms: C12_16  and  O2_17 
REMARK    6  A    between atoms: O2_17  and  C13_18 
REMARK    7  A    between atoms: C13_18  and  C14_19 
REMARK    8  A    between atoms: C14_19  and  O3_20 
ROOT
HETATM    1  C5  UNL     1      24.977   0.825  52.409  1.00  0.00    -0.022 A 
HETATM    2  C6  UNL     1      23.809   1.367  51.914  1.00  0.00     0.042 A 
HETATM    3  C7  UNL     1      23.941   2.371  50.978  1.00  0.00     0.072 A 
HETATM    4  N1  UNL     1      22.870   2.996  50.405  1.00  0.00    -0.241 NA
HETATM    5  C8  UNL     1      23.085   3.982  49.486  1.00  0.00     0.235 A 
HETATM    6  N2  UNL     1      24.305   4.392  49.093  1.00  0.00    -0.229 NA
HETATM    7  C9  UNL     1      25.416   3.806  49.629  1.00  0.00     0.140 A 
HETATM    8 CL1  UNL     1      27.020   4.298  49.157  1.00  0.00    -0.061 Cl
HETATM    9  C10 UNL     1      25.179   2.811  50.556  1.00  0.00     0.036 A 
HETATM   10  C11 UNL     1      26.343   2.237  51.082  1.00  0.00     0.054 A 
HETATM   11  C12 UNL     1      26.240   1.225  52.025  1.00  0.00     0.076 A 
ENDROOT
BRANCH   1  12
HETATM   12  C4  UNL     1      24.823  -0.260  53.426  1.00  0.00     0.043 C 
BRANCH  12  13
HETATM   13  C3  UNL     1      23.363  -0.422  53.814  1.00  0.00     0.031 C 
BRANCH  13  14
HETATM   14  C2  UNL     1      23.304  -1.178  55.109  1.00  0.00     0.167 C 
BRANCH  14  15
HETATM   15  O1  UNL     1      22.091  -1.812  55.254  1.00  0.00    -0.396 OA
HETATM   16  C1  UNL     1      21.175  -1.517  54.285  1.00  0.00     0.201 C 
ENDBRANCH  14  15
ENDBRANCH  13  14
ENDBRANCH  12  13
ENDBRANCH   1  12
BRANCH  11  17
HETATM   17  O2  UNL     1      27.319   0.581  52.615  1.00  0.00    -0.348 OA
BRANCH  17  18
HETATM   18  C13 UNL     1      28.188   1.320  53.452  1.00  0.00     0.201 C 
BRANCH  18  19
HETATM   19  C14 UNL     1      28.593   0.412  54.592  1.00  0.00     0.193 C 
BRANCH  19  20
HETATM   20  O3  UNL     1      28.657  -0.912  54.183  1.00  0.00    -0.394 OA
HETATM   21  C15 UNL     1      29.959  -1.194  53.728  1.00  0.00     0.201 C 
ENDBRANCH  19  20
ENDBRANCH  18  19
ENDBRANCH  17  18
ENDBRANCH  11  17
TORSDOF 8
ENDMDL
MODEL 3
REMARK VINA RESULT:      -6.4      3.077      5.531
REMARK  8 active torsions:
REMARK  status: ('A' for Active; 'I' for Inactive)
REMARK    1  A    between atoms: O1_2  and  C2_3 
REMARK    2  A    between atoms: C2_3  and  C3_4 
REMARK    3  A    between atoms: C3_4  and  C4_5 
REMARK    4  A    between atoms: C4_5  and  C5_6 
REMARK    5  A    between atoms: C12_16  and  O2_17 
REMARK    6  A    between atoms: O2_17  and  C13_18 
REMARK    7  A    between atoms: C13_18  and  C14_19 
REMARK    8  A    between atoms: C14_19  and  O3_20 
ROOT
HETATM    1  C5  UNL     1      24.351   0.542  52.907  1.00  0.00    -0.022 A 
HETATM    2  C6  UNL     1      25.104  -0.614  52.901  1.00  0.00     0.042 A 
HETATM    3  C7  UNL     1      26.461  -0.470  53.105  1.00  0.00     0.072 A 
HETATM    4  N1  UNL     1      27.324  -1.528  53.124  1.00  0.00    -0.241 NA
HETATM    5  C8  UNL     1      28.654  -1.302  53.331  1.00  0.00     0.235 A 
HETATM    6  N2  UNL     1      29.189  -0.082  53.525  1.00  0.00    -0.229 NA
HETATM    7  C9  UNL     1      28.377   1.017  53.517  1.00  0.00     0.140 A 
HETATM    8 CL1  UNL     1      29.017   2.620  53.762  1.00  0.00    -0.061 Cl
HETATM    9  C10 UNL     1      27.036   0.769  53.306  1.00  0.00     0.036 A 
HETATM   10  C11 UNL     1      26.239   1.920  53.306  1.00  0.00     0.054 A 
HETATM   11  C12 UNL     1      24.871   1.804  53.103  1.00  0.00     0.076 A 
ENDROOT
BRANCH   1  12
HETATM   12  C4  UNL     1      22.883   0.375  52.681  1.00  0.00     0.043 C 
BRANCH  12  13
HETATM   13  C3  UNL     1      22.428  -1.003  53.131  1.00  0.00     0.031 C 
BRANCH  13  14
HETATM   14  C2  UNL     1      21.645  -0.847  54.401  1.00  0.00     0.167 C 
BRANCH  14  15
HETATM   15  O1  UNL     1      22.067  -1.747  55.352  1.00  0.00    -0.396 OA
HETATM   16  C1  UNL     1      23.350  -1.562  55.783  1.00  0.00     0.201 C 
ENDBRANCH  14  15
ENDBRANCH  13  14
ENDBRANCH  12  13
ENDBRANCH   1  12
BRANCH  11  17
HETATM   17  O2  UNL     1      23.983   2.871  53.082  1.00  0.00    -0.348 OA
BRANCH  17  18
HETATM   18  C13 UNL     1      23.987   3.749  51.974  1.00  0.00     0.201 C 
BRANCH  18  19
HETATM   19  C14 UNL     1      23.205   4.980  52.372  1.00  0.00     0.193 C 
BRANCH  19  20
HETATM   20  O3  UNL     1      22.002   5.057  51.684  1.00  0.00    -0.394 OA
HETATM   21  C15 UNL     1      22.198   4.621  50.361  1.00  0.00     0.201 C 
ENDBRANCH  19  20
ENDBRANCH  18  19
ENDBRANCH  17  18
ENDBRANCH  11  17
TORSDOF 8
ENDMDL
MODEL 4
REMARK VINA RESULT:      -6.4      3.066      5.239
REMARK  8 active torsions:
REMARK  status: ('A' for Active; 'I' for Inactive)
REMARK    1  A    between atoms: O1_2  and  C2_3 
REMARK    2  A    between atoms: C2_3  and  C3_4 
REMARK    3  A    between atoms: C3_4  and  C4_5 
REMARK    4  A    between atoms: C4_5  and  C5_6 
REMARK    5  A    between atoms: C12_16  and  O2_17 
REMARK    6  A    between atoms: O2_17  and  C13_18 
REMARK    7  A    between atoms: C13_18  and  C14_19 
REMARK    8  A    between atoms: C14_19  and  O3_20 
ROOT
HETATM    1  C5  UNL     1      25.237   0.448  52.486  1.00  0.00    -0.022 A 
HETATM    2  C6  UNL     1      24.671  -0.491  53.323  1.00  0.00     0.042 A 
HETATM    3  C7  UNL     1      23.335  -0.326  53.625  1.00  0.00     0.072 A 
HETATM    4  N1  UNL     1      22.648  -1.180  54.440  1.00  0.00    -0.241 NA
HETATM    5  C8  UNL     1      21.327  -0.947  54.691  1.00  0.00     0.235 A 
HETATM    6  N2  UNL     1      20.635   0.089  54.180  1.00  0.00    -0.229 NA
HETATM    7  C9  UNL     1      21.266   0.978  53.358  1.00  0.00     0.140 A 
HETATM    8 CL1  UNL     1      20.418   2.337  52.669  1.00  0.00    -0.061 Cl
HETATM    9  C10 UNL     1      22.601   0.726  53.115  1.00  0.00     0.036 A 
HETATM   10  C11 UNL     1      23.211   1.661  52.269  1.00  0.00     0.054 A 
HETATM   11  C12 UNL     1      24.553   1.518  51.948  1.00  0.00     0.076 A 
ENDROOT
BRANCH   1  12
HETATM   12  C4  UNL     1      26.686   0.262  52.168  1.00  0.00     0.043 C 
BRANCH  12  13
HETATM   13  C3  UNL     1      27.364  -0.573  53.241  1.00  0.00     0.031 C 
BRANCH  13  14
HETATM   14  C2  UNL     1      28.105   0.355  54.157  1.00  0.00     0.167 C 
BRANCH  14  15
HETATM   15  O1  UNL     1      29.327  -0.173  54.508  1.00  0.00    -0.396 OA
HETATM   16  C1  UNL     1      29.910  -0.948  53.547  1.00  0.00     0.201 C 
ENDBRANCH  14  15
ENDBRANCH  13  14
ENDBRANCH  12  13
ENDBRANCH   1  12
BRANCH  11  17
HETATM   17  O2  UNL     1      25.263   2.379  51.121  1.00  0.00    -0.348 OA
BRANCH  17  18
HETATM   18  C13 UNL     1      24.748   3.671  50.868  1.00  0.00     0.201 C 
BRANCH  18  19
HETATM   19  C14 UNL     1      25.232   4.087  49.497  1.00  0.00     0.193 C 
BRANCH  19  20
HETATM   20  O3  UNL     1      26.520   3.629  49.257  1.00  0.00    -0.394 OA
HETATM   21  C15 UNL     1      27.325   4.707  48.843  1.00  0.00     0.201 C 
ENDBRANCH  19  20
ENDBRANCH  18  19
ENDBRANCH  17  18
ENDBRANCH  11  17
TORSDOF 8
ENDMDL
MODEL 5
REMARK VINA RESULT:      -6.3      3.386      6.056
REMARK  8 active torsions:
REMARK  status: ('A' for Active; 'I' for Inactive)
REMARK    1  A    between atoms: O1_2  and  C2_3 
REMARK    2  A    between atoms: C2_3  and  C3_4 
REMARK    3  A    between atoms: C3_4  and  C4_5 
REMARK    4  A    between atoms: C4_5  and  C5_6 
REMARK    5  A    between atoms: C12_16  and  O2_17 
REMARK    6  A    between atoms: O2_17  and  C13_18 
REMARK    7  A    between atoms: C13_18  and  C14_19 
REMARK    8  A    between atoms: C14_19  and  O3_20 
ROOT
HETATM    1  C5  UNL     1      23.418   1.477  51.483  1.00  0.00    -0.022 A 
HETATM    2  C6  UNL     1      22.166   0.963  51.750  1.00  0.00     0.042 A 
HETATM    3  C7  UNL     1      22.062   0.123  52.839  1.00  0.00     0.072 A 
HETATM    4  N1  UNL     1      20.884  -0.457  53.218  1.00  0.00    -0.241 NA
HETATM    5  C8  UNL     1      20.865  -1.278  54.308  1.00  0.00     0.235 A 
HETATM    6  N2  UNL     1      21.947  -1.562  55.056  1.00  0.00    -0.229 NA
HETATM    7  C9  UNL     1      23.154  -1.013  54.728  1.00  0.00     0.140 A 
HETATM    8 CL1  UNL     1      24.587  -1.349  55.662  1.00  0.00    -0.061 Cl
HETATM    9  C10 UNL     1      23.155  -0.187  53.623  1.00  0.00     0.036 A 
HETATM   10  C11 UNL     1      24.410   0.356  53.320  1.00  0.00     0.054 A 
HETATM   11  C12 UNL     1      24.544   1.204  52.230  1.00  0.00     0.076 A 
ENDROOT
BRANCH   1  12
HETATM   12  C4  UNL     1      23.521   2.383  50.298  1.00  0.00     0.043 C 
BRANCH  12  13
HETATM   13  C3  UNL     1      23.208   3.816  50.695  1.00  0.00     0.031 C 
BRANCH  13  14
HETATM   14  C2  UNL     1      24.205   4.715  50.026  1.00  0.00     0.167 C 
BRANCH  14  15
HETATM   15  O1  UNL     1      25.153   3.981  49.349  1.00  0.00    -0.396 OA
HETATM   16  C1  UNL     1      26.397   4.543  49.321  1.00  0.00     0.201 C 
ENDBRANCH  14  15
ENDBRANCH  13  14
ENDBRANCH  12  13
ENDBRANCH   1  12
BRANCH  11  17
HETATM   17  O2  UNL     1      25.734   1.800  51.835  1.00  0.00    -0.348 OA
BRANCH  17  18
HETATM   18  C13 UNL     1      26.954   1.129  52.078  1.00  0.00     0.201 C 
BRANCH  18  19
HETATM   19  C14 UNL     1      27.760   1.990  53.025  1.00  0.00     0.193 C 
BRANCH  19  20
HETATM   20  O3  UNL     1      27.558   1.612  54.344  1.00  0.00    -0.394 OA
HETATM   21  C15 UNL     1      28.354   0.487  54.630  1.00  0.00     0.201 C 
ENDBRANCH  19  20
ENDBRANCH  18  19
ENDBRANCH  17  18
ENDBRANCH  11  17
TORSDOF 8
ENDMDL
MODEL 6
REMARK VINA RESULT:      -6.2      3.010      4.770
REMARK  8 active torsions:
REMARK  status: ('A' for Active; 'I' for Inactive)
REMARK    1  A    between atoms: O1_2  and  C2_3 
REMARK    2  A    between atoms: C2_3  and  C3_4 
REMARK    3  A    between atoms: C3_4  and  C4_5 
REMARK    4  A    between atoms: C4_5  and  C5_6 
REMARK    5  A    between atoms: C12_16  and  O2_17 
REMARK    6  A    between atoms: O2_17  and  C13_18 
REMARK    7  A    between atoms: C13_18  and  C14_19 
REMARK    8  A    between atoms: C14_19  and  O3_20 
ROOT
HETATM    1  C5  UNL     1      25.470   2.385  51.205  1.00  0.00    -0.022 A 
HETATM    2  C6  UNL     1      26.801   2.606  51.491  1.00  0.00     0.042 A 
HETATM    3  C7  UNL     1      27.304   1.984  52.614  1.00  0.00     0.072 A 
HETATM    4  N1  UNL     1      28.603   2.115  53.015  1.00  0.00    -0.241 NA
HETATM    5  C8  UNL     1      29.024   1.468  54.141  1.00  0.00     0.235 A 
HETATM    6  N2  UNL     1      28.232   0.689  54.901  1.00  0.00    -0.229 NA
HETATM    7  C9  UNL     1      26.923   0.518  54.553  1.00  0.00     0.140 A 
HETATM    8 CL1  UNL     1      25.854  -0.479  55.502  1.00  0.00    -0.061 Cl
HETATM    9  C10 UNL     1      26.515   1.181  53.413  1.00  0.00     0.036 A 
HETATM   10  C11 UNL     1      25.167   0.980  53.090  1.00  0.00     0.054 A 
HETATM   11  C12 UNL     1      24.635   1.593  51.966  1.00  0.00     0.076 A 
ENDROOT
BRANCH   1  12
HETATM   12  C4  UNL     1      24.933   3.067  49.987  1.00  0.00     0.043 C 
BRANCH  12  13
HETATM   13  C3  UNL     1      25.914   4.114  49.488  1.00  0.00     0.031 C 
BRANCH  13  14
HETATM   14  C2  UNL     1      25.161   5.394  49.271  1.00  0.00     0.167 C 
BRANCH  14  15
HETATM   15  O1  UNL     1      25.437   6.301  50.269  1.00  0.00    -0.396 OA
HETATM   16  C1  UNL     1      24.360   6.653  51.031  1.00  0.00     0.201 C 
ENDBRANCH  14  15
ENDBRANCH  13  14
ENDBRANCH  12  13
ENDBRANCH   1  12
BRANCH  11  17
HETATM   17  O2  UNL     1      23.317   1.468  51.547  1.00  0.00    -0.348 OA
BRANCH  17  18
HETATM   18  C13 UNL     1      22.297   1.334  52.516  1.00  0.00     0.201 C 
BRANCH  18  19
HETATM   19  C14 UNL     1      21.618   0.005  52.273  1.00  0.00     0.193 C 
BRANCH  19  20
HETATM   20  O3  UNL     1      22.243  -1.016  52.976  1.00  0.00    -0.394 OA
HETATM   21  C15 UNL     1      21.522  -1.275  54.156  1.00  0.00     0.201 C 
ENDBRANCH  19  20
ENDBRANCH  18  19
ENDBRANCH  17  18
ENDBRANCH  11  17
TORSDOF 8
ENDMDL
MODEL 7
REMARK VINA RESULT:      -6.2      3.199      5.109
REMARK  8 active torsions:
REMARK  status: ('A' for Active; 'I' for Inactive)
REMARK    1  A    between atoms: O1_2  and  C2_3 
REMARK    2  A    between atoms: C2_3  and  C3_4 
REMARK    3  A    between atoms: C3_4  and  C4_5 
REMARK    4  A    between atoms: C4_5  and  C5_6 
REMARK    5  A    between atoms: C12_16  and  O2_17 
REMARK    6  A    between atoms: O2_17  and  C13_18 
REMARK    7  A    between atoms: C13_18  and  C14_19 
REMARK    8  A    between atoms: C14_19  and  O3_20 
ROOT
HETATM    1  C5  UNL     1      24.873   2.198  53.123  1.00  0.00    -0.022 A 
HETATM    2  C6  UNL     1      26.072   2.428  53.764  1.00  0.00     0.042 A 
HETATM    3  C7  UNL     1      26.958   1.373  53.818  1.00  0.00     0.072 A 
HETATM    4  N1  UNL     1      28.181   1.461  54.422  1.00  0.00    -0.241 NA
HETATM    5  C8  UNL     1      29.000   0.369  54.434  1.00  0.00     0.235 A 
HETATM    6  N2  UNL     1      28.683  -0.816  53.879  1.00  0.00    -0.229 NA
HETATM    7  C9  UNL     1      27.475  -0.967  53.260  1.00  0.00     0.140 A 
HETATM    8 CL1  UNL     1      27.015  -2.479  52.525  1.00  0.00    -0.061 Cl
HETATM    9  C10 UNL     1      26.660   0.147  53.258  1.00  0.00     0.036 A 
HETATM   10  C11 UNL     1      25.432  -0.049  52.615  1.00  0.00     0.054 A 
HETATM   11  C12 UNL     1      24.522   0.996  52.545  1.00  0.00     0.076 A 
ENDROOT
BRANCH   1  12
HETATM   12  C4  UNL     1      23.918   3.347  53.073  1.00  0.00     0.043 C 
BRANCH  12  13
HETATM   13  C3  UNL     1      24.110   4.144  51.793  1.00  0.00     0.031 C 
BRANCH  13  14
HETATM   14  C2  UNL     1      22.816   4.828  51.470  1.00  0.00     0.167 C 
BRANCH  14  15
HETATM   15  O1  UNL     1      22.973   6.196  51.455  1.00  0.00    -0.396 OA
HETATM   16  C1  UNL     1      24.191   6.624  51.011  1.00  0.00     0.201 C 
ENDBRANCH  14  15
ENDBRANCH  13  14
ENDBRANCH  12  13
ENDBRANCH   1  12
BRANCH  11  17
HETATM   17  O2  UNL     1      23.277   0.920  51.935  1.00  0.00    -0.348 OA
BRANCH  17  18
HETATM   18  C13 UNL     1      22.339  -0.030  52.401  1.00  0.00     0.201 C 
BRANCH  18  19
HETATM   19  C14 UNL     1      21.491   0.654  53.450  1.00  0.00     0.193 C 
BRANCH  19  20
HETATM   20  O3  UNL     1      21.539  -0.028  54.658  1.00  0.00    -0.394 OA
HETATM   21  C15 UNL     1      21.457  -1.411  54.413  1.00  0.00     0.201 C 
ENDBRANCH  19  20
ENDBRANCH  18  19
ENDBRANCH  17  18
ENDBRANCH  11  17
TORSDOF 8
ENDMDL
MODEL 8
REMARK VINA RESULT:      -6.1      3.177      5.665
REMARK  8 active torsions:
REMARK  status: ('A' for Active; 'I' for Inactive)
REMARK    1  A    between atoms: O1_2  and  C2_3 
REMARK    2  A    between atoms: C2_3  and  C3_4 
REMARK    3  A    between atoms: C3_4  and  C4_5 
REMARK    4  A    between atoms: C4_5  and  C5_6 
REMARK    5  A    between atoms: C12_16  and  O2_17 
REMARK    6  A    between atoms: O2_17  and  C13_18 
REMARK    7  A    between atoms: C13_18  and  C14_19 
REMARK    8  A    between atoms: C14_19  and  O3_20 
ROOT
HETATM    1  C5  UNL     1      24.431   1.796  51.546  1.00  0.00    -0.022 A 
HETATM    2  C6  UNL     1      23.082   1.760  51.260  1.00  0.00     0.042 A 
HETATM    3  C7  UNL     1      22.294   0.987  52.087  1.00  0.00     0.072 A 
HETATM    4  N1  UNL     1      20.944   0.861  51.920  1.00  0.00    -0.241 NA
HETATM    5  C8  UNL     1      20.235   0.075  52.781  1.00  0.00     0.235 A 
HETATM    6  N2  UNL     1      20.783  -0.600  53.809  1.00  0.00    -0.229 NA
HETATM    7  C9  UNL     1      22.128  -0.515  54.028  1.00  0.00     0.140 A 
HETATM    8 CL1  UNL     1      22.889  -1.369  55.343  1.00  0.00    -0.061 Cl
HETATM    9  C10 UNL     1      22.829   0.284  53.148  1.00  0.00     0.036 A 
HETATM   10  C11 UNL     1      24.204   0.344  53.406  1.00  0.00     0.054 A 
HETATM   11  C12 UNL     1      25.019   1.115  52.591  1.00  0.00     0.076 A 
ENDROOT
BRANCH   1  12
HETATM   12  C4  UNL     1      25.276   2.634  50.641  1.00  0.00     0.043 C 
BRANCH  12  13
HETATM   13  C3  UNL     1      24.706   4.038  50.529  1.00  0.00     0.031 C 
BRANCH  13  14
HETATM   14  C2  UNL     1      25.548   4.808  49.557  1.00  0.00     0.167 C 
BRANCH  14  15
HETATM   15  O1  UNL     1      26.814   4.274  49.472  1.00  0.00    -0.396 OA
HETATM   16  C1  UNL     1      27.657   4.937  48.626  1.00  0.00     0.201 C 
ENDBRANCH  14  15
ENDBRANCH  13  14
ENDBRANCH  12  13
ENDBRANCH   1  12
BRANCH  11  17
HETATM   17  O2  UNL     1      26.392   1.252  52.749  1.00  0.00    -0.348 OA
BRANCH  17  18
HETATM   18  C13 UNL     1      27.178   0.096  52.963  1.00  0.00     0.201 C 
BRANCH  18  19
HETATM   19  C14 UNL     1      27.928   0.297  54.261  1.00  0.00     0.193 C 
BRANCH  19  20
HETATM   20  O3  UNL     1      28.787  -0.763  54.515  1.00  0.00    -0.394 OA
HETATM   21  C15 UNL     1      29.837  -0.743  53.579  1.00  0.00     0.201 C 
ENDBRANCH  19  20
ENDBRANCH  18  19
ENDBRANCH  17  18
ENDBRANCH  11  17
TORSDOF 8
ENDMDL
MODEL 9
REMARK VINA RESULT:      -6.0      2.095      2.946
REMARK  8 active torsions:
REMARK  status: ('A' for Active; 'I' for Inactive)
REMARK    1  A    between atoms: O1_2  and  C2_3 
REMARK    2  A    between atoms: C2_3  and  C3_4 
REMARK    3  A    between atoms: C3_4  and  C4_5 
REMARK    4  A    between atoms: C4_5  and  C5_6 
REMARK    5  A    between atoms: C12_16  and  O2_17 
REMARK    6  A    between atoms: O2_17  and  C13_18 
REMARK    7  A    between atoms: C13_18  and  C14_19 
REMARK    8  A    between atoms: C14_19  and  O3_20 
ROOT
HETATM    1  C5  UNL     1      24.395   2.398  53.107  1.00  0.00    -0.022 A 
HETATM    2  C6  UNL     1      24.101   3.705  52.779  1.00  0.00     0.042 A 
HETATM    3  C7  UNL     1      22.878   3.934  52.183  1.00  0.00     0.072 A 
HETATM    4  N1  UNL     1      22.458   5.178  51.806  1.00  0.00    -0.241 NA
HETATM    5  C8  UNL     1      21.233   5.320  51.220  1.00  0.00     0.235 A 
HETATM    6  N2  UNL     1      20.389   4.298  50.982  1.00  0.00    -0.229 NA
HETATM    7  C9  UNL     1      20.753   3.030  51.336  1.00  0.00     0.140 A 
HETATM    8 CL1  UNL     1      19.699   1.671  51.051  1.00  0.00    -0.061 Cl
HETATM    9  C10 UNL     1      21.994   2.906  51.927  1.00  0.00     0.036 A 
HETATM   10  C11 UNL     1      22.328   1.591  52.274  1.00  0.00     0.054 A 
HETATM   11  C12 UNL     1      23.552   1.333  52.875  1.00  0.00     0.076 A 
ENDROOT
BRANCH   1  12
HETATM   12  C4  UNL     1      25.725   2.161  53.749  1.00  0.00     0.043 C 
BRANCH  12  13
HETATM   13  C3  UNL     1      26.823   2.122  52.700  1.00  0.00     0.031 C 
BRANCH  13  14
HETATM   14  C2  UNL     1      28.129   1.884  53.399  1.00  0.00     0.167 C 
BRANCH  14  15
HETATM   15  O1  UNL     1      27.932   1.259  54.610  1.00  0.00    -0.396 OA
HETATM   16  C1  UNL     1      28.690   0.141  54.804  1.00  0.00     0.201 C 
ENDBRANCH  14  15
ENDBRANCH  13  14
ENDBRANCH  12  13
ENDBRANCH   1  12
BRANCH  11  17
HETATM   17  O2  UNL     1      23.991   0.074  53.263  1.00  0.00    -0.348 OA
BRANCH  17  18
HETATM   18  C13 UNL     1      23.045  -0.964  53.430  1.00  0.00     0.201 C 
BRANCH  18  19
HETATM   19  C14 UNL     1      22.820  -1.131  54.917  1.00  0.00     0.193 C 
BRANCH  19  20
HETATM   20  O3  UNL     1      21.561  -1.652  55.179  1.00  0.00    -0.394 OA
HETATM   21  C15 UNL     1      20.711  -1.381  54.090  1.00  0.00     0.201 C 
ENDBRANCH  19  20
ENDBRANCH  18  19
ENDBRANCH  17  18
ENDBRANCH  11  17
TORSDOF 8
ENDMDL
