MODEL 1
REMARK VINA RESULT:      -7.8      0.000      0.000
REMARK  7 active torsions:
REMARK  status: ('A' for Active; 'I' for Inactive)
REMARK    1  A    between atoms: C2_2  and  C3_3 
REMARK    2  A    between atoms: C3_3  and  C4_4 
REMARK    3  A    between atoms: C4_4  and  N1_5 
REMARK    4  A    between atoms: N1_5  and  C5_6 
REMARK       I    between atoms: N1_5  and  C12_14 
REMARK    5  A    between atoms: C5_6  and  C6_7 
REMARK    6  A    between atoms: C11_12  and  O1_13 
REMARK       I    between atoms: C12_14  and  N2_16 
REMARK    7  A    between atoms: N2_16  and  C13_17 
ROOT
HETATM    1  N1  UNL     1      25.106   1.149  52.721  1.00  0.00    -0.330 N 
HETATM    2  C12 UNL     1      25.787   2.223  52.034  1.00  0.00     0.323 C 
HETATM    3  O2  UNL     1      26.917   2.645  52.460  1.00  0.00    -0.247 OA
HETATM    4  N2  UNL     1      25.348   2.900  50.897  1.00  0.00    -0.309 N 
HETATM    5  H17 UNL     1      24.420   2.568  50.544  1.00  0.00     0.170 HD
ENDROOT
BRANCH   1   6
HETATM    6  C4  UNL     1      23.844   0.742  52.135  1.00  0.00     0.128 C 
BRANCH   6   7
HETATM    7  C3  UNL     1      22.843   0.535  53.250  1.00  0.00     0.020 C 
BRANCH   7   8
HETATM    8  C2  UNL     1      22.579  -0.941  53.497  1.00  0.00    -0.003 C 
HETATM    9  C1  UNL     1      21.912  -1.046  54.850  1.00  0.00     0.005 C 
ENDBRANCH   7   8
ENDBRANCH   6   7
ENDBRANCH   1   6
BRANCH   1  10
HETATM   10  C5  UNL     1      25.783   0.656  53.900  1.00  0.00     0.168 C 
BRANCH  10  11
HETATM   11  C6  UNL     1      26.925  -0.239  53.646  1.00  0.00    -0.007 A 
HETATM   12  C7  UNL     1      26.669  -1.436  52.962  1.00  0.00     0.011 A 
HETATM   13  C8  UNL     1      27.617  -2.376  52.660  1.00  0.00     0.001 A 
HETATM   14  C9  UNL     1      28.927  -2.173  53.034  1.00  0.00     0.003 A 
HETATM   15  C10 UNL     1      29.235  -1.013  53.708  1.00  0.00     0.037 A 
HETATM   16  C11 UNL     1      28.253  -0.122  53.979  1.00  0.00     0.073 A 
BRANCH  16  17
HETATM   17  O1  UNL     1      28.623   1.027  54.657  1.00  0.00    -0.360 OA
HETATM   18  H16 UNL     1      29.277   0.889  55.445  1.00  0.00     0.217 HD
ENDBRANCH  16  17
ENDBRANCH  10  11
ENDBRANCH   1  10
BRANCH   4  19
HETATM   19  C13 UNL     1      25.903   3.951  50.133  1.00  0.00     0.036 A 
HETATM   20  C14 UNL     1      25.321   5.222  50.119  1.00  0.00     0.029 A 
HETATM   21  C15 UNL     1      25.809   6.274  49.407  1.00  0.00     0.002 A 
HETATM   22  C16 UNL     1      26.935   6.107  48.649  1.00  0.00     0.000 A 
HETATM   23  C17 UNL     1      27.581   4.880  48.601  1.00  0.00     0.002 A 
HETATM   24  C18 UNL     1      27.016   3.878  49.353  1.00  0.00     0.029 A 
ENDBRANCH   4  19
TORSDOF 7
ENDMDL
MODEL 2
REMARK VINA RESULT:      -7.7      2.721      5.993
REMARK  7 active torsions:
REMARK  status: ('A' for Active; 'I' for Inactive)
REMARK    1  A    between atoms: C2_2  and  C3_3 
REMARK    2  A    between atoms: C3_3  and  C4_4 
REMARK    3  A    between atoms: C4_4  and  N1_5 
REMARK    4  A    between atoms: N1_5  and  C5_6 
REMARK       I    between atoms: N1_5  and  C12_14 
REMARK    5  A    between atoms: C5_6  and  C6_7 
REMARK    6  A    between atoms: C11_12  and  O1_13 
REMARK       I    between atoms: C12_14  and  N2_16 
REMARK    7  A    between atoms: N2_16  and  C13_17 
ROOT
HETATM    1  N1  UNL     1      23.433   0.445  52.958  1.00  0.00    -0.330 N 
HETATM    2  C12 UNL     1      24.872   0.564  53.024  1.00  0.00     0.323 C 
HETATM    3  O2  UNL     1      25.441   1.670  52.729  1.00  0.00    -0.247 OA
HETATM    4  N2  UNL     1      25.777  -0.431  53.392  1.00  0.00    -0.309 N 
HETATM    5  H17 UNL     1      25.323  -1.343  53.629  1.00  0.00     0.170 HD
ENDROOT
BRANCH   1   6
HETATM    6  C4  UNL     1      22.901  -0.849  53.335  1.00  0.00     0.128 C 
BRANCH   6   7
HETATM    7  C3  UNL     1      21.883  -0.648  54.435  1.00  0.00     0.020 C 
BRANCH   7   8
HETATM    8  C2  UNL     1      20.598  -1.409  54.153  1.00  0.00    -0.003 C 
HETATM    9  C1  UNL     1      19.700  -0.478  53.370  1.00  0.00     0.005 C 
ENDBRANCH   7   8
ENDBRANCH   6   7
ENDBRANCH   1   6
BRANCH   1  10
HETATM   10  C5  UNL     1      22.745   1.636  52.508  1.00  0.00     0.168 C 
BRANCH  10  11
HETATM   11  C6  UNL     1      22.569   1.751  51.050  1.00  0.00    -0.007 A 
HETATM   12  C7  UNL     1      21.600   0.937  50.449  1.00  0.00     0.011 A 
HETATM   13  C8  UNL     1      21.324   0.917  49.108  1.00  0.00     0.001 A 
HETATM   14  C9  UNL     1      22.023   1.740  48.253  1.00  0.00     0.003 A 
HETATM   15  C10 UNL     1      22.988   2.562  48.790  1.00  0.00     0.037 A 
HETATM   16  C11 UNL     1      23.215   2.535  50.124  1.00  0.00     0.073 A 
BRANCH  16  17
HETATM   17  O1  UNL     1      24.195   3.386  50.607  1.00  0.00    -0.360 OA
HETATM   18  H16 UNL     1      23.866   4.124  51.250  1.00  0.00     0.217 HD
ENDBRANCH  16  17
ENDBRANCH  10  11
ENDBRANCH   1  10
BRANCH   4  19
HETATM   19  C13 UNL     1      27.185  -0.453  53.500  1.00  0.00     0.036 A 
HETATM   20  C14 UNL     1      27.928  -1.555  53.064  1.00  0.00     0.029 A 
HETATM   21  C15 UNL     1      29.285  -1.634  53.139  1.00  0.00     0.002 A 
HETATM   22  C16 UNL     1      29.990  -0.590  53.668  1.00  0.00     0.000 A 
HETATM   23  C17 UNL     1      29.339   0.546  54.126  1.00  0.00     0.002 A 
HETATM   24  C18 UNL     1      27.969   0.536  54.009  1.00  0.00     0.029 A 
ENDBRANCH   4  19
TORSDOF 7
ENDMDL
MODEL 3
REMARK VINA RESULT:      -7.2      2.357      6.197
REMARK  7 active torsions:
REMARK  status: ('A' for Active; 'I' for Inactive)
REMARK    1  A    between atoms: C2_2  and  C3_3 
REMARK    2  A    between atoms: C3_3  and  C4_4 
REMARK    3  A    between atoms: C4_4  and  N1_5 
REMARK    4  A    between atoms: N1_5  and  C5_6 
REMARK       I    between atoms: N1_5  and  C12_14 
REMARK    5  A    between atoms: C5_6  and  C6_7 
REMARK    6  A    between atoms: C11_12  and  O1_13 
REMARK       I    between atoms: C12_14  and  N2_16 
REMARK    7  A    between atoms: N2_16  and  C13_17 
ROOT
HETATM    1  N1  UNL     1      23.723   1.242  52.101  1.00  0.00    -0.330 N 
HETATM    2  C12 UNL     1      25.139   0.961  52.162  1.00  0.00     0.323 C 
HETATM    3  O2  UNL     1      25.912   1.335  51.214  1.00  0.00    -0.247 OA
HETATM    4  N2  UNL     1      25.817   0.295  53.183  1.00  0.00    -0.309 N 
HETATM    5  H17 UNL     1      25.193  -0.022  53.961  1.00  0.00     0.170 HD
ENDROOT
BRANCH   1   6
HETATM    6  C4  UNL     1      22.952   0.788  53.242  1.00  0.00     0.128 C 
BRANCH   6   7
HETATM    7  C3  UNL     1      22.231  -0.484  52.857  1.00  0.00     0.020 C 
BRANCH   7   8
HETATM    8  C2  UNL     1      21.629  -1.174  54.070  1.00  0.00    -0.003 C 
HETATM    9  C1  UNL     1      22.721  -1.257  55.113  1.00  0.00     0.005 C 
ENDBRANCH   7   8
ENDBRANCH   6   7
ENDBRANCH   1   6
BRANCH   1  10
HETATM   10  C5  UNL     1      23.290   1.920  50.899  1.00  0.00     0.168 C 
BRANCH  10  11
HETATM   11  C6  UNL     1      22.925   3.337  51.069  1.00  0.00    -0.007 A 
HETATM   12  C7  UNL     1      21.561   3.656  51.088  1.00  0.00     0.011 A 
HETATM   13  C8  UNL     1      21.061   4.923  51.226  1.00  0.00     0.001 A 
HETATM   14  C9  UNL     1      21.923   5.989  51.360  1.00  0.00     0.003 A 
HETATM   15  C10 UNL     1      23.275   5.733  51.349  1.00  0.00     0.037 A 
HETATM   16  C11 UNL     1      23.709   4.458  51.208  1.00  0.00     0.073 A 
BRANCH  16  17
HETATM   17  O1  UNL     1      25.079   4.262  51.207  1.00  0.00    -0.360 OA
HETATM   18  H16 UNL     1      25.388   3.279  51.285  1.00  0.00     0.217 HD
ENDBRANCH  16  17
ENDBRANCH  10  11
ENDBRANCH   1  10
BRANCH   4  19
HETATM   19  C13 UNL     1      27.175  -0.043  53.371  1.00  0.00     0.036 A 
HETATM   20  C14 UNL     1      28.075   0.864  53.939  1.00  0.00     0.029 A 
HETATM   21  C15 UNL     1      29.393   0.598  54.148  1.00  0.00     0.002 A 
HETATM   22  C16 UNL     1      29.896  -0.621  53.790  1.00  0.00     0.000 A 
HETATM   23  C17 UNL     1      29.079  -1.586  53.218  1.00  0.00     0.002 A 
HETATM   24  C18 UNL     1      27.763  -1.227  53.047  1.00  0.00     0.029 A 
ENDBRANCH   4  19
TORSDOF 7
ENDMDL
MODEL 4
REMARK VINA RESULT:      -7.2      1.985      6.664
REMARK  7 active torsions:
REMARK  status: ('A' for Active; 'I' for Inactive)
REMARK    1  A    between atoms: C2_2  and  C3_3 
REMARK    2  A    between atoms: C3_3  and  C4_4 
REMARK    3  A    between atoms: C4_4  and  N1_5 
REMARK    4  A    between atoms: N1_5  and  C5_6 
REMARK       I    between atoms: N1_5  and  C12_14 
REMARK    5  A    between atoms: C5_6  and  C6_7 
REMARK    6  A    between atoms: C11_12  and  O1_13 
REMARK       I    between atoms: C12_14  and  N2_16 
REMARK    7  A    between atoms: N2_16  and  C13_17 
ROOT
HETATM    1  N1  UNL     1      25.011   3.809  50.675  1.00  0.00    -0.330 N 
HETATM    2  C12 UNL     1      26.073   2.941  51.130  1.00  0.00     0.323 C 
HETATM    3  O2  UNL     1      26.944   2.501  50.304  1.00  0.00    -0.247 OA
HETATM    4  N2  UNL     1      26.286   2.492  52.434  1.00  0.00    -0.309 N 
HETATM    5  H17 UNL     1      25.574   2.840  53.117  1.00  0.00     0.170 HD
ENDROOT
BRANCH   1   6
HETATM    6  C4  UNL     1      24.095   4.260  51.705  1.00  0.00     0.128 C 
BRANCH   6   7
HETATM    7  C3  UNL     1      22.771   3.556  51.510  1.00  0.00     0.020 C 
BRANCH   7   8
HETATM    8  C2  UNL     1      22.599   2.406  52.489  1.00  0.00    -0.003 C 
HETATM    9  C1  UNL     1      22.838   1.131  51.712  1.00  0.00     0.005 C 
ENDBRANCH   7   8
ENDBRANCH   6   7
ENDBRANCH   1   6
BRANCH   1  10
HETATM   10  C5  UNL     1      25.016   4.081  49.255  1.00  0.00     0.168 C 
BRANCH  10  11
HETATM   11  C6  UNL     1      25.644   5.353  48.857  1.00  0.00    -0.007 A 
HETATM   12  C7  UNL     1      24.797   6.428  48.559  1.00  0.00     0.011 A 
HETATM   13  C8  UNL     1      25.223   7.668  48.164  1.00  0.00     0.001 A 
HETATM   14  C9  UNL     1      26.572   7.921  48.040  1.00  0.00     0.003 A 
HETATM   15  C10 UNL     1      27.450   6.899  48.321  1.00  0.00     0.037 A 
HETATM   16  C11 UNL     1      26.967   5.695  48.706  1.00  0.00     0.073 A 
BRANCH  16  17
HETATM   17  O1  UNL     1      27.898   4.707  48.978  1.00  0.00    -0.360 OA
HETATM   18  H16 UNL     1      27.677   4.095  49.780  1.00  0.00     0.217 HD
ENDBRANCH  16  17
ENDBRANCH  10  11
ENDBRANCH   1  10
BRANCH   4  19
HETATM   19  C13 UNL     1      27.267   1.656  53.011  1.00  0.00     0.036 A 
HETATM   20  C14 UNL     1      27.190   0.264  52.899  1.00  0.00     0.029 A 
HETATM   21  C15 UNL     1      28.103  -0.593  53.430  1.00  0.00     0.002 A 
HETATM   22  C16 UNL     1      29.172  -0.092  54.120  1.00  0.00     0.000 A 
HETATM   23  C17 UNL     1      29.332   1.276  54.282  1.00  0.00     0.002 A 
HETATM   24  C18 UNL     1      28.361   2.063  53.711  1.00  0.00     0.029 A 
ENDBRANCH   4  19
TORSDOF 7
ENDMDL
MODEL 5
REMARK VINA RESULT:      -7.1      1.764      6.281
REMARK  7 active torsions:
REMARK  status: ('A' for Active; 'I' for Inactive)
REMARK    1  A    between atoms: C2_2  and  C3_3 
REMARK    2  A    between atoms: C3_3  and  C4_4 
REMARK    3  A    between atoms: C4_4  and  N1_5 
REMARK    4  A    between atoms: N1_5  and  C5_6 
REMARK       I    between atoms: N1_5  and  C12_14 
REMARK    5  A    between atoms: C5_6  and  C6_7 
REMARK    6  A    between atoms: C11_12  and  O1_13 
REMARK       I    between atoms: C12_14  and  N2_16 
REMARK    7  A    between atoms: N2_16  and  C13_17 
ROOT
HETATM    1  N1  UNL     1      24.238   2.358  51.597  1.00  0.00    -0.330 N 
HETATM    2  C12 UNL     1      25.542   1.750  51.729  1.00  0.00     0.323 C 
HETATM    3  O2  UNL     1      26.420   1.904  50.812  1.00  0.00    -0.247 OA
HETATM    4  N2  UNL     1      25.998   0.968  52.791  1.00  0.00    -0.309 N 
HETATM    5  H17 UNL     1      25.285   0.830  53.544  1.00  0.00     0.170 HD
ENDROOT
BRANCH   1   6
HETATM    6  C4  UNL     1      23.334   2.130  52.708  1.00  0.00     0.128 C 
BRANCH   6   7
HETATM    7  C3  UNL     1      22.346   1.057  52.309  1.00  0.00     0.020 C 
BRANCH   7   8
HETATM    8  C2  UNL     1      21.938   0.204  53.499  1.00  0.00    -0.003 C 
HETATM    9  C1  UNL     1      22.977  -0.887  53.632  1.00  0.00     0.005 C 
ENDBRANCH   7   8
ENDBRANCH   6   7
ENDBRANCH   1   6
BRANCH   1  10
HETATM   10  C5  UNL     1      24.029   3.088  50.366  1.00  0.00     0.168 C 
BRANCH  10  11
HETATM   11  C6  UNL     1      24.119   4.554  50.478  1.00  0.00    -0.007 A 
HETATM   12  C7  UNL     1      22.937   5.256  50.749  1.00  0.00     0.011 A 
HETATM   13  C8  UNL     1      22.851   6.616  50.870  1.00  0.00     0.001 A 
HETATM   14  C9  UNL     1      23.982   7.390  50.725  1.00  0.00     0.003 A 
HETATM   15  C10 UNL     1      25.172   6.752  50.458  1.00  0.00     0.037 A 
HETATM   16  C11 UNL     1      25.193   5.403  50.349  1.00  0.00     0.073 A 
BRANCH  16  17
HETATM   17  O1  UNL     1      26.418   4.817  50.082  1.00  0.00    -0.360 OA
HETATM   18  H16 UNL     1      26.455   3.791  50.195  1.00  0.00     0.217 HD
ENDBRANCH  16  17
ENDBRANCH  10  11
ENDBRANCH   1  10
BRANCH   4  19
HETATM   19  C13 UNL     1      27.228   0.323  53.047  1.00  0.00     0.036 A 
HETATM   20  C14 UNL     1      28.321   1.025  53.563  1.00  0.00     0.029 A 
HETATM   21  C15 UNL     1      29.529   0.460  53.832  1.00  0.00     0.002 A 
HETATM   22  C16 UNL     1      29.715  -0.873  53.594  1.00  0.00     0.000 A 
HETATM   23  C17 UNL     1      28.686  -1.652  53.083  1.00  0.00     0.002 A 
HETATM   24  C18 UNL     1      27.504  -0.994  52.843  1.00  0.00     0.029 A 
ENDBRANCH   4  19
TORSDOF 7
ENDMDL
MODEL 6
REMARK VINA RESULT:      -7.0      2.376      4.708
REMARK  7 active torsions:
REMARK  status: ('A' for Active; 'I' for Inactive)
REMARK    1  A    between atoms: C2_2  and  C3_3 
REMARK    2  A    between atoms: C3_3  and  C4_4 
REMARK    3  A    between atoms: C4_4  and  N1_5 
REMARK    4  A    between atoms: N1_5  and  C5_6 
REMARK       I    between atoms: N1_5  and  C12_14 
REMARK    5  A    between atoms: C5_6  and  C6_7 
REMARK    6  A    between atoms: C11_12  and  O1_13 
REMARK       I    between atoms: C12_14  and  N2_16 
REMARK    7  A    between atoms: N2_16  and  C13_17 
ROOT
HETATM    1  N1  UNL     1      24.561   2.085  51.781  1.00  0.00    -0.330 N 
HETATM    2  C12 UNL     1      24.216   3.312  51.100  1.00  0.00     0.323 C 
HETATM    3  O2  UNL     1      23.174   3.367  50.360  1.00  0.00    -0.247 OA
HETATM    4  N2  UNL     1      24.913   4.519  51.148  1.00  0.00    -0.309 N 
HETATM    5  H17 UNL     1      25.771   4.483  51.745  1.00  0.00     0.170 HD
ENDROOT
BRANCH   1   6
HETATM    6  C4  UNL     1      25.751   2.148  52.606  1.00  0.00     0.128 C 
BRANCH   6   7
HETATM    7  C3  UNL     1      26.732   1.107  52.115  1.00  0.00     0.020 C 
BRANCH   7   8
HETATM    8  C2  UNL     1      26.948   0.012  53.147  1.00  0.00    -0.003 C 
HETATM    9  C1  UNL     1      26.695  -1.305  52.448  1.00  0.00     0.005 C 
ENDBRANCH   7   8
ENDBRANCH   6   7
ENDBRANCH   1   6
BRANCH   1  10
HETATM   10  C5  UNL     1      23.673   0.974  51.518  1.00  0.00     0.168 C 
BRANCH  10  11
HETATM   11  C6  UNL     1      22.815   0.571  52.646  1.00  0.00    -0.007 A 
HETATM   12  C7  UNL     1      23.255  -0.494  53.444  1.00  0.00     0.011 A 
HETATM   13  C8  UNL     1      22.569  -0.995  54.519  1.00  0.00     0.001 A 
HETATM   14  C9  UNL     1      21.360  -0.441  54.878  1.00  0.00     0.003 A 
HETATM   15  C10 UNL     1      20.881   0.608  54.128  1.00  0.00     0.037 A 
HETATM   16  C11 UNL     1      21.604   1.058  53.076  1.00  0.00     0.073 A 
BRANCH  16  17
HETATM   17  O1  UNL     1      21.073   2.118  52.361  1.00  0.00    -0.360 OA
HETATM   18  H16 UNL     1      21.760   2.795  51.992  1.00  0.00     0.217 HD
ENDBRANCH  16  17
ENDBRANCH  10  11
ENDBRANCH   1  10
BRANCH   4  19
HETATM   19  C13 UNL     1      24.692   5.777  50.545  1.00  0.00     0.036 A 
HETATM   20  C14 UNL     1      25.142   6.048  49.248  1.00  0.00     0.029 A 
HETATM   21  C15 UNL     1      24.959   7.237  48.613  1.00  0.00     0.002 A 
HETATM   22  C16 UNL     1      24.298   8.247  49.255  1.00  0.00     0.000 A 
HETATM   23  C17 UNL     1      23.816   8.070  50.544  1.00  0.00     0.002 A 
HETATM   24  C18 UNL     1      24.047   6.837  51.104  1.00  0.00     0.029 A 
ENDBRANCH   4  19
TORSDOF 7
ENDMDL
MODEL 7
REMARK VINA RESULT:      -7.0      2.118      2.858
REMARK  7 active torsions:
REMARK  status: ('A' for Active; 'I' for Inactive)
REMARK    1  A    between atoms: C2_2  and  C3_3 
REMARK    2  A    between atoms: C3_3  and  C4_4 
REMARK    3  A    between atoms: C4_4  and  N1_5 
REMARK    4  A    between atoms: N1_5  and  C5_6 
REMARK       I    between atoms: N1_5  and  C12_14 
REMARK    5  A    between atoms: C5_6  and  C6_7 
REMARK    6  A    between atoms: C11_12  and  O1_13 
REMARK       I    between atoms: C12_14  and  N2_16 
REMARK    7  A    between atoms: N2_16  and  C13_17 
ROOT
HETATM    1  N1  UNL     1      25.080   2.065  52.053  1.00  0.00    -0.330 N 
HETATM    2  C12 UNL     1      24.731   3.332  51.454  1.00  0.00     0.323 C 
HETATM    3  O2  UNL     1      25.370   3.759  50.431  1.00  0.00    -0.247 OA
HETATM    4  N2  UNL     1      23.726   4.206  51.870  1.00  0.00    -0.309 N 
HETATM    5  H17 UNL     1      23.202   3.870  52.710  1.00  0.00     0.170 HD
ENDROOT
BRANCH   1   6
HETATM    6  C4  UNL     1      24.275   1.677  53.194  1.00  0.00     0.128 C 
BRANCH   6   7
HETATM    7  C3  UNL     1      23.438   0.478  52.805  1.00  0.00     0.020 C 
BRANCH   7   8
HETATM    8  C2  UNL     1      22.246   0.304  53.730  1.00  0.00    -0.003 C 
HETATM    9  C1  UNL     1      22.275  -1.127  54.219  1.00  0.00     0.005 C 
ENDBRANCH   7   8
ENDBRANCH   6   7
ENDBRANCH   1   6
BRANCH   1  10
HETATM   10  C5  UNL     1      26.195   1.385  51.430  1.00  0.00     0.168 C 
BRANCH  10  11
HETATM   11  C6  UNL     1      27.224   0.880  52.355  1.00  0.00    -0.007 A 
HETATM   12  C7  UNL     1      27.247  -0.498  52.608  1.00  0.00     0.011 A 
HETATM   13  C8  UNL     1      28.130  -1.120  53.449  1.00  0.00     0.001 A 
HETATM   14  C9  UNL     1      29.082  -0.377  54.113  1.00  0.00     0.003 A 
HETATM   15  C10 UNL     1      29.105   0.982  53.902  1.00  0.00     0.037 A 
HETATM   16  C11 UNL     1      28.204   1.539  53.059  1.00  0.00     0.073 A 
BRANCH  16  17
HETATM   17  O1  UNL     1      28.278   2.910  52.883  1.00  0.00    -0.360 OA
HETATM   18  H16 UNL     1      29.014   3.390  53.426  1.00  0.00     0.217 HD
ENDBRANCH  16  17
ENDBRANCH  10  11
ENDBRANCH   1  10
BRANCH   4  19
HETATM   19  C13 UNL     1      23.282   5.456  51.385  1.00  0.00     0.036 A 
HETATM   20  C14 UNL     1      24.157   6.541  51.271  1.00  0.00     0.029 A 
HETATM   21  C15 UNL     1      23.791   7.768  50.810  1.00  0.00     0.002 A 
HETATM   22  C16 UNL     1      22.496   7.982  50.427  1.00  0.00     0.000 A 
HETATM   23  C17 UNL     1      21.556   6.963  50.504  1.00  0.00     0.002 A 
HETATM   24  C18 UNL     1      22.019   5.761  50.981  1.00  0.00     0.029 A 
ENDBRANCH   4  19
TORSDOF 7
ENDMDL
MODEL 8
REMARK VINA RESULT:      -6.9      1.861      4.196
REMARK  7 active torsions:
REMARK  status: ('A' for Active; 'I' for Inactive)
REMARK    1  A    between atoms: C2_2  and  C3_3 
REMARK    2  A    between atoms: C3_3  and  C4_4 
REMARK    3  A    between atoms: C4_4  and  N1_5 
REMARK    4  A    between atoms: N1_5  and  C5_6 
REMARK       I    between atoms: N1_5  and  C12_14 
REMARK    5  A    between atoms: C5_6  and  C6_7 
REMARK    6  A    between atoms: C11_12  and  O1_13 
REMARK       I    between atoms: C12_14  and  N2_16 
REMARK    7  A    between atoms: N2_16  and  C13_17 
ROOT
HETATM    1  N1  UNL     1      25.656   1.548  52.603  1.00  0.00    -0.330 N 
HETATM    2  C12 UNL     1      25.045   2.467  51.671  1.00  0.00     0.323 C 
HETATM    3  O2  UNL     1      24.213   2.042  50.798  1.00  0.00    -0.247 OA
HETATM    4  N2  UNL     1      25.256   3.844  51.594  1.00  0.00    -0.309 N 
HETATM    5  H17 UNL     1      25.941   4.202  52.299  1.00  0.00     0.170 HD
ENDROOT
BRANCH   1   6
HETATM    6  C4  UNL     1      26.567   2.149  53.558  1.00  0.00     0.128 C 
BRANCH   6   7
HETATM    7  C3  UNL     1      27.978   1.738  53.200  1.00  0.00     0.020 C 
BRANCH   7   8
HETATM    8  C2  UNL     1      28.609   0.894  54.295  1.00  0.00    -0.003 C 
HETATM    9  C1  UNL     1      29.442  -0.164  53.607  1.00  0.00     0.005 C 
ENDBRANCH   7   8
ENDBRANCH   6   7
ENDBRANCH   1   6
BRANCH   1  10
HETATM   10  C5  UNL     1      25.277   0.163  52.428  1.00  0.00     0.168 C 
BRANCH  10  11
HETATM   11  C6  UNL     1      24.277  -0.344  53.383  1.00  0.00    -0.007 A 
HETATM   12  C7  UNL     1      22.933  -0.320  52.986  1.00  0.00     0.011 A 
HETATM   13  C8  UNL     1      21.886  -0.744  53.759  1.00  0.00     0.001 A 
HETATM   14  C9  UNL     1      22.125  -1.237  55.024  1.00  0.00     0.003 A 
HETATM   15  C10 UNL     1      23.427  -1.284  55.465  1.00  0.00     0.037 A 
HETATM   16  C11 UNL     1      24.420  -0.849  54.653  1.00  0.00     0.073 A 
BRANCH  16  17
HETATM   17  O1  UNL     1      25.710  -0.923  55.150  1.00  0.00    -0.360 OA
HETATM   18  H16 UNL     1      26.352  -0.179  54.834  1.00  0.00     0.217 HD
ENDBRANCH  16  17
ENDBRANCH  10  11
ENDBRANCH   1  10
BRANCH   4  19
HETATM   19  C13 UNL     1      24.734   4.848  50.748  1.00  0.00     0.036 A 
HETATM   20  C14 UNL     1      25.296   5.102  49.493  1.00  0.00     0.029 A 
HETATM   21  C15 UNL     1      24.837   6.051  48.633  1.00  0.00     0.002 A 
HETATM   22  C16 UNL     1      23.764   6.819  48.991  1.00  0.00     0.000 A 
HETATM   23  C17 UNL     1      23.140   6.638  50.217  1.00  0.00     0.002 A 
HETATM   24  C18 UNL     1      23.673   5.656  51.018  1.00  0.00     0.029 A 
ENDBRANCH   4  19
TORSDOF 7
ENDMDL
MODEL 9
REMARK VINA RESULT:      -6.9      2.559      6.457
REMARK  7 active torsions:
REMARK  status: ('A' for Active; 'I' for Inactive)
REMARK    1  A    between atoms: C2_2  and  C3_3 
REMARK    2  A    between atoms: C3_3  and  C4_4 
REMARK    3  A    between atoms: C4_4  and  N1_5 
REMARK    4  A    between atoms: N1_5  and  C5_6 
REMARK       I    between atoms: N1_5  and  C12_14 
REMARK    5  A    between atoms: C5_6  and  C6_7 
REMARK    6  A    between atoms: C11_12  and  O1_13 
REMARK       I    between atoms: C12_14  and  N2_16 
REMARK    7  A    between atoms: N2_16  and  C13_17 
ROOT
HETATM    1  N1  UNL     1      24.755   2.764  51.896  1.00  0.00    -0.330 N 
HETATM    2  C12 UNL     1      26.014   2.063  51.995  1.00  0.00     0.323 C 
HETATM    3  O2  UNL     1      26.971   2.341  51.193  1.00  0.00    -0.247 OA
HETATM    4  N2  UNL     1      26.345   1.061  52.907  1.00  0.00    -0.309 N 
HETATM    5  H17 UNL     1      25.566   0.820  53.564  1.00  0.00     0.170 HD
ENDROOT
BRANCH   1   6
HETATM    6  C4  UNL     1      23.753   2.378  52.870  1.00  0.00     0.128 C 
BRANCH   6   7
HETATM    7  C3  UNL     1      23.109   1.089  52.411  1.00  0.00     0.020 C 
BRANCH   7   8
HETATM    8  C2  UNL     1      21.621   1.267  52.159  1.00  0.00    -0.003 C 
HETATM    9  C1  UNL     1      21.307   0.547  50.867  1.00  0.00     0.005 C 
ENDBRANCH   7   8
ENDBRANCH   6   7
ENDBRANCH   1   6
BRANCH   1  10
HETATM   10  C5  UNL     1      24.682   3.735  50.826  1.00  0.00     0.168 C 
BRANCH  10  11
HETATM   11  C6  UNL     1      23.470   3.666  49.992  1.00  0.00    -0.007 A 
HETATM   12  C7  UNL     1      23.505   2.829  48.868  1.00  0.00     0.011 A 
HETATM   13  C8  UNL     1      22.468   2.664  47.990  1.00  0.00     0.001 A 
HETATM   14  C9  UNL     1      21.288   3.349  48.186  1.00  0.00     0.003 A 
HETATM   15  C10 UNL     1      21.199   4.185  49.275  1.00  0.00     0.037 A 
HETATM   16  C11 UNL     1      22.259   4.307  50.108  1.00  0.00     0.073 A 
BRANCH  16  17
HETATM   17  O1  UNL     1      22.110   5.160  51.188  1.00  0.00    -0.360 OA
HETATM   18  H16 UNL     1      21.467   4.834  51.928  1.00  0.00     0.217 HD
ENDBRANCH  16  17
ENDBRANCH  10  11
ENDBRANCH   1  10
BRANCH   4  19
HETATM   19  C13 UNL     1      27.518   0.303  53.115  1.00  0.00     0.036 A 
HETATM   20  C14 UNL     1      28.704   0.906  53.545  1.00  0.00     0.029 A 
HETATM   21  C15 UNL     1      29.864   0.231  53.765  1.00  0.00     0.002 A 
HETATM   22  C16 UNL     1      29.904  -1.120  53.561  1.00  0.00     0.000 A 
HETATM   23  C17 UNL     1      28.776  -1.806  53.134  1.00  0.00     0.002 A 
HETATM   24  C18 UNL     1      27.651  -1.040  52.939  1.00  0.00     0.029 A 
ENDBRANCH   4  19
TORSDOF 7
ENDMDL
