MODEL 1
REMARK VINA RESULT:      -7.1      0.000      0.000
REMARK  8 active torsions:
REMARK  status: ('A' for Active; 'I' for Inactive)
REMARK    1  A    between atoms: C2_2  and  C3_3 
REMARK    2  A    between atoms: C10_11  and  C11_12 
REMARK    3  A    between atoms: C11_12  and  O1_13 
REMARK    4  A    between atoms: O1_13  and  C12_14 
REMARK    5  A    between atoms: C12_14  and  C13_15 
REMARK    6  A    between atoms: C15_17  and  C16_18 
REMARK    7  A    between atoms: C16_18  and  N1_19 
REMARK    8  A    between atoms: N1_19  and  C17_20 
ROOT
HETATM    1  O1  UNL     1      27.158   2.575  51.345  1.00  0.00    -0.386 OA
ENDROOT
BRANCH   1   2
HETATM    2  C11 UNL     1      27.141   1.708  52.309  1.00  0.00     0.178 C 
BRANCH   2   3
HETATM    3  C10 UNL     1      26.240   1.929  53.476  1.00  0.00     0.053 C 
HETATM    4  C7  UNL     1      24.814   1.946  53.129  1.00  0.00    -0.034 A 
HETATM    5  C6  UNL     1      23.971   2.960  52.726  1.00  0.00     0.009 A 
HETATM    6  C8  UNL     1      24.137   0.722  53.202  1.00  0.00     0.013 A 
HETATM    7  C5  UNL     1      22.641   2.801  52.431  1.00  0.00     0.001 A 
HETATM    8  C4  UNL     1      22.050   1.564  52.527  1.00  0.00     0.008 A 
HETATM    9  C3  UNL     1      22.814   0.488  52.923  1.00  0.00    -0.041 A 
HETATM   10  S1  UNL     1      25.412  -0.448  53.756  1.00  0.00    -0.128 SA
HETATM   11  C9  UNL     1      26.449   0.853  54.549  1.00  0.00     0.091 C 
BRANCH   9  12
HETATM   12  C2  UNL     1      22.272  -0.884  53.059  1.00  0.00     0.035 C 
HETATM   13  C1  UNL     1      21.663  -1.126  54.417  1.00  0.00     0.010 C 
ENDBRANCH   9  12
ENDBRANCH   2   3
ENDBRANCH   1   2
BRANCH   1  14
HETATM   14  C12 UNL     1      26.618   2.687  50.174  1.00  0.00     0.201 C 
BRANCH  14  15
HETATM   15  C13 UNL     1      26.359   3.985  49.513  1.00  0.00    -0.062 C 
HETATM   16  C14 UNL     1      26.964   5.122  48.781  1.00  0.00     0.045 C 
HETATM   17  C15 UNL     1      25.055   4.370  49.465  1.00  0.00    -0.003 C 
BRANCH  17  18
HETATM   18  C16 UNL     1      24.212   5.509  48.960  1.00  0.00     0.148 C 
BRANCH  18  19
HETATM   19  N1  UNL     1      22.838   5.127  48.802  1.00  0.00    -0.377 N 
HETATM   20  H22 UNL     1      22.262   5.687  48.135  1.00  0.00     0.160 HD
BRANCH  19  21
HETATM   21  C17 UNL     1      21.803   4.238  49.183  1.00  0.00     0.102 C 
HETATM   22 CL1  UNL     1      20.607   4.955  50.248  1.00  0.00    -0.065 Cl
HETATM   23  C18 UNL     1      21.707   2.990  48.802  1.00  0.00    -0.041 A 
HETATM   24  C19 UNL     1      20.912   1.696  48.875  1.00  0.00     0.042 A 
HETATM   25  C20 UNL     1      22.128   1.728  48.069  1.00  0.00     0.042 A 
ENDBRANCH  19  21
ENDBRANCH  18  19
ENDBRANCH  17  18
ENDBRANCH  14  15
ENDBRANCH   1  14
TORSDOF 8
ENDMDL
MODEL 2
REMARK VINA RESULT:      -7.0      3.562      7.185
REMARK  8 active torsions:
REMARK  status: ('A' for Active; 'I' for Inactive)
REMARK    1  A    between atoms: C2_2  and  C3_3 
REMARK    2  A    between atoms: C10_11  and  C11_12 
REMARK    3  A    between atoms: C11_12  and  O1_13 
REMARK    4  A    between atoms: O1_13  and  C12_14 
REMARK    5  A    between atoms: C12_14  and  C13_15 
REMARK    6  A    between atoms: C15_17  and  C16_18 
REMARK    7  A    between atoms: C16_18  and  N1_19 
REMARK    8  A    between atoms: N1_19  and  C17_20 
ROOT
HETATM    1  O1  UNL     1      21.157   1.649  51.960  1.00  0.00    -0.386 OA
ENDROOT
BRANCH   1   2
HETATM    2  C11 UNL     1      21.820   2.586  51.356  1.00  0.00     0.178 C 
BRANCH   2   3
HETATM    3  C10 UNL     1      22.891   3.315  52.091  1.00  0.00     0.053 C 
HETATM    4  C7  UNL     1      24.213   3.222  51.461  1.00  0.00    -0.034 A 
HETATM    5  C6  UNL     1      25.234   2.303  51.583  1.00  0.00     0.009 A 
HETATM    6  C8  UNL     1      24.545   4.233  50.550  1.00  0.00     0.013 A 
HETATM    7  C5  UNL     1      26.425   2.362  50.905  1.00  0.00     0.001 A 
HETATM    8  C4  UNL     1      26.674   3.389  50.026  1.00  0.00     0.008 A 
HETATM    9  C3  UNL     1      25.711   4.356  49.838  1.00  0.00    -0.041 A 
HETATM   10  S1  UNL     1      23.090   5.320  50.557  1.00  0.00    -0.128 SA
HETATM   11  C9  UNL     1      22.546   4.802  52.240  1.00  0.00     0.091 C 
BRANCH   9  12
HETATM   12  C2  UNL     1      25.885   5.503  48.916  1.00  0.00     0.035 C 
HETATM   13  C1  UNL     1      27.332   5.739  48.564  1.00  0.00     0.010 C 
ENDBRANCH   9  12
ENDBRANCH   2   3
ENDBRANCH   1   2
BRANCH   1  14
HETATM   14  C12 UNL     1      21.053   1.204  53.171  1.00  0.00     0.201 C 
BRANCH  14  15
HETATM   15  C13 UNL     1      21.726  -0.021  53.654  1.00  0.00    -0.062 C 
HETATM   16  C14 UNL     1      21.552  -1.449  54.007  1.00  0.00     0.045 C 
HETATM   17  C15 UNL     1      23.069   0.085  53.848  1.00  0.00    -0.003 C 
BRANCH  17  18
HETATM   18  C16 UNL     1      24.234  -0.755  54.297  1.00  0.00     0.148 C 
BRANCH  18  19
HETATM   19  N1  UNL     1      25.374  -0.588  53.442  1.00  0.00    -0.377 N 
HETATM   20  H22 UNL     1      25.290   0.106  52.666  1.00  0.00     0.160 HD
BRANCH  19  21
HETATM   21  C17 UNL     1      26.702  -0.981  53.147  1.00  0.00     0.102 C 
HETATM   22 CL1  UNL     1      26.811  -2.402  52.124  1.00  0.00    -0.065 Cl
HETATM   23  C18 UNL     1      27.779  -0.373  53.576  1.00  0.00    -0.041 A 
HETATM   24  C19 UNL     1      29.298  -0.336  53.589  1.00  0.00     0.042 A 
HETATM   25  C20 UNL     1      28.566   0.683  54.332  1.00  0.00     0.042 A 
ENDBRANCH  19  21
ENDBRANCH  18  19
ENDBRANCH  17  18
ENDBRANCH  14  15
ENDBRANCH   1  14
TORSDOF 8
ENDMDL
MODEL 3
REMARK VINA RESULT:      -7.0      3.577      5.418
REMARK  8 active torsions:
REMARK  status: ('A' for Active; 'I' for Inactive)
REMARK    1  A    between atoms: C2_2  and  C3_3 
REMARK    2  A    between atoms: C10_11  and  C11_12 
REMARK    3  A    between atoms: C11_12  and  O1_13 
REMARK    4  A    between atoms: O1_13  and  C12_14 
REMARK    5  A    between atoms: C12_14  and  C13_15 
REMARK    6  A    between atoms: C15_17  and  C16_18 
REMARK    7  A    between atoms: C16_18  and  N1_19 
REMARK    8  A    between atoms: N1_19  and  C17_20 
ROOT
HETATM    1  O1  UNL     1      26.972   2.758  50.985  1.00  0.00    -0.386 OA
ENDROOT
BRANCH   1   2
HETATM    2  C11 UNL     1      26.814   1.780  51.821  1.00  0.00     0.178 C 
BRANCH   2   3
HETATM    3  C10 UNL     1      26.027   2.001  53.067  1.00  0.00     0.053 C 
HETATM    4  C7  UNL     1      24.575   1.902  52.877  1.00  0.00    -0.034 A 
HETATM    5  C6  UNL     1      23.622   2.832  52.521  1.00  0.00     0.009 A 
HETATM    6  C8  UNL     1      24.002   0.640  53.080  1.00  0.00     0.013 A 
HETATM    7  C5  UNL     1      22.283   2.567  52.380  1.00  0.00     0.001 A 
HETATM    8  C4  UNL     1      21.799   1.299  52.597  1.00  0.00     0.008 A 
HETATM    9  C3  UNL     1      22.678   0.302  52.958  1.00  0.00    -0.041 A 
HETATM   10  S1  UNL     1      25.411  -0.408  53.546  1.00  0.00    -0.128 SA
HETATM   11  C9  UNL     1      26.426   1.002  54.160  1.00  0.00     0.091 C 
BRANCH   9  12
HETATM   12  C2  UNL     1      22.255  -1.095  53.215  1.00  0.00     0.035 C 
HETATM   13  C1  UNL     1      21.765  -1.292  54.628  1.00  0.00     0.010 C 
ENDBRANCH   9  12
ENDBRANCH   2   3
ENDBRANCH   1   2
BRANCH   1  14
HETATM   14  C12 UNL     1      26.500   3.088  49.826  1.00  0.00     0.201 C 
BRANCH  14  15
HETATM   15  C13 UNL     1      26.603   4.449  49.258  1.00  0.00    -0.062 C 
HETATM   16  C14 UNL     1      25.887   5.721  49.000  1.00  0.00     0.045 C 
HETATM   17  C15 UNL     1      27.831   4.796  48.784  1.00  0.00    -0.003 C 
BRANCH  17  18
HETATM   18  C16 UNL     1      28.522   5.962  48.131  1.00  0.00     0.148 C 
BRANCH  18  19
HETATM   19  N1  UNL     1      29.681   6.377  48.869  1.00  0.00    -0.377 N 
HETATM   20  H22 UNL     1      29.545   6.609  49.878  1.00  0.00     0.160 HD
BRANCH  19  21
HETATM   21  C17 UNL     1      31.073   6.639  48.842  1.00  0.00     0.102 C 
HETATM   22 CL1  UNL     1      31.499   8.263  49.354  1.00  0.00    -0.065 Cl
HETATM   23  C18 UNL     1      31.992   5.783  48.476  1.00  0.00    -0.041 A 
HETATM   24  C19 UNL     1      33.474   5.522  48.264  1.00  0.00     0.042 A 
HETATM   25  C20 UNL     1      32.526   4.451  47.979  1.00  0.00     0.042 A 
ENDBRANCH  19  21
ENDBRANCH  18  19
ENDBRANCH  17  18
ENDBRANCH  14  15
ENDBRANCH   1  14
TORSDOF 8
ENDMDL
MODEL 4
REMARK VINA RESULT:      -6.7      2.992      6.797
REMARK  8 active torsions:
REMARK  status: ('A' for Active; 'I' for Inactive)
REMARK    1  A    between atoms: C2_2  and  C3_3 
REMARK    2  A    between atoms: C10_11  and  C11_12 
REMARK    3  A    between atoms: C11_12  and  O1_13 
REMARK    4  A    between atoms: O1_13  and  C12_14 
REMARK    5  A    between atoms: C12_14  and  C13_15 
REMARK    6  A    between atoms: C15_17  and  C16_18 
REMARK    7  A    between atoms: C16_18  and  N1_19 
REMARK    8  A    between atoms: N1_19  and  C17_20 
ROOT
HETATM    1  O1  UNL     1      22.177   2.155  48.446  1.00  0.00    -0.386 OA
ENDROOT
BRANCH   1   2
HETATM    2  C11 UNL     1      22.186   3.434  48.658  1.00  0.00     0.178 C 
BRANCH   2   3
HETATM    3  C10 UNL     1      22.952   3.979  49.814  1.00  0.00     0.053 C 
HETATM    4  C7  UNL     1      24.396   4.087  49.570  1.00  0.00    -0.034 A 
HETATM    5  C6  UNL     1      25.433   3.195  49.746  1.00  0.00     0.009 A 
HETATM    6  C8  UNL     1      24.855   5.306  49.057  1.00  0.00     0.013 A 
HETATM    7  C5  UNL     1      26.749   3.459  49.458  1.00  0.00     0.001 A 
HETATM    8  C4  UNL     1      27.118   4.684  48.956  1.00  0.00     0.008 A 
HETATM    9  C3  UNL     1      26.149   5.640  48.747  1.00  0.00    -0.041 A 
HETATM   10  S1  UNL     1      23.350   6.315  48.922  1.00  0.00    -0.128 SA
HETATM   11  C9  UNL     1      22.439   5.367  50.214  1.00  0.00     0.091 C 
BRANCH   9  12
HETATM   12  C2  UNL     1      26.445   6.990  48.211  1.00  0.00     0.035 C 
HETATM   13  C1  UNL     1      26.909   7.941  49.285  1.00  0.00     0.010 C 
ENDBRANCH   9  12
ENDBRANCH   2   3
ENDBRANCH   1   2
BRANCH   1  14
HETATM   14  C12 UNL     1      21.383   1.165  48.706  1.00  0.00     0.201 C 
BRANCH  14  15
HETATM   15  C13 UNL     1      20.877   0.856  50.061  1.00  0.00    -0.062 C 
HETATM   16  C14 UNL     1      19.668   0.656  50.894  1.00  0.00     0.045 C 
HETATM   17  C15 UNL     1      21.828   0.589  50.997  1.00  0.00    -0.003 C 
BRANCH  17  18
HETATM   18  C16 UNL     1      21.936   0.230  52.454  1.00  0.00     0.148 C 
BRANCH  18  19
HETATM   19  N1  UNL     1      23.248   0.491  52.972  1.00  0.00    -0.377 N 
HETATM   20  H22 UNL     1      23.546  -0.055  53.811  1.00  0.00     0.160 HD
BRANCH  19  21
HETATM   21  C17 UNL     1      24.449   1.231  52.843  1.00  0.00     0.102 C 
HETATM   22 CL1  UNL     1      24.259   2.949  53.142  1.00  0.00    -0.065 Cl
HETATM   23  C18 UNL     1      25.614   0.725  52.530  1.00  0.00    -0.041 A 
HETATM   24  C19 UNL     1      27.088   0.992  52.272  1.00  0.00     0.042 A 
HETATM   25  C20 UNL     1      26.593  -0.376  52.161  1.00  0.00     0.042 A 
ENDBRANCH  19  21
ENDBRANCH  18  19
ENDBRANCH  17  18
ENDBRANCH  14  15
ENDBRANCH   1  14
TORSDOF 8
ENDMDL
MODEL 5
REMARK VINA RESULT:      -6.4      3.951      6.022
REMARK  8 active torsions:
REMARK  status: ('A' for Active; 'I' for Inactive)
REMARK    1  A    between atoms: C2_2  and  C3_3 
REMARK    2  A    between atoms: C10_11  and  C11_12 
REMARK    3  A    between atoms: C11_12  and  O1_13 
REMARK    4  A    between atoms: O1_13  and  C12_14 
REMARK    5  A    between atoms: C12_14  and  C13_15 
REMARK    6  A    between atoms: C15_17  and  C16_18 
REMARK    7  A    between atoms: C16_18  and  N1_19 
REMARK    8  A    between atoms: N1_19  and  C17_20 
ROOT
HETATM    1  O1  UNL     1      24.231   5.166  50.880  1.00  0.00    -0.386 OA
ENDROOT
BRANCH   1   2
HETATM    2  C11 UNL     1      23.477   4.162  51.204  1.00  0.00     0.178 C 
BRANCH   2   3
HETATM    3  C10 UNL     1      23.697   2.841  50.551  1.00  0.00     0.053 C 
HETATM    4  C7  UNL     1      24.114   1.783  51.479  1.00  0.00    -0.034 A 
HETATM    5  C6  UNL     1      25.355   1.380  51.926  1.00  0.00     0.009 A 
HETATM    6  C8  UNL     1      23.094   1.011  52.049  1.00  0.00     0.013 A 
HETATM    7  C5  UNL     1      25.572   0.357  52.815  1.00  0.00     0.001 A 
HETATM    8  C4  UNL     1      24.514  -0.353  53.329  1.00  0.00     0.008 A 
HETATM    9  C3  UNL     1      23.235  -0.022  52.940  1.00  0.00    -0.041 A 
HETATM   10  S1  UNL     1      21.575   1.693  51.321  1.00  0.00    -0.128 SA
HETATM   11  C9  UNL     1      22.431   2.361  49.831  1.00  0.00     0.091 C 
BRANCH   9  12
HETATM   12  C2  UNL     1      22.030  -0.728  53.435  1.00  0.00     0.035 C 
HETATM   13  C1  UNL     1      22.054  -0.919  54.930  1.00  0.00     0.010 C 
ENDBRANCH   9  12
ENDBRANCH   2   3
ENDBRANCH   1   2
BRANCH   1  14
HETATM   14  C12 UNL     1      24.758   5.632  49.793  1.00  0.00     0.201 C 
BRANCH  14  15
HETATM   15  C13 UNL     1      26.107   5.262  49.313  1.00  0.00    -0.062 C 
HETATM   16  C14 UNL     1      27.066   4.151  49.110  1.00  0.00     0.045 C 
HETATM   17  C15 UNL     1      26.840   6.277  48.780  1.00  0.00    -0.003 C 
BRANCH  17  18
HETATM   18  C16 UNL     1      28.191   6.516  48.164  1.00  0.00     0.148 C 
BRANCH  18  19
HETATM   19  N1  UNL     1      29.039   7.294  49.021  1.00  0.00    -0.377 N 
HETATM   20  H22 UNL     1      28.952   7.134  50.049  1.00  0.00     0.160 HD
BRANCH  19  21
HETATM   21  C17 UNL     1      30.048   8.284  49.110  1.00  0.00     0.102 C 
HETATM   22 CL1  UNL     1      31.655   7.637  49.388  1.00  0.00    -0.065 Cl
HETATM   23  C18 UNL     1      29.848   9.573  49.002  1.00  0.00    -0.041 A 
HETATM   24  C19 UNL     1      30.469  10.961  49.009  1.00  0.00     0.042 A 
HETATM   25  C20 UNL     1      29.030  10.837  48.806  1.00  0.00     0.042 A 
ENDBRANCH  19  21
ENDBRANCH  18  19
ENDBRANCH  17  18
ENDBRANCH  14  15
ENDBRANCH   1  14
TORSDOF 8
ENDMDL
MODEL 6
REMARK VINA RESULT:      -6.3      3.374      5.816
REMARK  8 active torsions:
REMARK  status: ('A' for Active; 'I' for Inactive)
REMARK    1  A    between atoms: C2_2  and  C3_3 
REMARK    2  A    between atoms: C10_11  and  C11_12 
REMARK    3  A    between atoms: C11_12  and  O1_13 
REMARK    4  A    between atoms: O1_13  and  C12_14 
REMARK    5  A    between atoms: C12_14  and  C13_15 
REMARK    6  A    between atoms: C15_17  and  C16_18 
REMARK    7  A    between atoms: C16_18  and  N1_19 
REMARK    8  A    between atoms: N1_19  and  C17_20 
ROOT
HETATM    1  O1  UNL     1      21.746   3.611  51.969  1.00  0.00    -0.386 OA
ENDROOT
BRANCH   1   2
HETATM    2  C11 UNL     1      20.862   3.006  51.239  1.00  0.00     0.178 C 
BRANCH   2   3
HETATM    3  C10 UNL     1      21.089   1.589  50.838  1.00  0.00     0.053 C 
HETATM    4  C7  UNL     1      20.970   0.633  51.946  1.00  0.00    -0.034 A 
HETATM    5  C6  UNL     1      21.885   0.159  52.862  1.00  0.00     0.009 A 
HETATM    6  C8  UNL     1      19.704   0.072  52.155  1.00  0.00     0.013 A 
HETATM    7  C5  UNL     1      21.602  -0.745  53.855  1.00  0.00     0.001 A 
HETATM    8  C4  UNL     1      20.331  -1.250  53.994  1.00  0.00     0.008 A 
HETATM    9  C3  UNL     1      19.349  -0.834  53.123  1.00  0.00    -0.041 A 
HETATM   10  S1  UNL     1      18.679   0.812  50.851  1.00  0.00    -0.128 SA
HETATM   11  C9  UNL     1      20.108   1.159  49.740  1.00  0.00     0.091 C 
BRANCH   9  12
HETATM   12  C2  UNL     1      17.950  -1.320  53.188  1.00  0.00     0.035 C 
HETATM   13  C1  UNL     1      17.856  -2.715  53.751  1.00  0.00     0.010 C 
ENDBRANCH   9  12
ENDBRANCH   2   3
ENDBRANCH   1   2
BRANCH   1  14
HETATM   14  C12 UNL     1      22.955   4.046  51.812  1.00  0.00     0.201 C 
BRANCH  14  15
HETATM   15  C13 UNL     1      23.910   3.476  50.838  1.00  0.00    -0.062 C 
HETATM   16  C14 UNL     1      24.122   3.087  49.424  1.00  0.00     0.045 C 
HETATM   17  C15 UNL     1      25.149   3.192  51.325  1.00  0.00    -0.003 C 
BRANCH  17  18
HETATM   18  C16 UNL     1      26.465   2.633  50.859  1.00  0.00     0.148 C 
BRANCH  18  19
HETATM   19  N1  UNL     1      26.833   1.453  51.588  1.00  0.00    -0.377 N 
HETATM   20  H22 UNL     1      27.206   0.649  51.037  1.00  0.00     0.160 HD
BRANCH  19  21
HETATM   21  C17 UNL     1      26.929   0.823  52.853  1.00  0.00     0.102 C 
HETATM   22 CL1  UNL     1      25.376   0.474  53.592  1.00  0.00    -0.065 Cl
HETATM   23  C18 UNL     1      28.048   0.512  53.455  1.00  0.00    -0.041 A 
HETATM   24  C19 UNL     1      28.705  -0.105  54.679  1.00  0.00     0.042 A 
HETATM   25  C20 UNL     1      29.555   0.418  53.616  1.00  0.00     0.042 A 
ENDBRANCH  19  21
ENDBRANCH  18  19
ENDBRANCH  17  18
ENDBRANCH  14  15
ENDBRANCH   1  14
TORSDOF 8
ENDMDL
MODEL 7
REMARK VINA RESULT:      -6.2      3.767      5.567
REMARK  8 active torsions:
REMARK  status: ('A' for Active; 'I' for Inactive)
REMARK    1  A    between atoms: C2_2  and  C3_3 
REMARK    2  A    between atoms: C10_11  and  C11_12 
REMARK    3  A    between atoms: C11_12  and  O1_13 
REMARK    4  A    between atoms: O1_13  and  C12_14 
REMARK    5  A    between atoms: C12_14  and  C13_15 
REMARK    6  A    between atoms: C15_17  and  C16_18 
REMARK    7  A    between atoms: C16_18  and  N1_19 
REMARK    8  A    between atoms: N1_19  and  C17_20 
ROOT
HETATM    1  O1  UNL     1      26.925   3.046  50.408  1.00  0.00    -0.386 OA
ENDROOT
BRANCH   1   2
HETATM    2  C11 UNL     1      26.351   2.163  51.165  1.00  0.00     0.178 C 
BRANCH   2   3
HETATM    3  C10 UNL     1      25.279   2.593  52.107  1.00  0.00     0.053 C 
HETATM    4  C7  UNL     1      23.981   1.954  51.861  1.00  0.00    -0.034 A 
HETATM    5  C6  UNL     1      22.922   2.293  51.045  1.00  0.00     0.009 A 
HETATM    6  C8  UNL     1      23.724   0.768  52.560  1.00  0.00     0.013 A 
HETATM    7  C5  UNL     1      21.763   1.569  50.926  1.00  0.00     0.001 A 
HETATM    8  C4  UNL     1      21.588   0.413  51.649  1.00  0.00     0.008 A 
HETATM    9  C3  UNL     1      22.594  -0.006  52.491  1.00  0.00    -0.041 A 
HETATM   10  S1  UNL     1      25.218   0.523  53.564  1.00  0.00    -0.128 SA
HETATM   11  C9  UNL     1      25.673   2.309  53.562  1.00  0.00     0.091 C 
BRANCH   9  12
HETATM   12  C2  UNL     1      22.501  -1.236  53.313  1.00  0.00     0.035 C 
HETATM   13  C1  UNL     1      21.366  -1.177  54.303  1.00  0.00     0.010 C 
ENDBRANCH   9  12
ENDBRANCH   2   3
ENDBRANCH   1   2
BRANCH   1  14
HETATM   14  C12 UNL     1      26.544   3.932  49.544  1.00  0.00     0.201 C 
BRANCH  14  15
HETATM   15  C13 UNL     1      27.463   4.895  48.901  1.00  0.00    -0.062 C 
HETATM   16  C14 UNL     1      28.779   5.071  48.243  1.00  0.00     0.045 C 
HETATM   17  C15 UNL     1      26.988   6.163  48.770  1.00  0.00    -0.003 C 
BRANCH  17  18
HETATM   18  C16 UNL     1      27.420   7.502  48.236  1.00  0.00     0.148 C 
BRANCH  18  19
HETATM   19  N1  UNL     1      28.429   8.104  49.059  1.00  0.00    -0.377 N 
HETATM   20  H22 UNL     1      28.396   7.896  50.082  1.00  0.00     0.160 HD
BRANCH  19  21
HETATM   21  C17 UNL     1      29.570   8.941  49.114  1.00  0.00     0.102 C 
HETATM   22 CL1  UNL     1      31.075   8.074  49.362  1.00  0.00    -0.065 Cl
HETATM   23  C18 UNL     1      29.553  10.244  48.997  1.00  0.00    -0.041 A 
HETATM   24  C19 UNL     1      30.364  11.530  48.975  1.00  0.00     0.042 A 
HETATM   25  C20 UNL     1      28.918  11.611  48.806  1.00  0.00     0.042 A 
ENDBRANCH  19  21
ENDBRANCH  18  19
ENDBRANCH  17  18
ENDBRANCH  14  15
ENDBRANCH   1  14
TORSDOF 8
ENDMDL
MODEL 8
REMARK VINA RESULT:      -6.2      3.963      8.097
REMARK  8 active torsions:
REMARK  status: ('A' for Active; 'I' for Inactive)
REMARK    1  A    between atoms: C2_2  and  C3_3 
REMARK    2  A    between atoms: C10_11  and  C11_12 
REMARK    3  A    between atoms: C11_12  and  O1_13 
REMARK    4  A    between atoms: O1_13  and  C12_14 
REMARK    5  A    between atoms: C12_14  and  C13_15 
REMARK    6  A    between atoms: C15_17  and  C16_18 
REMARK    7  A    between atoms: C16_18  and  N1_19 
REMARK    8  A    between atoms: N1_19  and  C17_20 
ROOT
HETATM    1  O1  UNL     1      24.324   3.310  49.308  1.00  0.00    -0.386 OA
ENDROOT
BRANCH   1   2
HETATM    2  C11 UNL     1      24.383   4.594  49.134  1.00  0.00     0.178 C 
BRANCH   2   3
HETATM    3  C10 UNL     1      25.392   5.390  49.889  1.00  0.00     0.053 C 
HETATM    4  C7  UNL     1      26.567   5.766  49.094  1.00  0.00    -0.034 A 
HETATM    5  C6  UNL     1      27.763   5.125  48.851  1.00  0.00     0.009 A 
HETATM    6  C8  UNL     1      26.508   6.999  48.434  1.00  0.00     0.013 A 
HETATM    7  C5  UNL     1      28.772   5.622  48.065  1.00  0.00     0.001 A 
HETATM    8  C4  UNL     1      28.636   6.844  47.450  1.00  0.00     0.008 A 
HETATM    9  C3  UNL     1      27.473   7.559  47.636  1.00  0.00    -0.041 A 
HETATM   10  S1  UNL     1      24.882   7.664  48.898  1.00  0.00    -0.128 SA
HETATM   11  C9  UNL     1      24.774   6.676  50.451  1.00  0.00     0.091 C 
BRANCH   9  12
HETATM   12  C2  UNL     1      27.231   8.884  47.019  1.00  0.00     0.035 C 
HETATM   13  C1  UNL     1      27.853  10.005  47.811  1.00  0.00     0.010 C 
ENDBRANCH   9  12
ENDBRANCH   2   3
ENDBRANCH   1   2
BRANCH   1  14
HETATM   14  C12 UNL     1      23.823   2.504  50.188  1.00  0.00     0.201 C 
BRANCH  14  15
HETATM   15  C13 UNL     1      24.116   2.587  51.635  1.00  0.00    -0.062 C 
HETATM   16  C14 UNL     1      23.955   3.395  52.867  1.00  0.00     0.045 C 
HETATM   17  C15 UNL     1      24.761   1.513  52.166  1.00  0.00    -0.003 C 
BRANCH  17  18
HETATM   18  C16 UNL     1      25.299   1.036  53.488  1.00  0.00     0.148 C 
BRANCH  18  19
HETATM   19  N1  UNL     1      25.902  -0.262  53.381  1.00  0.00    -0.377 N 
HETATM   20  H22 UNL     1      25.314  -1.084  53.644  1.00  0.00     0.160 HD
BRANCH  19  21
HETATM   21  C17 UNL     1      27.057  -1.009  53.042  1.00  0.00     0.102 C 
HETATM   22 CL1  UNL     1      26.735  -2.380  51.997  1.00  0.00    -0.065 Cl
HETATM   23  C18 UNL     1      28.272  -0.739  53.448  1.00  0.00    -0.041 A 
HETATM   24  C19 UNL     1      29.739  -1.134  53.418  1.00  0.00     0.042 A 
HETATM   25  C20 UNL     1      29.344   0.034  54.196  1.00  0.00     0.042 A 
ENDBRANCH  19  21
ENDBRANCH  18  19
ENDBRANCH  17  18
ENDBRANCH  14  15
ENDBRANCH   1  14
TORSDOF 8
ENDMDL
MODEL 9
REMARK VINA RESULT:      -6.2      3.992      6.414
REMARK  8 active torsions:
REMARK  status: ('A' for Active; 'I' for Inactive)
REMARK    1  A    between atoms: C2_2  and  C3_3 
REMARK    2  A    between atoms: C10_11  and  C11_12 
REMARK    3  A    between atoms: C11_12  and  O1_13 
REMARK    4  A    between atoms: O1_13  and  C12_14 
REMARK    5  A    between atoms: C12_14  and  C13_15 
REMARK    6  A    between atoms: C15_17  and  C16_18 
REMARK    7  A    between atoms: C16_18  and  N1_19 
REMARK    8  A    between atoms: N1_19  and  C17_20 
ROOT
HETATM    1  O1  UNL     1      21.468   0.922  49.873  1.00  0.00    -0.386 OA
ENDROOT
BRANCH   1   2
HETATM    2  C11 UNL     1      22.443   1.745  50.103  1.00  0.00     0.178 C 
BRANCH   2   3
HETATM    3  C10 UNL     1      22.674   2.238  51.490  1.00  0.00     0.053 C 
HETATM    4  C7  UNL     1      23.046   1.183  52.441  1.00  0.00    -0.034 A 
HETATM    5  C6  UNL     1      22.291   0.344  53.233  1.00  0.00     0.009 A 
HETATM    6  C8  UNL     1      24.415   0.941  52.604  1.00  0.00     0.013 A 
HETATM    7  C5  UNL     1      22.806  -0.608  54.077  1.00  0.00     0.001 A 
HETATM    8  C4  UNL     1      24.166  -0.783  54.180  1.00  0.00     0.008 A 
HETATM    9  C3  UNL     1      25.000   0.011  53.425  1.00  0.00    -0.041 A 
HETATM   10  S1  UNL     1      25.205   2.146  51.497  1.00  0.00    -0.128 SA
HETATM   11  C9  UNL     1      23.773   3.307  51.523  1.00  0.00     0.091 C 
BRANCH   9  12
HETATM   12  C2  UNL     1      26.478  -0.099  53.466  1.00  0.00     0.035 C 
HETATM   13  C1  UNL     1      26.977  -1.348  52.786  1.00  0.00     0.010 C 
ENDBRANCH   9  12
ENDBRANCH   2   3
ENDBRANCH   1   2
BRANCH   1  14
HETATM   14  C12 UNL     1      20.189   1.010  49.690  1.00  0.00     0.201 C 
BRANCH  14  15
HETATM   15  C13 UNL     1      19.233   1.379  50.755  1.00  0.00    -0.062 C 
HETATM   16  C14 UNL     1      18.951   2.314  51.870  1.00  0.00     0.045 C 
HETATM   17  C15 UNL     1      18.084   0.649  50.792  1.00  0.00    -0.003 C 
BRANCH  17  18
HETATM   18  C16 UNL     1      16.811   0.552  51.588  1.00  0.00     0.148 C 
BRANCH  18  19
HETATM   19  N1  UNL     1      16.901  -0.441  52.619  1.00  0.00    -0.377 N 
HETATM   20  H22 UNL     1      16.238  -0.357  53.422  1.00  0.00     0.160 HD
BRANCH  19  21
HETATM   21  C17 UNL     1      17.552  -1.609  53.088  1.00  0.00     0.102 C 
HETATM   22 CL1  UNL     1      19.207  -1.341  53.604  1.00  0.00    -0.065 Cl
HETATM   23  C18 UNL     1      17.010  -2.799  53.146  1.00  0.00    -0.041 A 
HETATM   24  C19 UNL     1      17.194  -4.263  53.513  1.00  0.00     0.042 A 
HETATM   25  C20 UNL     1      15.909  -3.830  52.975  1.00  0.00     0.042 A 
ENDBRANCH  19  21
ENDBRANCH  18  19
ENDBRANCH  17  18
ENDBRANCH  14  15
ENDBRANCH   1  14
TORSDOF 8
ENDMDL
