MODEL 1
REMARK VINA RESULT:      -7.8      0.000      0.000
REMARK  3 active torsions:
REMARK  status: ('A' for Active; 'I' for Inactive)
REMARK    1  A    between atoms: C3_3  and  C5_5 
REMARK    2  A    between atoms: C6_6  and  C7_7 
REMARK    3  A    between atoms: C11_15  and  C12_16 
ROOT
HETATM    1  C7  UNL     1      25.925   1.879  51.572  1.00  0.00     0.061 C 
HETATM    2  N1  UNL     1      26.539   2.893  51.082  1.00  0.00    -0.183 NA
HETATM    3  N2  UNL     1      25.784   4.058  51.087  1.00  0.00    -0.298 N 
HETATM    4  C8  UNL     1      24.432   3.614  51.186  1.00  0.00     0.176 C 
HETATM    5  S1  UNL     1      23.459   4.824  52.112  1.00  0.00    -0.112 SA
HETATM    6  C9  UNL     1      21.746   4.476  51.745  1.00  0.00     0.071 C 
HETATM    7  C10 UNL     1      21.002   3.413  51.846  1.00  0.00     0.142 C 
HETATM    8  O1  UNL     1      21.321   2.146  52.294  1.00  0.00    -0.356 OA
HETATM    9  C11 UNL     1      22.301   1.167  52.281  1.00  0.00     0.146 C 
HETATM   10  C14 UNL     1      23.511   1.405  51.461  1.00  0.00     0.048 C 
HETATM   11  C15 UNL     1      24.552   2.313  51.995  1.00  0.00     0.076 C 
HETATM   12  H10 UNL     1      26.050   5.049  51.034  1.00  0.00     0.183 HD
ENDROOT
BRANCH   1  13
HETATM   13  C6  UNL     1      26.516   0.528  51.677  1.00  0.00     0.030 C 
HETATM   14  C5  UNL     1      27.076  -0.163  52.638  1.00  0.00     0.008 C 
BRANCH  14  15
HETATM   15  C3  UNL     1      27.431  -0.058  54.040  1.00  0.00    -0.066 C 
HETATM   16  C2  UNL     1      28.702  -0.182  54.480  1.00  0.00    -0.024 C 
HETATM   17  C1  UNL     1      29.765  -0.435  53.481  1.00  0.00     0.036 C 
HETATM   18  C4  UNL     1      26.419   0.198  55.117  1.00  0.00     0.048 C 
ENDBRANCH  14  15
ENDBRANCH   1  13
BRANCH   9  19
HETATM   19  C12 UNL     1      22.557   0.555  53.646  1.00  0.00     0.107 C 
HETATM   20  C13 UNL     1      23.229  -0.815  53.456  1.00  0.00     0.029 C 
HETATM   21 CL1  UNL     1      21.062   0.202  54.539  1.00  0.00    -0.123 Cl
ENDBRANCH   9  19
TORSDOF 3
ENDMDL
MODEL 2
REMARK VINA RESULT:      -7.4      1.560      2.077
REMARK  3 active torsions:
REMARK  status: ('A' for Active; 'I' for Inactive)
REMARK    1  A    between atoms: C3_3  and  C5_5 
REMARK    2  A    between atoms: C6_6  and  C7_7 
REMARK    3  A    between atoms: C11_15  and  C12_16 
ROOT
HETATM    1  C7  UNL     1      25.632   1.415  53.548  1.00  0.00     0.061 C 
HETATM    2  N1  UNL     1      26.160   2.438  52.980  1.00  0.00    -0.183 NA
HETATM    3  N2  UNL     1      25.279   3.141  52.170  1.00  0.00    -0.298 N 
HETATM    4  C8  UNL     1      24.238   2.212  51.871  1.00  0.00     0.176 C 
HETATM    5  S1  UNL     1      22.669   3.090  51.687  1.00  0.00    -0.112 SA
HETATM    6  C9  UNL     1      21.570   1.979  50.823  1.00  0.00     0.071 C 
HETATM    7  C10 UNL     1      21.163   0.763  51.045  1.00  0.00     0.142 C 
HETATM    8  O1  UNL     1      21.469  -0.100  52.079  1.00  0.00    -0.356 OA
HETATM    9  C11 UNL     1      22.492  -0.549  52.898  1.00  0.00     0.146 C 
HETATM   10  C14 UNL     1      23.859  -0.037  52.648  1.00  0.00     0.048 C 
HETATM   11  C15 UNL     1      24.195   1.324  53.125  1.00  0.00     0.076 C 
HETATM   12  H10 UNL     1      25.292   4.106  51.817  1.00  0.00     0.183 HD
ENDROOT
BRANCH   1  13
HETATM   13  C6  UNL     1      26.364   0.508  54.457  1.00  0.00     0.030 C 
HETATM   14  C5  UNL     1      27.626   0.238  54.674  1.00  0.00     0.008 C 
BRANCH  14  15
HETATM   15  C3  UNL     1      28.952   0.611  54.218  1.00  0.00    -0.066 C 
HETATM   16  C2  UNL     1      29.785  -0.262  53.613  1.00  0.00    -0.024 C 
HETATM   17  C1  UNL     1      29.315  -1.653  53.414  1.00  0.00     0.036 C 
HETATM   18  C4  UNL     1      29.506   1.996  54.378  1.00  0.00     0.048 C 
ENDBRANCH  14  15
ENDBRANCH   1  13
BRANCH   9  19
HETATM   19  C12 UNL     1      22.095  -0.641  54.360  1.00  0.00     0.107 C 
HETATM   20  C13 UNL     1      21.512  -2.039  54.628  1.00  0.00     0.029 C 
HETATM   21 CL1  UNL     1      20.789   0.481  54.795  1.00  0.00    -0.123 Cl
ENDBRANCH   9  19
TORSDOF 3
ENDMDL
MODEL 3
REMARK VINA RESULT:      -7.1      2.853      3.615
REMARK  3 active torsions:
REMARK  status: ('A' for Active; 'I' for Inactive)
REMARK    1  A    between atoms: C3_3  and  C5_5 
REMARK    2  A    between atoms: C6_6  and  C7_7 
REMARK    3  A    between atoms: C11_15  and  C12_16 
ROOT
HETATM    1  C7  UNL     1      24.845   0.517  53.048  1.00  0.00     0.061 C 
HETATM    2  N1  UNL     1      24.459  -0.393  53.865  1.00  0.00    -0.183 NA
HETATM    3  N2  UNL     1      23.079  -0.540  53.923  1.00  0.00    -0.298 N 
HETATM    4  C8  UNL     1      22.561   0.692  53.423  1.00  0.00     0.176 C 
HETATM    5  S1  UNL     1      20.998   0.393  52.565  1.00  0.00    -0.112 SA
HETATM    6  C9  UNL     1      20.182   1.977  52.444  1.00  0.00     0.071 C 
HETATM    7  C10 UNL     1      20.529   3.132  51.957  1.00  0.00     0.142 C 
HETATM    8  O1  UNL     1      21.705   3.521  51.345  1.00  0.00    -0.356 OA
HETATM    9  C11 UNL     1      23.083   3.393  51.385  1.00  0.00     0.146 C 
HETATM   10  C14 UNL     1      23.678   2.614  52.495  1.00  0.00     0.048 C 
HETATM   11  C15 UNL     1      23.633   1.135  52.415  1.00  0.00     0.076 C 
HETATM   12  H10 UNL     1      22.484  -1.316  54.239  1.00  0.00     0.183 HD
ENDROOT
BRANCH   1  13
HETATM   13  C6  UNL     1      26.263   0.862  52.808  1.00  0.00     0.030 C 
HETATM   14  C5  UNL     1      27.381   0.185  52.747  1.00  0.00     0.008 C 
BRANCH  14  15
HETATM   15  C3  UNL     1      27.883  -1.172  52.860  1.00  0.00    -0.066 C 
HETATM   16  C2  UNL     1      29.133  -1.450  53.286  1.00  0.00    -0.024 C 
HETATM   17  C1  UNL     1      30.017  -0.319  53.649  1.00  0.00     0.036 C 
HETATM   18  C4  UNL     1      27.056  -2.375  52.515  1.00  0.00     0.048 C 
ENDBRANCH  14  15
ENDBRANCH   1  13
BRANCH   9  19
HETATM   19  C12 UNL     1      23.703   3.150  50.021  1.00  0.00     0.107 C 
HETATM   20  C13 UNL     1      25.203   3.483  50.092  1.00  0.00     0.029 C 
HETATM   21 CL1  UNL     1      23.062   4.231  48.765  1.00  0.00    -0.123 Cl
ENDBRANCH   9  19
TORSDOF 3
ENDMDL
MODEL 4
REMARK VINA RESULT:      -6.7      2.118      3.088
REMARK  3 active torsions:
REMARK  status: ('A' for Active; 'I' for Inactive)
REMARK    1  A    between atoms: C3_3  and  C5_5 
REMARK    2  A    between atoms: C6_6  and  C7_7 
REMARK    3  A    between atoms: C11_15  and  C12_16 
ROOT
HETATM    1  C7  UNL     1      23.370   3.410  52.700  1.00  0.00     0.061 C 
HETATM    2  N1  UNL     1      23.243   4.591  52.215  1.00  0.00    -0.183 NA
HETATM    3  N2  UNL     1      22.015   4.816  51.608  1.00  0.00    -0.298 N 
HETATM    4  C8  UNL     1      21.513   3.513  51.310  1.00  0.00     0.176 C 
HETATM    5  S1  UNL     1      19.709   3.514  51.421  1.00  0.00    -0.112 SA
HETATM    6  C9  UNL     1      19.152   2.058  50.549  1.00  0.00     0.071 C 
HETATM    7  C10 UNL     1      19.419   0.789  50.655  1.00  0.00     0.142 C 
HETATM    8  O1  UNL     1      20.264   0.130  51.526  1.00  0.00    -0.356 OA
HETATM    9  C11 UNL     1      21.495   0.196  52.157  1.00  0.00     0.146 C 
HETATM   10  C14 UNL     1      22.388   1.329  51.823  1.00  0.00     0.048 C 
HETATM   11  C15 UNL     1      22.105   2.648  52.434  1.00  0.00     0.076 C 
HETATM   12  H10 UNL     1      21.507   5.680  51.385  1.00  0.00     0.183 HD
ENDROOT
BRANCH   1  13
HETATM   13  C6  UNL     1      24.584   2.929  53.394  1.00  0.00     0.030 C 
HETATM   14  C5  UNL     1      25.657   2.275  53.030  1.00  0.00     0.008 C 
BRANCH  14  15
HETATM   15  C3  UNL     1      26.268   1.676  51.858  1.00  0.00    -0.066 C 
HETATM   16  C2  UNL     1      26.584   0.365  51.793  1.00  0.00    -0.024 C 
HETATM   17  C1  UNL     1      26.290  -0.484  52.969  1.00  0.00     0.036 C 
HETATM   18  C4  UNL     1      26.598   2.462  50.624  1.00  0.00     0.048 C 
ENDBRANCH  14  15
ENDBRANCH   1  13
BRANCH   9  19
HETATM   19  C12 UNL     1      21.434  -0.165  53.631  1.00  0.00     0.107 C 
HETATM   20  C13 UNL     1      22.846  -0.546  54.106  1.00  0.00     0.029 C 
HETATM   21 CL1  UNL     1      20.448  -1.608  53.950  1.00  0.00    -0.123 Cl
ENDBRANCH   9  19
TORSDOF 3
ENDMDL
MODEL 5
REMARK VINA RESULT:      -6.6      8.828     10.796
REMARK  3 active torsions:
REMARK  status: ('A' for Active; 'I' for Inactive)
REMARK    1  A    between atoms: C3_3  and  C5_5 
REMARK    2  A    between atoms: C6_6  and  C7_7 
REMARK    3  A    between atoms: C11_15  and  C12_16 
ROOT
HETATM    1  C7  UNL     1      30.337   6.506  48.257  1.00  0.00     0.061 C 
HETATM    2  N1  UNL     1      29.933   7.683  48.572  1.00  0.00    -0.183 NA
HETATM    3  N2  UNL     1      30.937   8.642  48.543  1.00  0.00    -0.298 N 
HETATM    4  C8  UNL     1      32.152   7.900  48.648  1.00  0.00     0.176 C 
HETATM    5  S1  UNL     1      33.462   8.743  47.731  1.00  0.00    -0.112 SA
HETATM    6  C9  UNL     1      35.005   8.071  48.329  1.00  0.00     0.071 C 
HETATM    7  C10 UNL     1      35.485   6.866  48.420  1.00  0.00     0.142 C 
HETATM    8  O1  UNL     1      34.922   5.656  48.061  1.00  0.00    -0.356 OA
HETATM    9  C11 UNL     1      33.745   4.928  48.054  1.00  0.00     0.146 C 
HETATM   10  C14 UNL     1      32.552   5.525  48.698  1.00  0.00     0.048 C 
HETATM   11  C15 UNL     1      31.806   6.570  47.959  1.00  0.00     0.076 C 
HETATM   12  H10 UNL     1      30.906   9.666  48.468  1.00  0.00     0.183 HD
ENDROOT
BRANCH   1  13
HETATM   13  C6  UNL     1      29.459   5.317  48.214  1.00  0.00     0.030 C 
HETATM   14  C5  UNL     1      28.174   5.112  48.356  1.00  0.00     0.008 C 
BRANCH  14  15
HETATM   15  C3  UNL     1      26.941   5.831  48.614  1.00  0.00    -0.066 C 
HETATM   16  C2  UNL     1      25.954   5.327  49.385  1.00  0.00    -0.024 C 
HETATM   17  C1  UNL     1      26.149   3.987  49.984  1.00  0.00     0.036 C 
HETATM   18  C4  UNL     1      26.661   7.192  48.049  1.00  0.00     0.048 C 
ENDBRANCH  14  15
ENDBRANCH   1  13
BRANCH   9  19
HETATM   19  C12 UNL     1      33.481   4.227  46.733  1.00  0.00     0.107 C 
HETATM   20  C13 UNL     1      32.463   3.097  46.967  1.00  0.00     0.029 C 
HETATM   21 CL1  UNL     1      34.917   3.411  46.083  1.00  0.00    -0.123 Cl
ENDBRANCH   9  19
TORSDOF 3
ENDMDL
MODEL 6
REMARK VINA RESULT:      -6.6      2.276      2.713
REMARK  3 active torsions:
REMARK  status: ('A' for Active; 'I' for Inactive)
REMARK    1  A    between atoms: C3_3  and  C5_5 
REMARK    2  A    between atoms: C6_6  and  C7_7 
REMARK    3  A    between atoms: C11_15  and  C12_16 
ROOT
HETATM    1  C7  UNL     1      26.152   2.597  50.984  1.00  0.00     0.061 C 
HETATM    2  N1  UNL     1      27.180   3.103  50.407  1.00  0.00    -0.183 NA
HETATM    3  N2  UNL     1      26.907   4.269  49.705  1.00  0.00    -0.298 N 
HETATM    4  C8  UNL     1      25.499   4.232  49.470  1.00  0.00     0.176 C 
HETATM    5  S1  UNL     1      24.837   5.913  49.461  1.00  0.00    -0.112 SA
HETATM    6  C9  UNL     1      23.242   5.820  48.662  1.00  0.00     0.071 C 
HETATM    7  C10 UNL     1      22.168   5.118  48.878  1.00  0.00     0.142 C 
HETATM    8  O1  UNL     1      21.907   4.171  49.850  1.00  0.00    -0.356 OA
HETATM    9  C11 UNL     1      22.451   3.111  50.555  1.00  0.00     0.146 C 
HETATM   10  C14 UNL     1      23.819   2.668  50.200  1.00  0.00     0.048 C 
HETATM   11  C15 UNL     1      24.965   3.467  50.692  1.00  0.00     0.076 C 
HETATM   12  H10 UNL     1      27.511   5.036  49.385  1.00  0.00     0.183 HD
ENDROOT
BRANCH   1  13
HETATM   13  C6  UNL     1      26.185   1.359  51.791  1.00  0.00     0.030 C 
HETATM   14  C5  UNL     1      27.018   0.845  52.660  1.00  0.00     0.008 C 
BRANCH  14  15
HETATM   15  C3  UNL     1      28.286   1.126  53.308  1.00  0.00    -0.066 C 
HETATM   16  C2  UNL     1      29.169   0.157  53.628  1.00  0.00    -0.024 C 
HETATM   17  C1  UNL     1      28.819  -1.244  53.301  1.00  0.00     0.036 C 
HETATM   18  C4  UNL     1      28.720   2.515  53.673  1.00  0.00     0.048 C 
ENDBRANCH  14  15
ENDBRANCH   1  13
BRANCH   9  19
HETATM   19  C12 UNL     1      22.158   3.167  52.044  1.00  0.00     0.107 C 
HETATM   20  C13 UNL     1      20.658   2.901  52.263  1.00  0.00     0.029 C 
HETATM   21 CL1  UNL     1      22.436   4.775  52.745  1.00  0.00    -0.123 Cl
ENDBRANCH   9  19
TORSDOF 3
ENDMDL
MODEL 7
REMARK VINA RESULT:      -6.4      3.671      4.908
REMARK  3 active torsions:
REMARK  status: ('A' for Active; 'I' for Inactive)
REMARK    1  A    between atoms: C3_3  and  C5_5 
REMARK    2  A    between atoms: C6_6  and  C7_7 
REMARK    3  A    between atoms: C11_15  and  C12_16 
ROOT
HETATM    1  C7  UNL     1      23.557   3.218  52.361  1.00  0.00     0.061 C 
HETATM    2  N1  UNL     1      24.035   4.090  53.171  1.00  0.00    -0.183 NA
HETATM    3  N2  UNL     1      23.880   5.399  52.734  1.00  0.00    -0.298 N 
HETATM    4  C8  UNL     1      23.681   5.291  51.325  1.00  0.00     0.176 C 
HETATM    5  S1  UNL     1      22.588   6.616  50.760  1.00  0.00    -0.112 SA
HETATM    6  C9  UNL     1      22.811   6.730  48.992  1.00  0.00     0.071 C 
HETATM    7  C10 UNL     1      22.711   5.876  48.016  1.00  0.00     0.142 C 
HETATM    8  O1  UNL     1      22.380   4.534  48.040  1.00  0.00    -0.356 OA
HETATM    9  C11 UNL     1      22.552   3.351  48.739  1.00  0.00     0.146 C 
HETATM   10  C14 UNL     1      23.467   3.358  49.904  1.00  0.00     0.048 C 
HETATM   11  C15 UNL     1      22.976   3.934  51.177  1.00  0.00     0.076 C 
HETATM   12  H10 UNL     1      23.892   6.296  53.235  1.00  0.00     0.183 HD
ENDROOT
BRANCH   1  13
HETATM   13  C6  UNL     1      23.598   1.759  52.601  1.00  0.00     0.030 C 
HETATM   14  C5  UNL     1      22.719   0.855  52.948  1.00  0.00     0.008 C 
BRANCH  14  15
HETATM   15  C3  UNL     1      21.312   0.721  53.279  1.00  0.00    -0.066 C 
HETATM   16  C2  UNL     1      20.864  -0.152  54.205  1.00  0.00    -0.024 C 
HETATM   17  C1  UNL     1      21.855  -1.001  54.905  1.00  0.00     0.036 C 
HETATM   18  C4  UNL     1      20.242   1.541  52.621  1.00  0.00     0.048 C 
ENDBRANCH  14  15
ENDBRANCH   1  13
BRANCH   9  19
HETATM   19  C12 UNL     1      21.262   2.577  48.937  1.00  0.00     0.107 C 
HETATM   20  C13 UNL     1      21.584   1.073  48.954  1.00  0.00     0.029 C 
HETATM   21 CL1  UNL     1      20.120   2.777  47.591  1.00  0.00    -0.123 Cl
ENDBRANCH   9  19
TORSDOF 3
ENDMDL
MODEL 8
REMARK VINA RESULT:      -6.3      2.707      5.564
REMARK  3 active torsions:
REMARK  status: ('A' for Active; 'I' for Inactive)
REMARK    1  A    between atoms: C3_3  and  C5_5 
REMARK    2  A    between atoms: C6_6  and  C7_7 
REMARK    3  A    between atoms: C11_15  and  C12_16 
ROOT
HETATM    1  C7  UNL     1      24.471   2.866  50.773  1.00  0.00     0.061 C 
HETATM    2  N1  UNL     1      25.645   3.203  50.381  1.00  0.00    -0.183 NA
HETATM    3  N2  UNL     1      26.648   2.358  50.834  1.00  0.00    -0.298 N 
HETATM    4  C8  UNL     1      26.084   1.697  51.966  1.00  0.00     0.176 C 
HETATM    5  S1  UNL     1      26.757   0.025  52.096  1.00  0.00    -0.112 SA
HETATM    6  C9  UNL     1      26.428  -0.520  53.764  1.00  0.00     0.071 C 
HETATM    7  C10 UNL     1      25.347  -0.619  54.481  1.00  0.00     0.142 C 
HETATM    8  O1  UNL     1      24.038  -0.317  54.160  1.00  0.00    -0.356 OA
HETATM    9  C11 UNL     1      23.228   0.591  53.498  1.00  0.00     0.146 C 
HETATM   10  C14 UNL     1      23.866   1.788  52.903  1.00  0.00     0.048 C 
HETATM   11  C15 UNL     1      24.588   1.632  51.619  1.00  0.00     0.076 C 
HETATM   12  H10 UNL     1      27.603   2.183  50.497  1.00  0.00     0.183 HD
ENDROOT
BRANCH   1  13
HETATM   13  C6  UNL     1      23.239   3.606  50.424  1.00  0.00     0.030 C 
HETATM   14  C5  UNL     1      22.302   3.465  49.521  1.00  0.00     0.008 C 
BRANCH  14  15
HETATM   15  C3  UNL     1      21.919   2.600  48.422  1.00  0.00    -0.066 C 
HETATM   16  C2  UNL     1      21.848   3.035  47.146  1.00  0.00    -0.024 C 
HETATM   17  C1  UNL     1      22.177   4.452  46.870  1.00  0.00     0.036 C 
HETATM   18  C4  UNL     1      21.571   1.153  48.611  1.00  0.00     0.048 C 
ENDBRANCH  14  15
ENDBRANCH   1  13
BRANCH   9  19
HETATM   19  C12 UNL     1      22.165  -0.068  52.638  1.00  0.00     0.107 C 
HETATM   20  C13 UNL     1      21.082   0.973  52.306  1.00  0.00     0.029 C 
HETATM   21 CL1  UNL     1      21.296  -1.365  53.484  1.00  0.00    -0.123 Cl
ENDBRANCH   9  19
TORSDOF 3
ENDMDL
MODEL 9
REMARK VINA RESULT:      -6.3      2.940      3.826
REMARK  3 active torsions:
REMARK  status: ('A' for Active; 'I' for Inactive)
REMARK    1  A    between atoms: C3_3  and  C5_5 
REMARK    2  A    between atoms: C6_6  and  C7_7 
REMARK    3  A    between atoms: C11_15  and  C12_16 
ROOT
HETATM    1  C7  UNL     1      24.591   0.581  52.203  1.00  0.00     0.061 C 
HETATM    2  N1  UNL     1      23.782  -0.161  52.866  1.00  0.00    -0.183 NA
HETATM    3  N2  UNL     1      22.502   0.366  52.970  1.00  0.00    -0.298 N 
HETATM    4  C8  UNL     1      22.661   1.762  52.723  1.00  0.00     0.176 C 
HETATM    5  S1  UNL     1      21.183   2.411  51.909  1.00  0.00    -0.112 SA
HETATM    6  C9  UNL     1      21.236   4.184  52.112  1.00  0.00     0.071 C 
HETATM    7  C10 UNL     1      22.116   5.097  51.819  1.00  0.00     0.142 C 
HETATM    8  O1  UNL     1      23.357   4.975  51.224  1.00  0.00    -0.356 OA
HETATM    9  C11 UNL     1      24.501   4.196  51.168  1.00  0.00     0.146 C 
HETATM   10  C14 UNL     1      24.602   3.041  52.090  1.00  0.00     0.048 C 
HETATM   11  C15 UNL     1      23.853   1.808  51.754  1.00  0.00     0.076 C 
HETATM   12  H10 UNL     1      21.594  -0.071  53.175  1.00  0.00     0.183 HD
ENDROOT
BRANCH   1  13
HETATM   13  C6  UNL     1      26.008   0.240  51.954  1.00  0.00     0.030 C 
HETATM   14  C5  UNL     1      27.143   0.522  52.541  1.00  0.00     0.008 C 
BRANCH  14  15
HETATM   15  C3  UNL     1      27.673   1.259  53.672  1.00  0.00    -0.066 C 
HETATM   16  C2  UNL     1      27.380   0.938  54.950  1.00  0.00    -0.024 C 
HETATM   17  C1  UNL     1      26.482  -0.215  55.193  1.00  0.00     0.036 C 
HETATM   18  C4  UNL     1      28.589   2.437  53.517  1.00  0.00     0.048 C 
ENDBRANCH  14  15
ENDBRANCH   1  13
BRANCH   9  19
HETATM   19  C12 UNL     1      24.980   3.934  49.752  1.00  0.00     0.107 C 
HETATM   20  C13 UNL     1      26.441   3.454  49.804  1.00  0.00     0.029 C 
HETATM   21 CL1  UNL     1      25.025   5.402  48.753  1.00  0.00    -0.123 Cl
ENDBRANCH   9  19
TORSDOF 3
ENDMDL
