MODEL 1
REMARK VINA RESULT:      -8.9      0.000      0.000
REMARK  2 active torsions:
REMARK  status: ('A' for Active; 'I' for Inactive)
REMARK    1  A    between atoms: C3_3  and  C4_4 
REMARK       I    between atoms: C4_4  and  N1_6 
REMARK    2  A    between atoms: C12_16  and  C13_17 
ROOT
HETATM    1  C1  UNL     1      28.789   5.495  48.210  1.00  0.00     0.112 C 
HETATM    2  C2  UNL     1      27.559   4.868  48.729  1.00  0.00    -0.101 C 
HETATM    3  C3  UNL     1      26.546   4.336  49.144  1.00  0.00    -0.005 C 
ENDROOT
BRANCH   3   4
HETATM    4  C4  UNL     1      25.351   3.704  49.609  1.00  0.00     0.306 C 
HETATM    5  O1  UNL     1      24.265   3.998  49.031  1.00  0.00    -0.257 OA
HETATM    6  N1  UNL     1      25.374   2.774  50.684  1.00  0.00    -0.292 N 
HETATM    7  C5  UNL     1      26.612   2.447  51.332  1.00  0.00     0.101 A 
HETATM    8  C20 UNL     1      24.182   2.154  51.140  1.00  0.00     0.113 A 
HETATM    9  C6  UNL     1      26.696   1.577  52.352  1.00  0.00     0.031 A 
HETATM   10  C7  UNL     1      25.464   0.963  52.791  1.00  0.00    -0.005 A 
HETATM   11  C8  UNL     1      25.657   0.106  53.775  1.00  0.00     0.128 A 
HETATM   12  C19 UNL     1      24.219   1.300  52.135  1.00  0.00     0.004 A 
HETATM   13  N2  UNL     1      24.673  -0.661  54.427  1.00  0.00    -0.271 NA
HETATM   14  C9  UNL     1      23.399  -0.760  54.264  1.00  0.00     0.139 A 
HETATM   15  C10 UNL     1      22.549  -0.057  53.293  1.00  0.00     0.074 A 
HETATM   16  C11 UNL     1      21.186  -0.463  53.448  1.00  0.00     0.102 C 
HETATM   17  C12 UNL     1      22.850   0.858  52.351  1.00  0.00     0.009 A 
HETATM   18  N3  UNL     1      20.059  -0.776  53.575  1.00  0.00    -0.191 NA
BRANCH  17  19
HETATM   19  C13 UNL     1      21.688   1.272  51.630  1.00  0.00    -0.022 A 
HETATM   20  C14 UNL     1      21.503   0.489  50.482  1.00  0.00     0.012 A 
HETATM   21  C15 UNL     1      20.410   0.681  49.637  1.00  0.00     0.002 A 
HETATM   22  C16 UNL     1      19.463   1.664  49.913  1.00  0.00     0.019 A 
HETATM   23  C17 UNL     1      19.624   2.447  51.038  1.00  0.00     0.011 A 
HETATM   24 BR1  UNL     1      18.432   3.842  51.576  1.00  0.00    -0.051 Br
HETATM   25  C18 UNL     1      20.713   2.231  51.848  1.00  0.00     0.031 A 
ENDBRANCH  17  19
ENDBRANCH   3   4
TORSDOF 2
ENDMDL
MODEL 2
REMARK VINA RESULT:      -8.8      2.685      4.545
REMARK  2 active torsions:
REMARK  status: ('A' for Active; 'I' for Inactive)
REMARK    1  A    between atoms: C3_3  and  C4_4 
REMARK       I    between atoms: C4_4  and  N1_6 
REMARK    2  A    between atoms: C12_16  and  C13_17 
ROOT
HETATM    1  C1  UNL     1      30.166  -1.389  53.909  1.00  0.00     0.112 C 
HETATM    2  C2  UNL     1      29.053  -0.540  53.444  1.00  0.00    -0.101 C 
HETATM    3  C3  UNL     1      28.133   0.148  53.043  1.00  0.00    -0.005 C 
ENDROOT
BRANCH   3   4
HETATM    4  C4  UNL     1      27.059   0.952  52.550  1.00  0.00     0.306 C 
HETATM    5  O1  UNL     1      27.345   1.898  51.760  1.00  0.00    -0.257 OA
HETATM    6  N1  UNL     1      25.711   0.705  52.929  1.00  0.00    -0.292 N 
HETATM    7  C5  UNL     1      25.398  -0.371  53.826  1.00  0.00     0.101 A 
HETATM    8  C20 UNL     1      24.653   1.510  52.437  1.00  0.00     0.113 A 
HETATM    9  C6  UNL     1      24.145  -0.653  54.220  1.00  0.00     0.031 A 
HETATM   10  C7  UNL     1      23.091   0.186  53.698  1.00  0.00    -0.005 A 
HETATM   11  C8  UNL     1      21.899  -0.190  54.122  1.00  0.00     0.128 A 
HETATM   12  C19 UNL     1      23.415   1.271  52.797  1.00  0.00     0.004 A 
HETATM   13  N2  UNL     1      20.666   0.408  53.802  1.00  0.00    -0.271 NA
HETATM   14  C9  UNL     1      20.355   1.409  53.052  1.00  0.00     0.139 A 
HETATM   15  C10 UNL     1      21.249   2.270  52.267  1.00  0.00     0.074 A 
HETATM   16  C11 UNL     1      20.490   3.264  51.571  1.00  0.00     0.102 C 
HETATM   17  C12 UNL     1      22.589   2.264  52.128  1.00  0.00     0.009 A 
HETATM   18  N3  UNL     1      19.879   4.096  51.006  1.00  0.00    -0.191 NA
BRANCH  17  19
HETATM   19  C13 UNL     1      23.032   3.302  51.253  1.00  0.00    -0.022 A 
HETATM   20  C14 UNL     1      23.066   2.859  49.923  1.00  0.00     0.012 A 
HETATM   21  C15 UNL     1      23.431   3.710  48.880  1.00  0.00     0.002 A 
HETATM   22  C16 UNL     1      23.774   5.036  49.132  1.00  0.00     0.019 A 
HETATM   23  C17 UNL     1      23.748   5.495  50.433  1.00  0.00     0.011 A 
HETATM   24 BR1  UNL     1      24.188   7.276  50.970  1.00  0.00    -0.051 Br
HETATM   25  C18 UNL     1      23.385   4.629  51.437  1.00  0.00     0.031 A 
ENDBRANCH  17  19
ENDBRANCH   3   4
TORSDOF 2
ENDMDL
MODEL 3
REMARK VINA RESULT:      -8.6      2.321      6.115
REMARK  2 active torsions:
REMARK  status: ('A' for Active; 'I' for Inactive)
REMARK    1  A    between atoms: C3_3  and  C4_4 
REMARK       I    between atoms: C4_4  and  N1_6 
REMARK    2  A    between atoms: C12_16  and  C13_17 
ROOT
HETATM    1  C1  UNL     1      16.697  -1.004  52.024  1.00  0.00     0.112 C 
HETATM    2  C2  UNL     1      18.051  -0.423  51.940  1.00  0.00    -0.101 C 
HETATM    3  C3  UNL     1      19.163   0.067  51.887  1.00  0.00    -0.005 C 
ENDROOT
BRANCH   3   4
HETATM    4  C4  UNL     1      20.461   0.664  51.832  1.00  0.00     0.306 C 
HETATM    5  O1  UNL     1      20.641   1.608  51.009  1.00  0.00    -0.257 OA
HETATM    6  N1  UNL     1      21.518   0.220  52.671  1.00  0.00    -0.292 N 
HETATM    7  C5  UNL     1      21.302  -0.850  53.602  1.00  0.00     0.101 A 
HETATM    8  C20 UNL     1      22.803   0.818  52.608  1.00  0.00     0.113 A 
HETATM    9  C6  UNL     1      22.262  -1.313  54.420  1.00  0.00     0.031 A 
HETATM   10  C7  UNL     1      23.558  -0.682  54.330  1.00  0.00    -0.005 A 
HETATM   11  C8  UNL     1      24.420  -1.188  55.191  1.00  0.00     0.128 A 
HETATM   12  C19 UNL     1      23.770   0.395  53.387  1.00  0.00     0.004 A 
HETATM   13  N2  UNL     1      25.762  -0.799  55.365  1.00  0.00    -0.271 NA
HETATM   14  C9  UNL     1      26.486   0.101  54.795  1.00  0.00     0.139 A 
HETATM   15  C10 UNL     1      26.102   1.038  53.731  1.00  0.00     0.074 A 
HETATM   16  C11 UNL     1      27.212   1.874  53.386  1.00  0.00     0.102 C 
HETATM   17  C12 UNL     1      24.938   1.203  53.073  1.00  0.00     0.009 A 
HETATM   18  N3  UNL     1      28.120   2.557  53.083  1.00  0.00    -0.191 NA
BRANCH  17  19
HETATM   19  C13 UNL     1      25.025   2.249  52.104  1.00  0.00    -0.022 A 
HETATM   20  C14 UNL     1      25.787   1.848  50.998  1.00  0.00     0.012 A 
HETATM   21  C15 UNL     1      25.980   2.689  49.901  1.00  0.00     0.002 A 
HETATM   22  C16 UNL     1      25.416   3.961  49.875  1.00  0.00     0.019 A 
HETATM   23  C17 UNL     1      24.662   4.379  50.953  1.00  0.00     0.011 A 
HETATM   24 BR1  UNL     1      23.814   6.086  51.096  1.00  0.00    -0.051 Br
HETATM   25  C18 UNL     1      24.492   3.525  52.016  1.00  0.00     0.031 A 
ENDBRANCH  17  19
ENDBRANCH   3   4
TORSDOF 2
ENDMDL
MODEL 4
REMARK VINA RESULT:      -8.3      3.204      5.315
REMARK  2 active torsions:
REMARK  status: ('A' for Active; 'I' for Inactive)
REMARK    1  A    between atoms: C3_3  and  C4_4 
REMARK       I    between atoms: C4_4  and  N1_6 
REMARK    2  A    between atoms: C12_16  and  C13_17 
ROOT
HETATM    1  C1  UNL     1      21.451   4.665  45.383  1.00  0.00     0.112 C 
HETATM    2  C2  UNL     1      21.877   3.991  46.625  1.00  0.00    -0.101 C 
HETATM    3  C3  UNL     1      22.248   3.439  47.643  1.00  0.00    -0.005 C 
ENDROOT
BRANCH   3   4
HETATM    4  C4  UNL     1      22.703   2.783  48.829  1.00  0.00     0.306 C 
HETATM    5  O1  UNL     1      23.930   2.880  49.123  1.00  0.00    -0.257 OA
HETATM    6  N1  UNL     1      21.814   2.045  49.657  1.00  0.00    -0.292 N 
HETATM    7  C5  UNL     1      20.424   1.943  49.316  1.00  0.00     0.101 A 
HETATM    8  C20 UNL     1      22.276   1.396  50.831  1.00  0.00     0.113 A 
HETATM    9  C6  UNL     1      19.537   1.261  50.058  1.00  0.00     0.031 A 
HETATM   10  C7  UNL     1      20.040   0.612  51.247  1.00  0.00    -0.005 A 
HETATM   11  C8  UNL     1      19.088  -0.006  51.919  1.00  0.00     0.128 A 
HETATM   12  C19 UNL     1      21.444   0.717  51.584  1.00  0.00     0.004 A 
HETATM   13  N2  UNL     1      19.238  -0.729  53.117  1.00  0.00    -0.271 NA
HETATM   14  C9  UNL     1      20.260  -0.973  53.863  1.00  0.00     0.139 A 
HETATM   15  C10 UNL     1      21.652  -0.544  53.666  1.00  0.00     0.074 A 
HETATM   16  C11 UNL     1      22.472  -1.030  54.734  1.00  0.00     0.102 C 
HETATM   17  C12 UNL     1      22.226   0.182  52.688  1.00  0.00     0.009 A 
HETATM   18  N3  UNL     1      23.160  -1.436  55.597  1.00  0.00    -0.191 NA
BRANCH  17  19
HETATM   19  C13 UNL     1      23.626   0.354  52.912  1.00  0.00    -0.022 A 
HETATM   20  C14 UNL     1      23.899   1.624  53.439  1.00  0.00     0.012 A 
HETATM   21  C15 UNL     1      25.196   2.010  53.777  1.00  0.00     0.002 A 
HETATM   22  C16 UNL     1      26.265   1.137  53.600  1.00  0.00     0.019 A 
HETATM   23  C17 UNL     1      26.021  -0.119  53.084  1.00  0.00     0.011 A 
HETATM   24 BR1  UNL     1      27.359  -1.449  52.770  1.00  0.00    -0.051 Br
HETATM   25  C18 UNL     1      24.731  -0.466  52.760  1.00  0.00     0.031 A 
ENDBRANCH  17  19
ENDBRANCH   3   4
TORSDOF 2
ENDMDL
MODEL 5
REMARK VINA RESULT:      -8.3      2.664      4.008
REMARK  2 active torsions:
REMARK  status: ('A' for Active; 'I' for Inactive)
REMARK    1  A    between atoms: C3_3  and  C4_4 
REMARK       I    between atoms: C4_4  and  N1_6 
REMARK    2  A    between atoms: C12_16  and  C13_17 
ROOT
HETATM    1  C1  UNL     1      29.043   0.498  54.424  1.00  0.00     0.112 C 
HETATM    2  C2  UNL     1      27.803   0.740  53.663  1.00  0.00    -0.101 C 
HETATM    3  C3  UNL     1      26.771   0.947  53.052  1.00  0.00    -0.005 C 
ENDROOT
BRANCH   3   4
HETATM    4  C4  UNL     1      25.547   1.186  52.354  1.00  0.00     0.306 C 
HETATM    5  O1  UNL     1      25.583   1.946  51.343  1.00  0.00    -0.257 OA
HETATM    6  N1  UNL     1      24.325   0.593  52.773  1.00  0.00    -0.292 N 
HETATM    7  C5  UNL     1      24.296  -0.269  53.920  1.00  0.00     0.101 A 
HETATM    8  C20 UNL     1      23.115   0.838  52.075  1.00  0.00     0.113 A 
HETATM    9  C6  UNL     1      23.173  -0.858  54.364  1.00  0.00     0.031 A 
HETATM   10  C7  UNL     1      21.959  -0.587  53.629  1.00  0.00    -0.005 A 
HETATM   11  C8  UNL     1      20.921  -1.233  54.126  1.00  0.00     0.128 A 
HETATM   12  C19 UNL     1      21.995   0.285  52.475  1.00  0.00     0.004 A 
HETATM   13  N2  UNL     1      19.598  -1.193  53.648  1.00  0.00    -0.271 NA
HETATM   14  C9  UNL     1      19.051  -0.578  52.657  1.00  0.00     0.139 A 
HETATM   15  C10 UNL     1      19.685   0.316  51.679  1.00  0.00     0.074 A 
HETATM   16  C11 UNL     1      18.715   0.785  50.738  1.00  0.00     0.102 C 
HETATM   17  C12 UNL     1      20.960   0.736  51.558  1.00  0.00     0.009 A 
HETATM   18  N3  UNL     1      17.924   1.189  49.966  1.00  0.00    -0.191 NA
BRANCH  17  19
HETATM   19  C13 UNL     1      21.121   1.613  50.443  1.00  0.00    -0.022 A 
HETATM   20  C14 UNL     1      21.501   0.903  49.295  1.00  0.00     0.012 A 
HETATM   21  C15 UNL     1      21.681   1.542  48.068  1.00  0.00     0.002 A 
HETATM   22  C16 UNL     1      21.487   2.915  47.948  1.00  0.00     0.019 A 
HETATM   23  C17 UNL     1      21.113   3.636  49.064  1.00  0.00     0.011 A 
HETATM   24 BR1  UNL     1      20.804   5.523  49.092  1.00  0.00    -0.051 Br
HETATM   25  C18 UNL     1      20.945   2.975  50.257  1.00  0.00     0.031 A 
ENDBRANCH  17  19
ENDBRANCH   3   4
TORSDOF 2
ENDMDL
MODEL 6
REMARK VINA RESULT:      -8.2      1.470      2.099
REMARK  2 active torsions:
REMARK  status: ('A' for Active; 'I' for Inactive)
REMARK    1  A    between atoms: C3_3  and  C4_4 
REMARK       I    between atoms: C4_4  and  N1_6 
REMARK    2  A    between atoms: C12_16  and  C13_17 
ROOT
HETATM    1  C1  UNL     1      27.234   4.831  48.957  1.00  0.00     0.112 C 
HETATM    2  C2  UNL     1      25.942   4.255  49.379  1.00  0.00    -0.101 C 
HETATM    3  C3  UNL     1      24.871   3.779  49.707  1.00  0.00    -0.005 C 
ENDROOT
BRANCH   3   4
HETATM    4  C4  UNL     1      23.603   3.231  50.073  1.00  0.00     0.306 C 
HETATM    5  O1  UNL     1      22.576   3.670  49.478  1.00  0.00    -0.257 OA
HETATM    6  N1  UNL     1      23.490   2.224  51.070  1.00  0.00    -0.292 N 
HETATM    7  C5  UNL     1      24.661   1.731  51.737  1.00  0.00     0.101 A 
HETATM    8  C20 UNL     1      22.227   1.687  51.428  1.00  0.00     0.113 A 
HETATM    9  C6  UNL     1      24.618   0.782  52.686  1.00  0.00     0.031 A 
HETATM   10  C7  UNL     1      23.315   0.257  53.026  1.00  0.00    -0.005 A 
HETATM   11  C8  UNL     1      23.383  -0.687  53.946  1.00  0.00     0.128 A 
HETATM   12  C19 UNL     1      22.138   0.760  52.352  1.00  0.00     0.004 A 
HETATM   13  N2  UNL     1      22.304  -1.404  54.495  1.00  0.00    -0.271 NA
HETATM   14  C9  UNL     1      21.035  -1.368  54.276  1.00  0.00     0.139 A 
HETATM   15  C10 UNL     1      20.299  -0.515  53.332  1.00  0.00     0.074 A 
HETATM   16  C11 UNL     1      18.898  -0.799  53.401  1.00  0.00     0.102 C 
HETATM   17  C12 UNL     1      20.726   0.436  52.479  1.00  0.00     0.009 A 
HETATM   18  N3  UNL     1      17.743  -1.012  53.459  1.00  0.00    -0.191 NA
BRANCH  17  19
HETATM   19  C13 UNL     1      19.642   1.013  51.749  1.00  0.00    -0.022 A 
HETATM   20  C14 UNL     1      19.351   0.261  50.603  1.00  0.00     0.012 A 
HETATM   21  C15 UNL     1      18.303   0.607  49.750  1.00  0.00     0.002 A 
HETATM   22  C16 UNL     1      17.509   1.720  50.017  1.00  0.00     0.019 A 
HETATM   23  C17 UNL     1      17.776   2.476  51.140  1.00  0.00     0.011 A 
HETATM   24 BR1  UNL     1      16.799   4.032  51.665  1.00  0.00    -0.051 Br
HETATM   25  C18 UNL     1      18.817   2.106  51.958  1.00  0.00     0.031 A 
ENDBRANCH  17  19
ENDBRANCH   3   4
TORSDOF 2
ENDMDL
MODEL 7
REMARK VINA RESULT:      -7.9      2.949      4.996
REMARK  2 active torsions:
REMARK  status: ('A' for Active; 'I' for Inactive)
REMARK    1  A    between atoms: C3_3  and  C4_4 
REMARK       I    between atoms: C4_4  and  N1_6 
REMARK    2  A    between atoms: C12_16  and  C13_17 
ROOT
HETATM    1  C1  UNL     1      24.454   7.328  47.453  1.00  0.00     0.112 C 
HETATM    2  C2  UNL     1      24.773   6.236  48.392  1.00  0.00    -0.101 C 
HETATM    3  C3  UNL     1      25.019   5.325  49.160  1.00  0.00    -0.005 C 
ENDROOT
BRANCH   3   4
HETATM    4  C4  UNL     1      25.285   4.252  50.067  1.00  0.00     0.306 C 
HETATM    5  O1  UNL     1      26.492   3.909  50.236  1.00  0.00    -0.257 OA
HETATM    6  N1  UNL     1      24.237   3.589  50.760  1.00  0.00    -0.292 N 
HETATM    7  C5  UNL     1      22.873   3.987  50.561  1.00  0.00     0.101 A 
HETATM    8  C20 UNL     1      24.511   2.523  51.655  1.00  0.00     0.113 A 
HETATM    9  C6  UNL     1      21.841   3.399  51.187  1.00  0.00     0.031 A 
HETATM   10  C7  UNL     1      22.155   2.318  52.093  1.00  0.00    -0.005 A 
HETATM   11  C8  UNL     1      21.078   1.826  52.676  1.00  0.00     0.128 A 
HETATM   12  C19 UNL     1      23.533   1.919  52.286  1.00  0.00     0.004 A 
HETATM   13  N2  UNL     1      21.034   0.775  53.611  1.00  0.00    -0.271 NA
HETATM   14  C9  UNL     1      21.954   0.047  54.143  1.00  0.00     0.139 A 
HETATM   15  C10 UNL     1      23.404   0.103  53.915  1.00  0.00     0.074 A 
HETATM   16  C11 UNL     1      24.066  -0.884  54.713  1.00  0.00     0.102 C 
HETATM   17  C12 UNL     1      24.145   0.888  53.110  1.00  0.00     0.009 A 
HETATM   18  N3  UNL     1      24.622  -1.701  55.352  1.00  0.00    -0.191 NA
BRANCH  17  19
HETATM   19  C13 UNL     1      25.537   0.585  53.214  1.00  0.00    -0.022 A 
HETATM   20  C14 UNL     1      25.847  -0.594  52.521  1.00  0.00     0.012 A 
HETATM   21  C15 UNL     1      27.155  -1.073  52.446  1.00  0.00     0.002 A 
HETATM   22  C16 UNL     1      28.199  -0.387  53.062  1.00  0.00     0.019 A 
HETATM   23  C17 UNL     1      27.918   0.775  53.750  1.00  0.00     0.011 A 
HETATM   24 BR1  UNL     1      29.215   1.847  54.657  1.00  0.00    -0.051 Br
HETATM   25  C18 UNL     1      26.618   1.218  53.804  1.00  0.00     0.031 A 
ENDBRANCH  17  19
ENDBRANCH   3   4
TORSDOF 2
ENDMDL
MODEL 8
REMARK VINA RESULT:      -7.8      2.852      4.850
REMARK  2 active torsions:
REMARK  status: ('A' for Active; 'I' for Inactive)
REMARK    1  A    between atoms: C3_3  and  C4_4 
REMARK       I    between atoms: C4_4  and  N1_6 
REMARK    2  A    between atoms: C12_16  and  C13_17 
ROOT
HETATM    1  C1  UNL     1      25.506   7.719  47.358  1.00  0.00     0.112 C 
HETATM    2  C2  UNL     1      25.425   6.590  48.305  1.00  0.00    -0.101 C 
HETATM    3  C3  UNL     1      25.379   5.655  49.082  1.00  0.00    -0.005 C 
ENDROOT
BRANCH   3   4
HETATM    4  C4  UNL     1      25.339   4.545  49.982  1.00  0.00     0.306 C 
HETATM    5  O1  UNL     1      26.440   4.015  50.312  1.00  0.00    -0.257 OA
HETATM    6  N1  UNL     1      24.111   4.047  50.493  1.00  0.00    -0.292 N 
HETATM    7  C5  UNL     1      22.868   4.657  50.113  1.00  0.00     0.101 A 
HETATM    8  C20 UNL     1      24.082   2.943  51.384  1.00  0.00     0.113 A 
HETATM    9  C6  UNL     1      21.677   4.232  50.563  1.00  0.00     0.031 A 
HETATM   10  C7  UNL     1      21.684   3.106  51.469  1.00  0.00    -0.005 A 
HETATM   11  C8  UNL     1      20.470   2.784  51.874  1.00  0.00     0.128 A 
HETATM   12  C19 UNL     1      22.940   2.494  51.846  1.00  0.00     0.004 A 
HETATM   13  N2  UNL     1      20.126   1.744  52.757  1.00  0.00    -0.271 NA
HETATM   14  C9  UNL     1      20.834   0.875  53.392  1.00  0.00     0.139 A 
HETATM   15  C10 UNL     1      22.293   0.704  53.378  1.00  0.00     0.074 A 
HETATM   16  C11 UNL     1      22.670  -0.382  54.231  1.00  0.00     0.102 C 
HETATM   17  C12 UNL     1      23.257   1.372  52.716  1.00  0.00     0.009 A 
HETATM   18  N3  UNL     1      22.992  -1.282  54.916  1.00  0.00    -0.191 NA
BRANCH  17  19
HETATM   19  C13 UNL     1      24.555   0.852  53.009  1.00  0.00    -0.022 A 
HETATM   20  C14 UNL     1      25.245   1.693  53.893  1.00  0.00     0.012 A 
HETATM   21  C15 UNL     1      26.521   1.373  54.357  1.00  0.00     0.002 A 
HETATM   22  C16 UNL     1      27.150   0.199  53.952  1.00  0.00     0.019 A 
HETATM   23  C17 UNL     1      26.490  -0.645  53.083  1.00  0.00     0.011 A 
HETATM   24 BR1  UNL     1      27.193  -2.293  52.417  1.00  0.00    -0.051 Br
HETATM   25  C18 UNL     1      25.234  -0.298  52.645  1.00  0.00     0.031 A 
ENDBRANCH  17  19
ENDBRANCH   3   4
TORSDOF 2
ENDMDL
MODEL 9
REMARK VINA RESULT:      -7.6      3.125      5.372
REMARK  2 active torsions:
REMARK  status: ('A' for Active; 'I' for Inactive)
REMARK    1  A    between atoms: C3_3  and  C4_4 
REMARK       I    between atoms: C4_4  and  N1_6 
REMARK    2  A    between atoms: C12_16  and  C13_17 
ROOT
HETATM    1  C1  UNL     1      28.320  -1.219  53.310  1.00  0.00     0.112 C 
HETATM    2  C2  UNL     1      27.463  -0.184  52.700  1.00  0.00    -0.101 C 
HETATM    3  C3  UNL     1      26.764   0.683  52.212  1.00  0.00    -0.005 C 
ENDROOT
BRANCH   3   4
HETATM    4  C4  UNL     1      25.940   1.711  51.658  1.00  0.00     0.306 C 
HETATM    5  O1  UNL     1      26.492   2.573  50.914  1.00  0.00    -0.257 OA
HETATM    6  N1  UNL     1      24.546   1.772  51.928  1.00  0.00    -0.292 N 
HETATM    7  C5  UNL     1      23.929   0.789  52.773  1.00  0.00     0.101 A 
HETATM    8  C20 UNL     1      23.737   2.798  51.376  1.00  0.00     0.113 A 
HETATM    9  C6  UNL     1      22.618   0.794  53.064  1.00  0.00     0.031 A 
HETATM   10  C7  UNL     1      21.824   1.853  52.485  1.00  0.00    -0.005 A 
HETATM   11  C8  UNL     1      20.548   1.753  52.808  1.00  0.00     0.128 A 
HETATM   12  C19 UNL     1      22.452   2.842  51.636  1.00  0.00     0.004 A 
HETATM   13  N2  UNL     1      19.510   2.615  52.410  1.00  0.00    -0.271 NA
HETATM   14  C9  UNL     1      19.491   3.665  51.662  1.00  0.00     0.139 A 
HETATM   15  C10 UNL     1      20.615   4.307  50.968  1.00  0.00     0.074 A 
HETATM   16  C11 UNL     1      20.155   5.450  50.240  1.00  0.00     0.102 C 
HETATM   17  C12 UNL     1      21.926   4.000  50.930  1.00  0.00     0.009 A 
HETATM   18  N3  UNL     1      19.793   6.401  49.650  1.00  0.00    -0.191 NA
BRANCH  17  19
HETATM   19  C13 UNL     1      22.658   4.916  50.116  1.00  0.00    -0.022 A 
HETATM   20  C14 UNL     1      22.576   4.562  48.762  1.00  0.00     0.012 A 
HETATM   21  C15 UNL     1      23.181   5.333  47.768  1.00  0.00     0.002 A 
HETATM   22  C16 UNL     1      23.889   6.486  48.097  1.00  0.00     0.019 A 
HETATM   23  C17 UNL     1      23.984   6.854  49.424  1.00  0.00     0.011 A 
HETATM   24 BR1  UNL     1      24.913   8.398  50.063  1.00  0.00    -0.051 Br
HETATM   25  C18 UNL     1      23.376   6.072  50.376  1.00  0.00     0.031 A 
ENDBRANCH  17  19
ENDBRANCH   3   4
TORSDOF 2
ENDMDL
