MODEL 1
REMARK VINA RESULT:      -8.1      0.000      0.000
REMARK  3 active torsions:
REMARK  status: ('A' for Active; 'I' for Inactive)
REMARK    1  A    between atoms: C3_5  and  C4_6 
REMARK       I    between atoms: C4_6  and  N2_8 
REMARK    2  A    between atoms: N2_8  and  C5_9 
REMARK    3  A    between atoms: C5_9  and  C6_10 
ROOT
HETATM    1  C1  UNL     1      24.414  -0.720  54.091  1.00  0.00     0.158 C 
HETATM    2  N1  UNL     1      25.262   0.392  53.754  1.00  0.00    -0.329 N 
HETATM    3  C2  UNL     1      24.819   1.560  53.074  1.00  0.00     0.098 A 
HETATM    4  S1  UNL     1      23.325   1.959  52.520  1.00  0.00    -0.064 SA
HETATM    5  C3  UNL     1      25.947   2.536  52.863  1.00  0.00     0.176 A 
HETATM    6  C11 UNL     1      27.083   1.825  53.495  1.00  0.00     0.008 A 
HETATM    7  C12 UNL     1      28.427   2.041  53.720  1.00  0.00     0.013 A 
HETATM    8  C13 UNL     1      29.263   1.156  54.360  1.00  0.00     0.020 A 
HETATM    9  C14 UNL     1      28.750  -0.035  54.819  1.00  0.00     0.119 A 
HETATM   10  N3  UNL     1      27.456  -0.284  54.622  1.00  0.00    -0.243 NA
HETATM   11  C15 UNL     1      26.649   0.590  53.994  1.00  0.00     0.137 A 
ENDROOT
BRANCH   5  12
HETATM   12  C4  UNL     1      26.127   2.786  51.417  1.00  0.00     0.233 C 
HETATM   13  O1  UNL     1      26.524   1.832  50.665  1.00  0.00    -0.272 OA
HETATM   14  N2  UNL     1      25.892   4.022  50.770  1.00  0.00    -0.354 N 
HETATM   15  H5  UNL     1      25.571   4.820  51.323  1.00  0.00     0.162 HD
BRANCH  14  16
HETATM   16  C5  UNL     1      26.163   3.929  49.346  1.00  0.00     0.187 C 
BRANCH  16  17
HETATM   17  C6  UNL     1      27.066   5.004  48.886  1.00  0.00     0.064 A 
HETATM   18  C7  UNL     1      26.582   6.239  48.838  1.00  0.00     0.034 A 
HETATM   19  C8  UNL     1      27.447   7.331  48.387  1.00  0.00     0.001 A 
HETATM   20  C9  UNL     1      28.683   6.984  48.052  1.00  0.00    -0.000 A 
HETATM   21  C10 UNL     1      29.293   5.629  48.078  1.00  0.00     0.202 A 
HETATM   22  O2  UNL     1      28.356   4.674  48.531  1.00  0.00    -0.350 OA
ENDBRANCH  16  17
ENDBRANCH  14  16
ENDBRANCH   5  12
TORSDOF 3
ENDMDL
MODEL 2
REMARK VINA RESULT:      -7.6      2.304      6.238
REMARK  3 active torsions:
REMARK  status: ('A' for Active; 'I' for Inactive)
REMARK    1  A    between atoms: C3_5  and  C4_6 
REMARK       I    between atoms: C4_6  and  N2_8 
REMARK    2  A    between atoms: N2_8  and  C5_9 
REMARK    3  A    between atoms: C5_9  and  C6_10 
ROOT
HETATM    1  C1  UNL     1      23.400   7.184  50.697  1.00  0.00     0.158 C 
HETATM    2  N1  UNL     1      24.000   5.908  50.415  1.00  0.00    -0.329 N 
HETATM    3  C2  UNL     1      23.403   4.655  50.723  1.00  0.00     0.098 A 
HETATM    4  S1  UNL     1      21.960   4.317  51.432  1.00  0.00    -0.064 SA
HETATM    5  C3  UNL     1      24.285   3.507  50.308  1.00  0.00     0.176 A 
HETATM    6  C11 UNL     1      25.446   4.214  49.722  1.00  0.00     0.008 A 
HETATM    7  C12 UNL     1      26.649   3.890  49.129  1.00  0.00     0.013 A 
HETATM    8  C13 UNL     1      27.563   4.808  48.665  1.00  0.00     0.020 A 
HETATM    9  C14 UNL     1      27.284   6.150  48.788  1.00  0.00     0.119 A 
HETATM   10  N3  UNL     1      26.132   6.506  49.355  1.00  0.00    -0.243 NA
HETATM   11  C15 UNL     1      25.246   5.598  49.804  1.00  0.00     0.137 A 
ENDROOT
BRANCH   5  12
HETATM   12  C4  UNL     1      24.620   2.683  51.490  1.00  0.00     0.233 C 
HETATM   13  O1  UNL     1      24.214   1.473  51.541  1.00  0.00    -0.272 OA
HETATM   14  N2  UNL     1      25.371   3.126  52.604  1.00  0.00    -0.354 N 
HETATM   15  H5  UNL     1      25.723   4.086  52.616  1.00  0.00     0.162 HD
BRANCH  14  16
HETATM   16  C5  UNL     1      25.519   2.071  53.591  1.00  0.00     0.187 C 
BRANCH  16  17
HETATM   17  C6  UNL     1      26.904   1.557  53.644  1.00  0.00     0.064 A 
HETATM   18  C7  UNL     1      27.106   0.291  53.298  1.00  0.00     0.034 A 
HETATM   19  C8  UNL     1      28.464  -0.254  53.339  1.00  0.00     0.001 A 
HETATM   20  C9  UNL     1      29.410   0.589  53.732  1.00  0.00    -0.000 A 
HETATM   21  C10 UNL     1      29.260   2.012  54.135  1.00  0.00     0.202 A 
HETATM   22  O2  UNL     1      27.907   2.409  54.050  1.00  0.00    -0.350 OA
ENDBRANCH  16  17
ENDBRANCH  14  16
ENDBRANCH   5  12
TORSDOF 3
ENDMDL
MODEL 3
REMARK VINA RESULT:      -7.6      2.236      6.320
REMARK  3 active torsions:
REMARK  status: ('A' for Active; 'I' for Inactive)
REMARK    1  A    between atoms: C3_5  and  C4_6 
REMARK       I    between atoms: C4_6  and  N2_8 
REMARK    2  A    between atoms: N2_8  and  C5_9 
REMARK    3  A    between atoms: C5_9  and  C6_10 
ROOT
HETATM    1  C1  UNL     1      22.582   6.089  50.842  1.00  0.00     0.158 C 
HETATM    2  N1  UNL     1      23.428   4.935  50.701  1.00  0.00    -0.329 N 
HETATM    3  C2  UNL     1      23.099   3.637  51.180  1.00  0.00     0.098 A 
HETATM    4  S1  UNL     1      21.758   3.109  51.969  1.00  0.00    -0.064 SA
HETATM    5  C3  UNL     1      24.194   2.646  50.883  1.00  0.00     0.176 A 
HETATM    6  C11 UNL     1      25.184   3.493  50.179  1.00  0.00     0.008 A 
HETATM    7  C12 UNL     1      26.425   3.344  49.595  1.00  0.00     0.013 A 
HETATM    8  C13 UNL     1      27.131   4.360  48.993  1.00  0.00     0.020 A 
HETATM    9  C14 UNL     1      26.586   5.623  48.958  1.00  0.00     0.119 A 
HETATM   10  N3  UNL     1      25.389   5.810  49.511  1.00  0.00    -0.243 NA
HETATM   11  C15 UNL     1      24.708   4.807  50.096  1.00  0.00     0.137 A 
ENDROOT
BRANCH   5  12
HETATM   12  C4  UNL     1      24.694   2.064  52.146  1.00  0.00     0.233 C 
HETATM   13  O1  UNL     1      24.872   2.826  53.156  1.00  0.00    -0.272 OA
HETATM   14  N2  UNL     1      25.005   0.698  52.346  1.00  0.00    -0.354 N 
HETATM   15  H5  UNL     1      24.881   0.041  51.572  1.00  0.00     0.162 HD
BRANCH  14  16
HETATM   16  C5  UNL     1      25.472   0.458  53.700  1.00  0.00     0.187 C 
BRANCH  16  17
HETATM   17  C6  UNL     1      26.935   0.254  53.751  1.00  0.00     0.064 A 
HETATM   18  C7  UNL     1      27.416  -0.886  53.269  1.00  0.00     0.034 A 
HETATM   19  C8  UNL     1      28.860  -1.123  53.302  1.00  0.00     0.001 A 
HETATM   20  C9  UNL     1      29.591  -0.149  53.829  1.00  0.00    -0.000 A 
HETATM   21  C10 UNL     1      29.125   1.147  54.387  1.00  0.00     0.202 A 
HETATM   22  O2  UNL     1      27.719   1.248  54.293  1.00  0.00    -0.350 OA
ENDBRANCH  16  17
ENDBRANCH  14  16
ENDBRANCH   5  12
TORSDOF 3
ENDMDL
MODEL 4
REMARK VINA RESULT:      -7.5      2.761      3.570
REMARK  3 active torsions:
REMARK  status: ('A' for Active; 'I' for Inactive)
REMARK    1  A    between atoms: C3_5  and  C4_6 
REMARK       I    between atoms: C4_6  and  N2_8 
REMARK    2  A    between atoms: N2_8  and  C5_9 
REMARK    3  A    between atoms: C5_9  and  C6_10 
ROOT
HETATM    1  C1  UNL     1      20.309   3.394  52.194  1.00  0.00     0.158 C 
HETATM    2  N1  UNL     1      21.698   3.042  52.310  1.00  0.00    -0.329 N 
HETATM    3  C2  UNL     1      22.775   3.919  52.008  1.00  0.00     0.098 A 
HETATM    4  S1  UNL     1      22.756   5.476  51.484  1.00  0.00    -0.064 SA
HETATM    5  C3  UNL     1      24.108   3.251  52.224  1.00  0.00     0.176 A 
HETATM    6  C11 UNL     1      23.699   1.906  52.689  1.00  0.00     0.008 A 
HETATM    7  C12 UNL     1      24.307   0.734  53.089  1.00  0.00     0.013 A 
HETATM    8  C13 UNL     1      23.633  -0.400  53.481  1.00  0.00     0.020 A 
HETATM    9  C14 UNL     1      22.258  -0.393  53.483  1.00  0.00     0.119 A 
HETATM   10  N3  UNL     1      21.631   0.720  53.103  1.00  0.00    -0.243 NA
HETATM   11  C15 UNL     1      22.301   1.822  52.723  1.00  0.00     0.137 A 
ENDROOT
BRANCH   5  12
HETATM   12  C4  UNL     1      24.872   3.241  50.958  1.00  0.00     0.233 C 
HETATM   13  O1  UNL     1      24.315   2.792  49.899  1.00  0.00    -0.272 OA
HETATM   14  N2  UNL     1      26.202   3.696  50.807  1.00  0.00    -0.354 N 
HETATM   15  H5  UNL     1      26.697   4.068  51.621  1.00  0.00     0.162 HD
BRANCH  14  16
HETATM   16  C5  UNL     1      26.656   3.547  49.436  1.00  0.00     0.187 C 
BRANCH  16  17
HETATM   17  C6  UNL     1      27.208   4.807  48.897  1.00  0.00     0.064 A 
HETATM   18  C7  UNL     1      26.382   5.839  48.770  1.00  0.00     0.034 A 
HETATM   19  C8  UNL     1      26.894   7.104  48.240  1.00  0.00     0.001 A 
HETATM   20  C9  UNL     1      28.181   7.114  47.919  1.00  0.00    -0.000 A 
HETATM   21  C10 UNL     1      29.163   6.004  48.032  1.00  0.00     0.202 A 
HETATM   22  O2  UNL     1      28.542   4.848  48.555  1.00  0.00    -0.350 OA
ENDBRANCH  16  17
ENDBRANCH  14  16
ENDBRANCH   5  12
TORSDOF 3
ENDMDL
MODEL 5
REMARK VINA RESULT:      -7.3      1.641      2.051
REMARK  3 active torsions:
REMARK  status: ('A' for Active; 'I' for Inactive)
REMARK    1  A    between atoms: C3_5  and  C4_6 
REMARK       I    between atoms: C4_6  and  N2_8 
REMARK    2  A    between atoms: N2_8  and  C5_9 
REMARK    3  A    between atoms: C5_9  and  C6_10 
ROOT
HETATM    1  C1  UNL     1      22.266  -0.207  52.975  1.00  0.00     0.158 C 
HETATM    2  N1  UNL     1      23.378   0.688  52.801  1.00  0.00    -0.329 N 
HETATM    3  C2  UNL     1      23.254   2.078  52.532  1.00  0.00     0.098 A 
HETATM    4  S1  UNL     1      21.909   3.006  52.358  1.00  0.00    -0.064 SA
HETATM    5  C3  UNL     1      24.603   2.736  52.397  1.00  0.00     0.176 A 
HETATM    6  C11 UNL     1      25.519   1.595  52.623  1.00  0.00     0.008 A 
HETATM    7  C12 UNL     1      26.879   1.370  52.669  1.00  0.00     0.013 A 
HETATM    8  C13 UNL     1      27.460   0.146  52.909  1.00  0.00     0.020 A 
HETATM    9  C14 UNL     1      26.651  -0.947  53.121  1.00  0.00     0.119 A 
HETATM   10  N3  UNL     1      25.331  -0.773  53.085  1.00  0.00    -0.243 NA
HETATM   11  C15 UNL     1      24.776   0.430  52.850  1.00  0.00     0.137 A 
ENDROOT
BRANCH   5  12
HETATM   12  C4  UNL     1      24.727   3.348  51.057  1.00  0.00     0.233 C 
HETATM   13  O1  UNL     1      24.505   2.631  50.022  1.00  0.00    -0.272 OA
HETATM   14  N2  UNL     1      25.080   4.695  50.806  1.00  0.00    -0.354 N 
HETATM   15  H5  UNL     1      25.267   5.315  51.597  1.00  0.00     0.162 HD
BRANCH  14  16
HETATM   16  C5  UNL     1      25.113   4.973  49.381  1.00  0.00     0.187 C 
BRANCH  16  17
HETATM   17  C6  UNL     1      26.402   5.562  48.964  1.00  0.00     0.064 A 
HETATM   18  C7  UNL     1      27.408   4.733  48.714  1.00  0.00     0.034 A 
HETATM   19  C8  UNL     1      28.700   5.280  48.299  1.00  0.00     0.001 A 
HETATM   20  C9  UNL     1      28.761   6.602  48.204  1.00  0.00    -0.000 A 
HETATM   21  C10 UNL     1      27.683   7.590  48.468  1.00  0.00     0.202 A 
HETATM   22  O2  UNL     1      26.496   6.932  48.858  1.00  0.00    -0.350 OA
ENDBRANCH  16  17
ENDBRANCH  14  16
ENDBRANCH   5  12
TORSDOF 3
ENDMDL
MODEL 6
REMARK VINA RESULT:      -7.1      2.110      3.644
REMARK  3 active torsions:
REMARK  status: ('A' for Active; 'I' for Inactive)
REMARK    1  A    between atoms: C3_5  and  C4_6 
REMARK       I    between atoms: C4_6  and  N2_8 
REMARK    2  A    between atoms: N2_8  and  C5_9 
REMARK    3  A    between atoms: C5_9  and  C6_10 
ROOT
HETATM    1  C1  UNL     1      26.259  -0.222  55.279  1.00  0.00     0.158 C 
HETATM    2  N1  UNL     1      25.450   0.097  54.133  1.00  0.00    -0.329 N 
HETATM    3  C2  UNL     1      25.935   0.747  52.965  1.00  0.00     0.098 A 
HETATM    4  S1  UNL     1      27.445   1.281  52.602  1.00  0.00    -0.064 SA
HETATM    5  C3  UNL     1      24.840   0.943  51.949  1.00  0.00     0.176 A 
HETATM    6  C11 UNL     1      23.677   0.336  52.637  1.00  0.00     0.008 A 
HETATM    7  C12 UNL     1      22.340   0.116  52.383  1.00  0.00     0.013 A 
HETATM    8  C13 UNL     1      21.470  -0.499  53.254  1.00  0.00     0.020 A 
HETATM    9  C14 UNL     1      21.941  -0.934  54.471  1.00  0.00     0.119 A 
HETATM   10  N3  UNL     1      23.228  -0.741  54.757  1.00  0.00    -0.243 NA
HETATM   11  C15 UNL     1      24.068  -0.138  53.895  1.00  0.00     0.137 A 
ENDROOT
BRANCH   5  12
HETATM   12  C4  UNL     1      24.680   2.384  51.661  1.00  0.00     0.233 C 
HETATM   13  O1  UNL     1      24.425   3.187  52.622  1.00  0.00    -0.272 OA
HETATM   14  N2  UNL     1      24.787   2.975  50.380  1.00  0.00    -0.354 N 
HETATM   15  H5  UNL     1      24.991   2.380  49.574  1.00  0.00     0.162 HD
BRANCH  14  16
HETATM   16  C5  UNL     1      24.575   4.410  50.444  1.00  0.00     0.187 C 
BRANCH  16  17
HETATM   17  C6  UNL     1      25.659   5.158  49.773  1.00  0.00     0.064 A 
HETATM   18  C7  UNL     1      26.635   4.457  49.208  1.00  0.00     0.034 A 
HETATM   19  C8  UNL     1      27.726   5.163  48.534  1.00  0.00     0.001 A 
HETATM   20  C9  UNL     1      27.647   6.488  48.546  1.00  0.00    -0.000 A 
HETATM   21  C10 UNL     1      26.592   7.338  49.156  1.00  0.00     0.202 A 
HETATM   22  O2  UNL     1      25.605   6.534  49.770  1.00  0.00    -0.350 OA
ENDBRANCH  16  17
ENDBRANCH  14  16
ENDBRANCH   5  12
TORSDOF 3
ENDMDL
MODEL 7
REMARK VINA RESULT:      -7.1      3.269      5.034
REMARK  3 active torsions:
REMARK  status: ('A' for Active; 'I' for Inactive)
REMARK    1  A    between atoms: C3_5  and  C4_6 
REMARK       I    between atoms: C4_6  and  N2_8 
REMARK    2  A    between atoms: N2_8  and  C5_9 
REMARK    3  A    between atoms: C5_9  and  C6_10 
ROOT
HETATM    1  C1  UNL     1      22.667  -1.275  55.179  1.00  0.00     0.158 C 
HETATM    2  N1  UNL     1      22.482  -0.620  53.912  1.00  0.00    -0.329 N 
HETATM    3  C2  UNL     1      23.535  -0.062  53.136  1.00  0.00     0.098 A 
HETATM    4  S1  UNL     1      25.151  -0.009  53.430  1.00  0.00    -0.064 SA
HETATM    5  C3  UNL     1      23.016   0.557  51.865  1.00  0.00     0.176 A 
HETATM    6  C11 UNL     1      21.562   0.297  51.975  1.00  0.00     0.008 A 
HETATM    7  C12 UNL     1      20.422   0.537  51.236  1.00  0.00     0.013 A 
HETATM    8  C13 UNL     1      19.154   0.160  51.614  1.00  0.00     0.020 A 
HETATM    9  C14 UNL     1      18.981  -0.503  52.807  1.00  0.00     0.119 A 
HETATM   10  N3  UNL     1      20.057  -0.755  53.552  1.00  0.00    -0.243 NA
HETATM   11  C15 UNL     1      21.293  -0.381  53.170  1.00  0.00     0.137 A 
ENDROOT
BRANCH   5  12
HETATM   12  C4  UNL     1      23.367   1.993  51.832  1.00  0.00     0.233 C 
HETATM   13  O1  UNL     1      22.666   2.821  52.508  1.00  0.00    -0.272 OA
HETATM   14  N2  UNL     1      24.439   2.552  51.097  1.00  0.00    -0.354 N 
HETATM   15  H5  UNL     1      25.033   1.936  50.538  1.00  0.00     0.162 HD
BRANCH  14  16
HETATM   16  C5  UNL     1      24.507   3.991  51.280  1.00  0.00     0.187 C 
BRANCH  16  17
HETATM   17  C6  UNL     1      25.425   4.627  50.312  1.00  0.00     0.064 A 
HETATM   18  C7  UNL     1      26.397   3.881  49.801  1.00  0.00     0.034 A 
HETATM   19  C8  UNL     1      27.325   4.477  48.838  1.00  0.00     0.001 A 
HETATM   20  C9  UNL     1      27.111   5.754  48.549  1.00  0.00    -0.000 A 
HETATM   21  C10 UNL     1      26.050   6.650  49.080  1.00  0.00     0.202 A 
HETATM   22  O2  UNL     1      25.228   5.952  49.993  1.00  0.00    -0.350 OA
ENDBRANCH  16  17
ENDBRANCH  14  16
ENDBRANCH   5  12
TORSDOF 3
ENDMDL
MODEL 8
REMARK VINA RESULT:      -6.9      3.502      6.402
REMARK  3 active torsions:
REMARK  status: ('A' for Active; 'I' for Inactive)
REMARK    1  A    between atoms: C3_5  and  C4_6 
REMARK       I    between atoms: C4_6  and  N2_8 
REMARK    2  A    between atoms: N2_8  and  C5_9 
REMARK    3  A    between atoms: C5_9  and  C6_10 
ROOT
HETATM    1  C1  UNL     1      20.493   5.041  50.573  1.00  0.00     0.158 C 
HETATM    2  N1  UNL     1      21.277   4.137  51.370  1.00  0.00    -0.329 N 
HETATM    3  C2  UNL     1      22.593   4.413  51.834  1.00  0.00     0.098 A 
HETATM    4  S1  UNL     1      23.532   5.744  51.620  1.00  0.00    -0.064 SA
HETATM    5  C3  UNL     1      23.146   3.265  52.637  1.00  0.00     0.176 A 
HETATM    6  C11 UNL     1      22.022   2.302  52.601  1.00  0.00     0.008 A 
HETATM    7  C12 UNL     1      21.738   1.043  53.088  1.00  0.00     0.013 A 
HETATM    8  C13 UNL     1      20.554   0.373  52.879  1.00  0.00     0.020 A 
HETATM    9  C14 UNL     1      19.567   0.978  52.135  1.00  0.00     0.119 A 
HETATM   10  N3  UNL     1      19.801   2.195  51.646  1.00  0.00    -0.243 NA
HETATM   11  C15 UNL     1      20.963   2.839  51.858  1.00  0.00     0.137 A 
ENDROOT
BRANCH   5  12
HETATM   12  C4  UNL     1      24.384   2.765  52.002  1.00  0.00     0.233 C 
HETATM   13  O1  UNL     1      24.305   2.132  50.895  1.00  0.00    -0.272 OA
HETATM   14  N2  UNL     1      25.689   2.927  52.524  1.00  0.00    -0.354 N 
HETATM   15  H5  UNL     1      25.813   3.427  53.408  1.00  0.00     0.162 HD
BRANCH  14  16
HETATM   16  C5  UNL     1      26.682   2.318  51.657  1.00  0.00     0.187 C 
BRANCH  16  17
HETATM   17  C6  UNL     1      27.417   1.232  52.338  1.00  0.00     0.064 A 
HETATM   18  C7  UNL     1      26.868   0.023  52.343  1.00  0.00     0.034 A 
HETATM   19  C8  UNL     1      27.567  -1.078  53.008  1.00  0.00     0.001 A 
HETATM   20  C9  UNL     1      28.728  -0.766  53.569  1.00  0.00    -0.000 A 
HETATM   21  C10 UNL     1      29.403   0.558  53.605  1.00  0.00     0.202 A 
HETATM   22  O2  UNL     1      28.625   1.526  52.930  1.00  0.00    -0.350 OA
ENDBRANCH  16  17
ENDBRANCH  14  16
ENDBRANCH   5  12
TORSDOF 3
ENDMDL
MODEL 9
REMARK VINA RESULT:      -6.7      3.429      4.991
REMARK  3 active torsions:
REMARK  status: ('A' for Active; 'I' for Inactive)
REMARK    1  A    between atoms: C3_5  and  C4_6 
REMARK       I    between atoms: C4_6  and  N2_8 
REMARK    2  A    between atoms: N2_8  and  C5_9 
REMARK    3  A    between atoms: C5_9  and  C6_10 
ROOT
HETATM    1  C1  UNL     1      18.473   1.704  51.545  1.00  0.00     0.158 C 
HETATM    2  N1  UNL     1      19.788   1.626  52.122  1.00  0.00    -0.329 N 
HETATM    3  C2  UNL     1      20.773   2.645  52.013  1.00  0.00     0.098 A 
HETATM    4  S1  UNL     1      20.707   4.103  51.259  1.00  0.00    -0.064 SA
HETATM    5  C3  UNL     1      22.046   2.259  52.720  1.00  0.00     0.176 A 
HETATM    6  C11 UNL     1      21.700   0.923  53.258  1.00  0.00     0.008 A 
HETATM    7  C12 UNL     1      22.304  -0.066  54.006  1.00  0.00     0.013 A 
HETATM    8  C13 UNL     1      21.704  -1.252  54.361  1.00  0.00     0.020 A 
HETATM    9  C14 UNL     1      20.412  -1.496  53.955  1.00  0.00     0.119 A 
HETATM   10  N3  UNL     1      19.792  -0.565  53.230  1.00  0.00    -0.243 NA
HETATM   11  C15 UNL     1      20.390   0.591  52.889  1.00  0.00     0.137 A 
ENDROOT
BRANCH   5  12
HETATM   12  C4  UNL     1      23.167   2.245  51.756  1.00  0.00     0.233 C 
HETATM   13  O1  UNL     1      23.061   1.551  50.689  1.00  0.00    -0.272 OA
HETATM   14  N2  UNL     1      24.383   2.951  51.913  1.00  0.00    -0.354 N 
HETATM   15  H5  UNL     1      24.522   3.524  52.748  1.00  0.00     0.162 HD
BRANCH  14  16
HETATM   16  C5  UNL     1      25.272   2.722  50.787  1.00  0.00     0.187 C 
BRANCH  16  17
HETATM   17  C6  UNL     1      25.700   3.988  50.156  1.00  0.00     0.064 A 
HETATM   18  C7  UNL     1      26.746   3.947  49.340  1.00  0.00     0.034 A 
HETATM   19  C8  UNL     1      27.200   5.182  48.697  1.00  0.00     0.001 A 
HETATM   20  C9  UNL     1      26.507   6.273  48.994  1.00  0.00    -0.000 A 
HETATM   21  C10 UNL     1      25.331   6.395  49.896  1.00  0.00     0.202 A 
HETATM   22  O2  UNL     1      25.000   5.137  50.447  1.00  0.00    -0.350 OA
ENDBRANCH  16  17
ENDBRANCH  14  16
ENDBRANCH   5  12
TORSDOF 3
ENDMDL
