MODEL 1
REMARK VINA RESULT:      -6.9      0.000      0.000
REMARK  9 active torsions:
REMARK  status: ('A' for Active; 'I' for Inactive)
REMARK    1  A    between atoms: C4_4  and  C5_5 
REMARK    2  A    between atoms: C5_5  and  N1_6 
REMARK    3  A    between atoms: N1_6  and  C6_7 
REMARK    4  A    between atoms: C6_7  and  N2_9 
REMARK    5  A    between atoms: N2_9  and  C8_10 
REMARK    6  A    between atoms: N2_9  and  C11_13 
REMARK    7  A    between atoms: C8_10  and  C9_11 
REMARK    8  A    between atoms: C11_13  and  C12_14 
REMARK    9  A    between atoms: C17_21  and  O1_22 
ROOT
HETATM    1  C1  UNL     1      25.653   7.185  48.096  1.00  0.00     0.017 C 
HETATM    2  C2  UNL     1      26.531   6.363  48.316  1.00  0.00    -0.090 C 
HETATM    3  C3  UNL     1      27.556   5.398  48.586  1.00  0.00     0.061 C 
HETATM    4  C4  UNL     1      27.141   4.292  49.185  1.00  0.00     0.011 C 
ENDROOT
BRANCH   4   5
HETATM    5  C5  UNL     1      25.737   4.126  49.521  1.00  0.00     0.300 C 
BRANCH   5   6
HETATM    6  N1  UNL     1      25.436   3.661  50.846  1.00  0.00     0.120 N 
HETATM    7  H6  UNL     1      25.335   4.553  51.419  1.00  0.00     0.319 HD
BRANCH   6   8
HETATM    8  C6  UNL     1      24.166   3.017  50.935  1.00  0.00     0.450 C 
HETATM    9  C7  UNL     1      23.398   2.849  49.684  1.00  0.00     0.077 C 
BRANCH   8  10
HETATM   10  N2  UNL     1      24.247   1.756  51.677  1.00  0.00     0.126 N 
BRANCH  10  11
HETATM   11  C8  UNL     1      22.969   1.183  51.886  1.00  0.00     0.275 C 
BRANCH  11  12
HETATM   12  C9  UNL     1      22.703   0.646  53.250  1.00  0.00     0.026 C 
HETATM   13  C10 UNL     1      21.828  -0.595  53.055  1.00  0.00     0.007 C 
ENDBRANCH  11  12
ENDBRANCH  10  11
BRANCH  10  14
HETATM   14  C11 UNL     1      25.019   2.001  52.833  1.00  0.00     0.317 C 
BRANCH  14  15
HETATM   15  C12 UNL     1      26.158   1.074  53.035  1.00  0.00     0.006 A 
HETATM   16  C13 UNL     1      26.251  -0.267  52.676  1.00  0.00     0.035 A 
HETATM   17  C14 UNL     1      27.406  -0.974  52.950  1.00  0.00     0.036 A 
HETATM   18 CL1  UNL     1      27.327  -2.650  52.420  1.00  0.00    -0.084 Cl
HETATM   19  C15 UNL     1      28.496  -0.391  53.578  1.00  0.00     0.050 A 
HETATM   20  C16 UNL     1      28.414   0.937  53.939  1.00  0.00     0.069 A 
HETATM   21 CL2  UNL     1      29.794   1.658  54.733  1.00  0.00    -0.081 Cl
HETATM   22  C17 UNL     1      27.265   1.648  53.669  1.00  0.00     0.095 A 
BRANCH  22  23
HETATM   23  O1  UNL     1      27.278   2.977  54.070  1.00  0.00    -0.358 OA
HETATM   24  H22 UNL     1      26.892   3.127  55.015  1.00  0.00     0.217 HD
ENDBRANCH  22  23
ENDBRANCH  14  15
ENDBRANCH  10  14
ENDBRANCH   8  10
ENDBRANCH   6   8
ENDBRANCH   5   6
ENDBRANCH   4   5
TORSDOF 9
ENDMDL
MODEL 2
REMARK VINA RESULT:      -6.7      3.087      6.024
REMARK  9 active torsions:
REMARK  status: ('A' for Active; 'I' for Inactive)
REMARK    1  A    between atoms: C4_4  and  C5_5 
REMARK    2  A    between atoms: C5_5  and  N1_6 
REMARK    3  A    between atoms: N1_6  and  C6_7 
REMARK    4  A    between atoms: C6_7  and  N2_9 
REMARK    5  A    between atoms: N2_9  and  C8_10 
REMARK    6  A    between atoms: N2_9  and  C11_13 
REMARK    7  A    between atoms: C8_10  and  C9_11 
REMARK    8  A    between atoms: C11_13  and  C12_14 
REMARK    9  A    between atoms: C17_21  and  O1_22 
ROOT
HETATM    1  C1  UNL     1      28.461  -1.166  53.168  1.00  0.00     0.017 C 
HETATM    2  C2  UNL     1      28.867  -0.128  53.671  1.00  0.00    -0.090 C 
HETATM    3  C3  UNL     1      29.346   1.094  54.248  1.00  0.00     0.061 C 
HETATM    4  C4  UNL     1      28.758   2.193  53.799  1.00  0.00     0.011 C 
ENDROOT
BRANCH   4   5
HETATM    5  C5  UNL     1      27.711   2.104  52.794  1.00  0.00     0.300 C 
BRANCH   5   6
HETATM    6  N1  UNL     1      26.388   2.491  53.197  1.00  0.00     0.120 N 
HETATM    7  H6  UNL     1      26.244   3.443  52.741  1.00  0.00     0.319 HD
BRANCH   6   8
HETATM    8  C6  UNL     1      25.372   1.657  52.643  1.00  0.00     0.450 C 
HETATM    9  C7  UNL     1      25.039   0.413  53.370  1.00  0.00     0.077 C 
BRANCH   8  10
HETATM   10  N2  UNL     1      24.162   2.417  52.318  1.00  0.00     0.126 N 
BRANCH  10  11
HETATM   11  C8  UNL     1      22.996   1.795  52.824  1.00  0.00     0.275 C 
BRANCH  11  12
HETATM   12  C9  UNL     1      21.877   1.609  51.858  1.00  0.00     0.026 C 
HETATM   13  C10 UNL     1      20.587   1.780  52.664  1.00  0.00     0.007 C 
ENDBRANCH  11  12
ENDBRANCH  10  11
BRANCH  10  14
HETATM   14  C11 UNL     1      24.187   2.664  50.928  1.00  0.00     0.317 C 
BRANCH  14  15
HETATM   15  C12 UNL     1      24.643   4.020  50.540  1.00  0.00     0.006 A 
HETATM   16  C13 UNL     1      24.043   5.244  50.821  1.00  0.00     0.035 A 
HETATM   17  C14 UNL     1      24.623   6.414  50.371  1.00  0.00     0.036 A 
HETATM   18 CL1  UNL     1      23.715   7.851  50.826  1.00  0.00    -0.084 Cl
HETATM   19  C15 UNL     1      25.801   6.418  49.638  1.00  0.00     0.050 A 
HETATM   20  C16 UNL     1      26.404   5.212  49.354  1.00  0.00     0.069 A 
HETATM   21 CL2  UNL     1      27.885   5.233  48.428  1.00  0.00    -0.081 Cl
HETATM   22  C17 UNL     1      25.830   4.041  49.800  1.00  0.00     0.095 A 
BRANCH  22  23
HETATM   23  O1  UNL     1      26.510   2.878  49.465  1.00  0.00    -0.358 OA
HETATM   24  H22 UNL     1      25.951   2.021  49.599  1.00  0.00     0.217 HD
ENDBRANCH  22  23
ENDBRANCH  14  15
ENDBRANCH  10  14
ENDBRANCH   8  10
ENDBRANCH   6   8
ENDBRANCH   5   6
ENDBRANCH   4   5
TORSDOF 9
ENDMDL
MODEL 3
REMARK VINA RESULT:      -6.6      3.855      6.339
REMARK  9 active torsions:
REMARK  status: ('A' for Active; 'I' for Inactive)
REMARK    1  A    between atoms: C4_4  and  C5_5 
REMARK    2  A    between atoms: C5_5  and  N1_6 
REMARK    3  A    between atoms: N1_6  and  C6_7 
REMARK    4  A    between atoms: C6_7  and  N2_9 
REMARK    5  A    between atoms: N2_9  and  C8_10 
REMARK    6  A    between atoms: N2_9  and  C11_13 
REMARK    7  A    between atoms: C8_10  and  C9_11 
REMARK    8  A    between atoms: C11_13  and  C12_14 
REMARK    9  A    between atoms: C17_21  and  O1_22 
ROOT
HETATM    1  C1  UNL     1      30.018  -1.009  53.746  1.00  0.00     0.017 C 
HETATM    2  C2  UNL     1      29.030  -1.546  53.264  1.00  0.00    -0.090 C 
HETATM    3  C3  UNL     1      27.865  -2.169  52.709  1.00  0.00     0.061 C 
HETATM    4  C4  UNL     1      26.842  -1.355  52.494  1.00  0.00     0.011 C 
ENDROOT
BRANCH   4   5
HETATM    5  C5  UNL     1      26.952   0.058  52.818  1.00  0.00     0.300 C 
BRANCH   5   6
HETATM    6  N1  UNL     1      25.875   0.637  53.570  1.00  0.00     0.120 N 
HETATM    7  H6  UNL     1      25.423   1.324  52.892  1.00  0.00     0.319 HD
BRANCH   6   8
HETATM    8  C6  UNL     1      24.848  -0.302  53.887  1.00  0.00     0.450 C 
HETATM    9  C7  UNL     1      24.869  -0.906  55.236  1.00  0.00     0.077 C 
BRANCH   8  10
HETATM   10  N2  UNL     1      23.518   0.218  53.562  1.00  0.00     0.126 N 
BRANCH  10  11
HETATM   11  C8  UNL     1      22.513  -0.767  53.725  1.00  0.00     0.275 C 
BRANCH  11  12
HETATM   12  C9  UNL     1      21.331  -0.371  54.541  1.00  0.00     0.026 C 
HETATM   13  C10 UNL     1      20.100  -0.695  53.690  1.00  0.00     0.007 C 
ENDBRANCH  11  12
ENDBRANCH  10  11
BRANCH  10  14
HETATM   14  C11 UNL     1      23.605   0.819  52.288  1.00  0.00     0.317 C 
BRANCH  14  15
HETATM   15  C12 UNL     1      22.830   2.074  52.133  1.00  0.00     0.006 A 
HETATM   16  C13 UNL     1      21.451   2.228  52.033  1.00  0.00     0.035 A 
HETATM   17  C14 UNL     1      20.908   3.491  51.892  1.00  0.00     0.036 A 
HETATM   18 CL1  UNL     1      19.153   3.476  51.781  1.00  0.00    -0.084 Cl
HETATM   19  C15 UNL     1      21.697   4.631  51.847  1.00  0.00     0.050 A 
HETATM   20  C16 UNL     1      23.064   4.490  51.945  1.00  0.00     0.069 A 
HETATM   21 CL2  UNL     1      24.045   5.935  51.884  1.00  0.00    -0.081 Cl
HETATM   22  C17 UNL     1      23.612   3.233  52.085  1.00  0.00     0.095 A 
BRANCH  22  23
HETATM   23  O1  UNL     1      24.996   3.193  52.176  1.00  0.00    -0.358 OA
HETATM   24  H22 UNL     1      25.409   4.053  52.569  1.00  0.00     0.217 HD
ENDBRANCH  22  23
ENDBRANCH  14  15
ENDBRANCH  10  14
ENDBRANCH   8  10
ENDBRANCH   6   8
ENDBRANCH   5   6
ENDBRANCH   4   5
TORSDOF 9
ENDMDL
MODEL 4
REMARK VINA RESULT:      -6.6      3.128      5.924
REMARK  9 active torsions:
REMARK  status: ('A' for Active; 'I' for Inactive)
REMARK    1  A    between atoms: C4_4  and  C5_5 
REMARK    2  A    between atoms: C5_5  and  N1_6 
REMARK    3  A    between atoms: N1_6  and  C6_7 
REMARK    4  A    between atoms: C6_7  and  N2_9 
REMARK    5  A    between atoms: N2_9  and  C8_10 
REMARK    6  A    between atoms: N2_9  and  C11_13 
REMARK    7  A    between atoms: C8_10  and  C9_11 
REMARK    8  A    between atoms: C11_13  and  C12_14 
REMARK    9  A    between atoms: C17_21  and  O1_22 
ROOT
HETATM    1  C1  UNL     1      28.274  -1.126  53.127  1.00  0.00     0.017 C 
HETATM    2  C2  UNL     1      28.703  -0.089  53.612  1.00  0.00    -0.090 C 
HETATM    3  C3  UNL     1      29.207   1.133  54.169  1.00  0.00     0.061 C 
HETATM    4  C4  UNL     1      28.628   2.235  53.718  1.00  0.00     0.011 C 
ENDROOT
BRANCH   4   5
HETATM    5  C5  UNL     1      27.564   2.151  52.731  1.00  0.00     0.300 C 
BRANCH   5   6
HETATM    6  N1  UNL     1      26.239   2.486  53.172  1.00  0.00     0.120 N 
HETATM    7  H6  UNL     1      26.077   3.466  52.789  1.00  0.00     0.319 HD
BRANCH   6   8
HETATM    8  C6  UNL     1      25.230   1.679  52.566  1.00  0.00     0.450 C 
HETATM    9  C7  UNL     1      24.861   0.422  53.251  1.00  0.00     0.077 C 
BRANCH   8  10
HETATM   10  N2  UNL     1      24.041   2.462  52.224  1.00  0.00     0.126 N 
BRANCH  10  11
HETATM   11  C8  UNL     1      22.863   1.903  52.777  1.00  0.00     0.275 C 
BRANCH  11  12
HETATM   12  C9  UNL     1      21.701   1.770  51.852  1.00  0.00     0.026 C 
HETATM   13  C10 UNL     1      20.491   2.320  52.612  1.00  0.00     0.007 C 
ENDBRANCH  11  12
ENDBRANCH  10  11
BRANCH  10  14
HETATM   14  C11 UNL     1      24.050   2.645  50.824  1.00  0.00     0.317 C 
BRANCH  14  15
HETATM   15  C12 UNL     1      24.773   3.850  50.354  1.00  0.00     0.006 A 
HETATM   16  C13 UNL     1      25.973   3.915  49.652  1.00  0.00     0.035 A 
HETATM   17  C14 UNL     1      26.495   5.145  49.296  1.00  0.00     0.036 A 
HETATM   18 CL1  UNL     1      28.014   5.017  48.417  1.00  0.00    -0.084 Cl
HETATM   19  C15 UNL     1      25.860   6.336  49.615  1.00  0.00     0.050 A 
HETATM   20  C16 UNL     1      24.671   6.282  50.310  1.00  0.00     0.069 A 
HETATM   21 CL2  UNL     1      23.884   7.791  50.707  1.00  0.00    -0.081 Cl
HETATM   22  C17 UNL     1      24.145   5.060  50.668  1.00  0.00     0.095 A 
BRANCH  22  23
HETATM   23  O1  UNL     1      22.946   5.108  51.365  1.00  0.00    -0.358 OA
HETATM   24  H22 UNL     1      22.355   4.273  51.227  1.00  0.00     0.217 HD
ENDBRANCH  22  23
ENDBRANCH  14  15
ENDBRANCH  10  14
ENDBRANCH   8  10
ENDBRANCH   6   8
ENDBRANCH   5   6
ENDBRANCH   4   5
TORSDOF 9
ENDMDL
MODEL 5
REMARK VINA RESULT:      -6.5      1.830      3.059
REMARK  9 active torsions:
REMARK  status: ('A' for Active; 'I' for Inactive)
REMARK    1  A    between atoms: C4_4  and  C5_5 
REMARK    2  A    between atoms: C5_5  and  N1_6 
REMARK    3  A    between atoms: N1_6  and  C6_7 
REMARK    4  A    between atoms: C6_7  and  N2_9 
REMARK    5  A    between atoms: N2_9  and  C8_10 
REMARK    6  A    between atoms: N2_9  and  C11_13 
REMARK    7  A    between atoms: C8_10  and  C9_11 
REMARK    8  A    between atoms: C11_13  and  C12_14 
REMARK    9  A    between atoms: C17_21  and  O1_22 
ROOT
HETATM    1  C1  UNL     1      27.724   8.069  47.685  1.00  0.00     0.017 C 
HETATM    2  C2  UNL     1      26.554   7.714  47.680  1.00  0.00    -0.090 C 
HETATM    3  C3  UNL     1      25.186   7.285  47.677  1.00  0.00     0.061 C 
HETATM    4  C4  UNL     1      24.821   6.566  48.728  1.00  0.00     0.011 C 
ENDROOT
BRANCH   4   5
HETATM    5  C5  UNL     1      25.783   6.265  49.776  1.00  0.00     0.300 C 
BRANCH   5   6
HETATM    6  N1  UNL     1      25.493   5.139  50.620  1.00  0.00     0.120 N 
HETATM    7  H6  UNL     1      24.539   5.364  51.037  1.00  0.00     0.319 HD
BRANCH   6   8
HETATM    8  C6  UNL     1      25.300   3.930  49.887  1.00  0.00     0.450 C 
HETATM    9  C7  UNL     1      26.497   3.111  49.597  1.00  0.00     0.077 C 
BRANCH   8  10
HETATM   10  N2  UNL     1      24.228   3.112  50.460  1.00  0.00     0.126 N 
BRANCH  10  11
HETATM   11  C8  UNL     1      22.967   3.427  49.898  1.00  0.00     0.275 C 
BRANCH  11  12
HETATM   12  C9  UNL     1      22.198   2.286  49.326  1.00  0.00     0.026 C 
HETATM   13  C10 UNL     1      22.596   2.202  47.850  1.00  0.00     0.007 C 
ENDBRANCH  11  12
ENDBRANCH  10  11
BRANCH  10  14
HETATM   14  C11 UNL     1      24.331   3.214  51.864  1.00  0.00     0.317 C 
BRANCH  14  15
HETATM   15  C12 UNL     1      24.390   1.920  52.584  1.00  0.00     0.006 A 
HETATM   16  C13 UNL     1      23.415   0.931  52.658  1.00  0.00     0.035 A 
HETATM   17  C14 UNL     1      23.656  -0.220  53.386  1.00  0.00     0.036 A 
HETATM   18 CL1  UNL     1      22.304  -1.345  53.359  1.00  0.00    -0.084 Cl
HETATM   19  C15 UNL     1      24.852  -0.431  54.055  1.00  0.00     0.050 A 
HETATM   20  C16 UNL     1      25.825   0.543  53.988  1.00  0.00     0.069 A 
HETATM   21 CL2  UNL     1      27.326   0.263  54.839  1.00  0.00    -0.081 Cl
HETATM   22  C17 UNL     1      25.591   1.692  53.265  1.00  0.00     0.095 A 
BRANCH  22  23
HETATM   23  O1  UNL     1      26.629   2.613  53.256  1.00  0.00    -0.358 OA
HETATM   24  H22 UNL     1      26.847   2.998  54.189  1.00  0.00     0.217 HD
ENDBRANCH  22  23
ENDBRANCH  14  15
ENDBRANCH  10  14
ENDBRANCH   8  10
ENDBRANCH   6   8
ENDBRANCH   5   6
ENDBRANCH   4   5
TORSDOF 9
ENDMDL
MODEL 6
REMARK VINA RESULT:      -6.4      1.797      5.098
REMARK  9 active torsions:
REMARK  status: ('A' for Active; 'I' for Inactive)
REMARK    1  A    between atoms: C4_4  and  C5_5 
REMARK    2  A    between atoms: C5_5  and  N1_6 
REMARK    3  A    between atoms: N1_6  and  C6_7 
REMARK    4  A    between atoms: C6_7  and  N2_9 
REMARK    5  A    between atoms: N2_9  and  C8_10 
REMARK    6  A    between atoms: N2_9  and  C11_13 
REMARK    7  A    between atoms: C8_10  and  C9_11 
REMARK    8  A    between atoms: C11_13  and  C12_14 
REMARK    9  A    between atoms: C17_21  and  O1_22 
ROOT
HETATM    1  C1  UNL     1      20.579   0.139  53.952  1.00  0.00     0.017 C 
HETATM    2  C2  UNL     1      20.956   0.142  52.788  1.00  0.00    -0.090 C 
HETATM    3  C3  UNL     1      21.387   0.153  51.421  1.00  0.00     0.061 C 
HETATM    4  C4  UNL     1      21.430   1.351  50.857  1.00  0.00     0.011 C 
ENDROOT
BRANCH   4   5
HETATM    5  C5  UNL     1      21.055   2.531  51.618  1.00  0.00     0.300 C 
BRANCH   5   6
HETATM    6  N1  UNL     1      22.080   3.513  51.841  1.00  0.00     0.120 N 
HETATM    7  H6  UNL     1      22.731   3.054  52.549  1.00  0.00     0.319 HD
BRANCH   6   8
HETATM    8  C6  UNL     1      22.889   3.745  50.689  1.00  0.00     0.450 C 
HETATM    9  C7  UNL     1      22.421   4.761  49.722  1.00  0.00     0.077 C 
BRANCH   8  10
HETATM   10  N2  UNL     1      24.293   3.964  51.045  1.00  0.00     0.126 N 
BRANCH  10  11
HETATM   11  C8  UNL     1      24.794   5.170  50.500  1.00  0.00     0.275 C 
BRANCH  11  12
HETATM   12  C9  UNL     1      25.905   5.035  49.515  1.00  0.00     0.026 C 
HETATM   13  C10 UNL     1      25.834   6.276  48.622  1.00  0.00     0.007 C 
ENDBRANCH  11  12
ENDBRANCH  10  11
BRANCH  10  14
HETATM   14  C11 UNL     1      24.995   2.785  50.712  1.00  0.00     0.317 C 
BRANCH  14  15
HETATM   15  C12 UNL     1      25.415   1.957  51.867  1.00  0.00     0.006 A 
HETATM   16  C13 UNL     1      24.660   1.037  52.587  1.00  0.00     0.035 A 
HETATM   17  C14 UNL     1      25.232   0.353  53.644  1.00  0.00     0.036 A 
HETATM   18 CL1  UNL     1      24.117  -0.761  54.425  1.00  0.00    -0.084 Cl
HETATM   19  C15 UNL     1      26.552   0.551  54.021  1.00  0.00     0.050 A 
HETATM   20  C16 UNL     1      27.309   1.461  53.314  1.00  0.00     0.069 A 
HETATM   21 CL2  UNL     1      28.970   1.701  53.803  1.00  0.00    -0.081 Cl
HETATM   22  C17 UNL     1      26.745   2.145  52.261  1.00  0.00     0.095 A 
BRANCH  22  23
HETATM   23  O1  UNL     1      27.586   3.039  51.611  1.00  0.00    -0.358 OA
HETATM   24  H22 UNL     1      27.386   3.136  50.603  1.00  0.00     0.217 HD
ENDBRANCH  22  23
ENDBRANCH  14  15
ENDBRANCH  10  14
ENDBRANCH   8  10
ENDBRANCH   6   8
ENDBRANCH   5   6
ENDBRANCH   4   5
TORSDOF 9
ENDMDL
MODEL 7
REMARK VINA RESULT:      -6.3      3.385      7.091
REMARK  9 active torsions:
REMARK  status: ('A' for Active; 'I' for Inactive)
REMARK    1  A    between atoms: C4_4  and  C5_5 
REMARK    2  A    between atoms: C5_5  and  N1_6 
REMARK    3  A    between atoms: N1_6  and  C6_7 
REMARK    4  A    between atoms: C6_7  and  N2_9 
REMARK    5  A    between atoms: N2_9  and  C8_10 
REMARK    6  A    between atoms: N2_9  and  C11_13 
REMARK    7  A    between atoms: C8_10  and  C9_11 
REMARK    8  A    between atoms: C11_13  and  C12_14 
REMARK    9  A    between atoms: C17_21  and  O1_22 
ROOT
HETATM    1  C1  UNL     1      20.455   0.960  53.939  1.00  0.00     0.017 C 
HETATM    2  C2  UNL     1      20.676  -0.230  54.118  1.00  0.00    -0.090 C 
HETATM    3  C3  UNL     1      20.945  -1.624  54.319  1.00  0.00     0.061 C 
HETATM    4  C4  UNL     1      22.216  -1.922  54.543  1.00  0.00     0.011 C 
ENDROOT
BRANCH   4   5
HETATM    5  C5  UNL     1      23.220  -0.872  54.572  1.00  0.00     0.300 C 
BRANCH   5   6
HETATM    6  N1  UNL     1      23.841  -0.532  53.322  1.00  0.00     0.120 N 
HETATM    7  H6  UNL     1      23.358   0.371  53.027  1.00  0.00     0.319 HD
BRANCH   6   8
HETATM    8  C6  UNL     1      25.219  -0.188  53.460  1.00  0.00     0.450 C 
HETATM    9  C7  UNL     1      26.217  -1.168  52.983  1.00  0.00     0.077 C 
BRANCH   8  10
HETATM   10  N2  UNL     1      25.500   1.150  52.933  1.00  0.00     0.126 N 
BRANCH  10  11
HETATM   11  C8  UNL     1      26.435   1.848  53.736  1.00  0.00     0.275 C 
BRANCH  11  12
HETATM   12  C9  UNL     1      27.701   2.258  53.065  1.00  0.00     0.026 C 
HETATM   13  C10 UNL     1      28.823   1.495  53.774  1.00  0.00     0.007 C 
ENDBRANCH  11  12
ENDBRANCH  10  11
BRANCH  10  14
HETATM   14  C11 UNL     1      24.256   1.785  52.725  1.00  0.00     0.317 C 
BRANCH  14  15
HETATM   15  C12 UNL     1      24.079   2.392  51.384  1.00  0.00     0.006 A 
HETATM   16  C13 UNL     1      24.798   3.435  50.809  1.00  0.00     0.035 A 
HETATM   17  C14 UNL     1      24.484   3.867  49.534  1.00  0.00     0.036 A 
HETATM   18 CL1  UNL     1      25.503   5.192  48.986  1.00  0.00    -0.084 Cl
HETATM   19  C15 UNL     1      23.463   3.292  48.792  1.00  0.00     0.050 A 
HETATM   20  C16 UNL     1      22.744   2.257  49.352  1.00  0.00     0.069 A 
HETATM   21 CL2  UNL     1      21.459   1.544  48.406  1.00  0.00    -0.081 Cl
HETATM   22  C17 UNL     1      23.053   1.823  50.623  1.00  0.00     0.095 A 
BRANCH  22  23
HETATM   23  O1  UNL     1      22.274   0.778  51.101  1.00  0.00    -0.358 OA
HETATM   24  H22 UNL     1      22.660  -0.156  50.886  1.00  0.00     0.217 HD
ENDBRANCH  22  23
ENDBRANCH  14  15
ENDBRANCH  10  14
ENDBRANCH   8  10
ENDBRANCH   6   8
ENDBRANCH   5   6
ENDBRANCH   4   5
TORSDOF 9
ENDMDL
MODEL 8
REMARK VINA RESULT:      -6.2      2.339      3.260
REMARK  9 active torsions:
REMARK  status: ('A' for Active; 'I' for Inactive)
REMARK    1  A    between atoms: C4_4  and  C5_5 
REMARK    2  A    between atoms: C5_5  and  N1_6 
REMARK    3  A    between atoms: N1_6  and  C6_7 
REMARK    4  A    between atoms: C6_7  and  N2_9 
REMARK    5  A    between atoms: N2_9  and  C8_10 
REMARK    6  A    between atoms: N2_9  and  C11_13 
REMARK    7  A    between atoms: C8_10  and  C9_11 
REMARK    8  A    between atoms: C11_13  and  C12_14 
REMARK    9  A    between atoms: C17_21  and  O1_22 
ROOT
HETATM    1  C1  UNL     1      27.481   4.782  48.696  1.00  0.00     0.017 C 
HETATM    2  C2  UNL     1      26.670   5.627  49.048  1.00  0.00    -0.090 C 
HETATM    3  C3  UNL     1      25.713   6.616  49.449  1.00  0.00     0.061 C 
HETATM    4  C4  UNL     1      24.446   6.245  49.343  1.00  0.00     0.011 C 
ENDROOT
BRANCH   4   5
HETATM    5  C5  UNL     1      24.111   4.920  48.848  1.00  0.00     0.300 C 
BRANCH   5   6
HETATM    6  N1  UNL     1      23.683   3.952  49.819  1.00  0.00     0.120 N 
HETATM    7  H6  UNL     1      23.331   4.540  50.636  1.00  0.00     0.319 HD
BRANCH   6   8
HETATM    8  C6  UNL     1      22.550   3.198  49.391  1.00  0.00     0.450 C 
HETATM    9  C7  UNL     1      22.688   2.406  48.150  1.00  0.00     0.077 C 
BRANCH   8  10
HETATM   10  N2  UNL     1      21.997   2.384  50.477  1.00  0.00     0.126 N 
BRANCH  10  11
HETATM   11  C8  UNL     1      20.590   2.509  50.566  1.00  0.00     0.275 C 
BRANCH  11  12
HETATM   12  C9  UNL     1      19.792   1.377  50.014  1.00  0.00     0.026 C 
HETATM   13  C10 UNL     1      19.592   0.395  51.172  1.00  0.00     0.007 C 
ENDBRANCH  11  12
ENDBRANCH  10  11
BRANCH  10  14
HETATM   14  C11 UNL     1      22.729   2.694  51.644  1.00  0.00     0.317 C 
BRANCH  14  15
HETATM   15  C12 UNL     1      23.289   1.524  52.362  1.00  0.00     0.006 A 
HETATM   16  C13 UNL     1      22.641   0.666  53.246  1.00  0.00     0.035 A 
HETATM   17  C14 UNL     1      23.337  -0.380  53.822  1.00  0.00     0.036 A 
HETATM   18 CL1  UNL     1      22.346  -1.347  54.909  1.00  0.00    -0.084 Cl
HETATM   19  C15 UNL     1      24.676  -0.615  53.549  1.00  0.00     0.050 A 
HETATM   20  C16 UNL     1      25.326   0.229  52.674  1.00  0.00     0.069 A 
HETATM   21 CL2  UNL     1      27.015  -0.077  52.341  1.00  0.00    -0.081 Cl
HETATM   22  C17 UNL     1      24.639   1.274  52.097  1.00  0.00     0.095 A 
BRANCH  22  23
HETATM   23  O1  UNL     1      25.379   2.068  51.231  1.00  0.00    -0.358 OA
HETATM   24  H22 UNL     1      26.396   2.030  51.403  1.00  0.00     0.217 HD
ENDBRANCH  22  23
ENDBRANCH  14  15
ENDBRANCH  10  14
ENDBRANCH   8  10
ENDBRANCH   6   8
ENDBRANCH   5   6
ENDBRANCH   4   5
TORSDOF 9
ENDMDL
MODEL 9
REMARK VINA RESULT:      -6.2      4.026      6.514
REMARK  9 active torsions:
REMARK  status: ('A' for Active; 'I' for Inactive)
REMARK    1  A    between atoms: C4_4  and  C5_5 
REMARK    2  A    between atoms: C5_5  and  N1_6 
REMARK    3  A    between atoms: N1_6  and  C6_7 
REMARK    4  A    between atoms: C6_7  and  N2_9 
REMARK    5  A    between atoms: N2_9  and  C8_10 
REMARK    6  A    between atoms: N2_9  and  C11_13 
REMARK    7  A    between atoms: C8_10  and  C9_11 
REMARK    8  A    between atoms: C11_13  and  C12_14 
REMARK    9  A    between atoms: C17_21  and  O1_22 
ROOT
HETATM    1  C1  UNL     1      29.034  -1.408  53.262  1.00  0.00     0.017 C 
HETATM    2  C2  UNL     1      29.173  -0.240  53.596  1.00  0.00    -0.090 C 
HETATM    3  C3  UNL     1      29.336   1.133  53.975  1.00  0.00     0.061 C 
HETATM    4  C4  UNL     1      28.416   1.958  53.498  1.00  0.00     0.011 C 
ENDROOT
BRANCH   4   5
HETATM    5  C5  UNL     1      27.345   1.451  52.657  1.00  0.00     0.300 C 
BRANCH   5   6
HETATM    6  N1  UNL     1      26.000   1.740  53.073  1.00  0.00     0.120 N 
HETATM    7  H6  UNL     1      25.566   2.227  52.231  1.00  0.00     0.319 HD
BRANCH   6   8
HETATM    8  C6  UNL     1      25.214   0.566  53.269  1.00  0.00     0.450 C 
HETATM    9  C7  UNL     1      25.612  -0.346  54.363  1.00  0.00     0.077 C 
BRANCH   8  10
HETATM   10  N2  UNL     1      23.783   0.874  53.334  1.00  0.00     0.126 N 
BRANCH  10  11
HETATM   11  C8  UNL     1      23.057  -0.134  54.012  1.00  0.00     0.275 C 
BRANCH  11  12
HETATM   12  C9  UNL     1      22.226  -1.032  53.161  1.00  0.00     0.026 C 
HETATM   13  C10 UNL     1      21.138  -1.599  54.077  1.00  0.00     0.007 C 
ENDBRANCH  11  12
ENDBRANCH  10  11
BRANCH  10  14
HETATM   14  C11 UNL     1      23.362   1.174  52.021  1.00  0.00     0.317 C 
BRANCH  14  15
HETATM   15  C12 UNL     1      22.803   2.534  51.836  1.00  0.00     0.006 A 
HETATM   16  C13 UNL     1      23.490   3.738  51.716  1.00  0.00     0.035 A 
HETATM   17  C14 UNL     1      22.788   4.917  51.548  1.00  0.00     0.036 A 
HETATM   18 CL1  UNL     1      23.833   6.326  51.418  1.00  0.00    -0.084 Cl
HETATM   19  C15 UNL     1      21.403   4.948  51.492  1.00  0.00     0.050 A 
HETATM   20  C16 UNL     1      20.712   3.761  51.610  1.00  0.00     0.069 A 
HETATM   21 CL2  UNL     1      18.967   3.816  51.540  1.00  0.00    -0.081 Cl
HETATM   22  C17 UNL     1      21.406   2.583  51.778  1.00  0.00     0.095 A 
BRANCH  22  23
HETATM   23  O1  UNL     1      20.625   1.441  51.887  1.00  0.00    -0.358 OA
HETATM   24  H22 UNL     1      20.730   0.953  52.791  1.00  0.00     0.217 HD
ENDBRANCH  22  23
ENDBRANCH  14  15
ENDBRANCH  10  14
ENDBRANCH   8  10
ENDBRANCH   6   8
ENDBRANCH   5   6
ENDBRANCH   4   5
TORSDOF 9
ENDMDL
