MODEL 1
REMARK VINA RESULT:      -7.3      0.000      0.000
REMARK  8 active torsions:
REMARK  status: ('A' for Active; 'I' for Inactive)
REMARK    1  A    between atoms: C3_3  and  C4_4 
REMARK    2  A    between atoms: C4_4  and  C5_5 
REMARK    3  A    between atoms: C4_4  and  C13_14 
REMARK    4  A    between atoms: C5_5  and  C6_6 
REMARK    5  A    between atoms: C6_6  and  C7_7 
REMARK    6  A    between atoms: C7_7  and  C8_8 
REMARK    7  A    between atoms: C13_14  and  N2_15 
REMARK    8  A    between atoms: C13_14  and  N3_16 
ROOT
HETATM    1  C4  UNL     1      24.079   1.955  51.380  1.00  0.00     0.050 C 
ENDROOT
BRANCH   1   2
HETATM    2  C3  UNL     1      22.820   1.671  50.581  1.00  0.00    -0.023 C 
HETATM    3  C2  UNL     1      21.651   1.105  50.858  1.00  0.00    -0.034 C 
HETATM    4  C1  UNL     1      20.381   0.794  50.135  1.00  0.00     0.036 C 
ENDBRANCH   1   2
BRANCH   1   5
HETATM    5  C5  UNL     1      23.880   1.152  52.662  1.00  0.00     0.013 C 
BRANCH   5   6
HETATM    6  C6  UNL     1      24.838   0.018  52.815  1.00  0.00     0.005 C 
BRANCH   6   7
HETATM    7  C7  UNL     1      26.134   0.340  52.071  1.00  0.00     0.038 C 
BRANCH   7   8
HETATM    8  C8  UNL     1      27.187   0.788  52.985  1.00  0.00    -0.055 A 
HETATM    9  C9  UNL     1      27.624  -0.062  53.988  1.00  0.00     0.026 A 
HETATM   10  C10 UNL     1      28.620   0.354  54.857  1.00  0.00     0.116 A 
HETATM   11  N1  UNL     1      29.185   1.567  54.762  1.00  0.00    -0.273 NA
HETATM   12  C11 UNL     1      28.794   2.429  53.803  1.00  0.00     0.116 A 
HETATM   13  C12 UNL     1      27.799   2.031  52.926  1.00  0.00     0.026 A 
ENDBRANCH   7   8
ENDBRANCH   6   7
ENDBRANCH   5   6
ENDBRANCH   1   5
BRANCH   1  14
HETATM   14  C13 UNL     1      24.101   3.400  51.749  1.00  0.00     0.184 C 
BRANCH  14  15
HETATM   15  N2  UNL     1      24.398   3.677  53.117  1.00  0.00    -0.410 N 
HETATM   16  H18 UNL     1      24.684   2.844  53.674  1.00  0.00     0.151 HD
HETATM   17  H19 UNL     1      23.739   4.311  53.595  1.00  0.00     0.151 HD
ENDBRANCH  14  15
BRANCH  14  18
HETATM   18  N3  UNL     1      24.830   4.266  50.854  1.00  0.00    -0.365 N 
HETATM   19  C14 UNL     1      25.912   3.512  50.263  1.00  0.00     0.089 A 
HETATM   20  C15 UNL     1      26.800   4.000  49.414  1.00  0.00     0.040 A 
HETATM   21  C16 UNL     1      26.741   5.396  48.999  1.00  0.00     0.033 A 
HETATM   22 CL1  UNL     1      27.805   6.233  47.900  1.00  0.00    -0.085 Cl
HETATM   23  C17 UNL     1      25.736   6.042  49.563  1.00  0.00     0.017 A 
HETATM   24  C18 UNL     1      24.665   5.663  50.516  1.00  0.00     0.153 A 
ENDBRANCH  14  18
ENDBRANCH   1  14
TORSDOF 8
ENDMDL
MODEL 2
REMARK VINA RESULT:      -7.3      1.573      2.275
REMARK  8 active torsions:
REMARK  status: ('A' for Active; 'I' for Inactive)
REMARK    1  A    between atoms: C3_3  and  C4_4 
REMARK    2  A    between atoms: C4_4  and  C5_5 
REMARK    3  A    between atoms: C4_4  and  C13_14 
REMARK    4  A    between atoms: C5_5  and  C6_6 
REMARK    5  A    between atoms: C6_6  and  C7_7 
REMARK    6  A    between atoms: C7_7  and  C8_8 
REMARK    7  A    between atoms: C13_14  and  N2_15 
REMARK    8  A    between atoms: C13_14  and  N3_16 
ROOT
HETATM    1  C4  UNL     1      24.693   2.652  51.335  1.00  0.00     0.050 C 
ENDROOT
BRANCH   1   2
HETATM    2  C3  UNL     1      23.417   1.920  50.961  1.00  0.00    -0.023 C 
HETATM    3  C2  UNL     1      22.598   1.091  51.599  1.00  0.00    -0.034 C 
HETATM    4  C1  UNL     1      21.341   0.341  51.300  1.00  0.00     0.036 C 
ENDBRANCH   1   2
BRANCH   1   5
HETATM    5  C5  UNL     1      24.664   2.667  52.861  1.00  0.00     0.013 C 
BRANCH   5   6
HETATM    6  C6  UNL     1      25.889   2.094  53.491  1.00  0.00     0.005 C 
BRANCH   6   7
HETATM    7  C7  UNL     1      26.845   1.609  52.401  1.00  0.00     0.038 C 
BRANCH   7   8
HETATM    8  C8  UNL     1      27.334   0.255  52.671  1.00  0.00    -0.055 A 
HETATM    9  C9  UNL     1      28.553   0.086  53.307  1.00  0.00     0.026 A 
HETATM   10  C10 UNL     1      29.022  -1.191  53.567  1.00  0.00     0.116 A 
HETATM   11  N1  UNL     1      28.331  -2.287  53.220  1.00  0.00    -0.273 NA
HETATM   12  C11 UNL     1      27.140  -2.174  52.598  1.00  0.00     0.116 A 
HETATM   13  C12 UNL     1      26.655  -0.905  52.330  1.00  0.00     0.026 A 
ENDBRANCH   7   8
ENDBRANCH   6   7
ENDBRANCH   5   6
ENDBRANCH   1   5
BRANCH   1  14
HETATM   14  C13 UNL     1      24.595   4.064  50.866  1.00  0.00     0.184 C 
BRANCH  14  15
HETATM   15  N2  UNL     1      24.234   5.016  51.866  1.00  0.00    -0.410 N 
HETATM   16  H18 UNL     1      25.013   5.295  52.498  1.00  0.00     0.151 HD
HETATM   17  H19 UNL     1      23.333   4.843  52.338  1.00  0.00     0.151 HD
ENDBRANCH  14  15
BRANCH  14  18
HETATM   18  N3  UNL     1      25.687   4.531  50.046  1.00  0.00    -0.365 N 
HETATM   19  C14 UNL     1      25.534   5.954  49.842  1.00  0.00     0.089 A 
HETATM   20  C15 UNL     1      26.342   6.706  49.115  1.00  0.00     0.040 A 
HETATM   21  C16 UNL     1      27.495   6.121  48.443  1.00  0.00     0.033 A 
HETATM   22 CL1  UNL     1      28.676   6.928  47.445  1.00  0.00    -0.085 Cl
HETATM   23  C17 UNL     1      27.595   4.822  48.662  1.00  0.00     0.017 A 
HETATM   24  C18 UNL     1      26.799   3.838  49.433  1.00  0.00     0.153 A 
ENDBRANCH  14  18
ENDBRANCH   1  14
TORSDOF 8
ENDMDL
MODEL 3
REMARK VINA RESULT:      -7.2      1.659      2.200
REMARK  8 active torsions:
REMARK  status: ('A' for Active; 'I' for Inactive)
REMARK    1  A    between atoms: C3_3  and  C4_4 
REMARK    2  A    between atoms: C4_4  and  C5_5 
REMARK    3  A    between atoms: C4_4  and  C13_14 
REMARK    4  A    between atoms: C5_5  and  C6_6 
REMARK    5  A    between atoms: C6_6  and  C7_7 
REMARK    6  A    between atoms: C7_7  and  C8_8 
REMARK    7  A    between atoms: C13_14  and  N2_15 
REMARK    8  A    between atoms: C13_14  and  N3_16 
ROOT
HETATM    1  C4  UNL     1      24.837   2.285  52.016  1.00  0.00     0.050 C 
ENDROOT
BRANCH   1   2
HETATM    2  C3  UNL     1      23.780   1.199  51.924  1.00  0.00    -0.023 C 
HETATM    3  C2  UNL     1      23.107   0.478  52.813  1.00  0.00    -0.034 C 
HETATM    4  C1  UNL     1      22.066  -0.593  52.800  1.00  0.00     0.036 C 
ENDBRANCH   1   2
BRANCH   1   5
HETATM    5  C5  UNL     1      25.221   2.288  53.493  1.00  0.00     0.013 C 
BRANCH   5   6
HETATM    6  C6  UNL     1      26.681   2.096  53.733  1.00  0.00     0.005 C 
BRANCH   6   7
HETATM    7  C7  UNL     1      27.325   1.464  52.499  1.00  0.00     0.038 C 
BRANCH   7   8
HETATM    8  C8  UNL     1      27.622   0.045  52.709  1.00  0.00    -0.055 A 
HETATM    9  C9  UNL     1      28.831  -0.320  53.277  1.00  0.00     0.026 A 
HETATM   10  C10 UNL     1      29.120  -1.660  53.479  1.00  0.00     0.116 A 
HETATM   11  N1  UNL     1      28.260  -2.631  53.140  1.00  0.00    -0.273 NA
HETATM   12  C11 UNL     1      27.071  -2.327  52.584  1.00  0.00     0.116 A 
HETATM   13  C12 UNL     1      26.765  -0.993  52.374  1.00  0.00     0.026 A 
ENDBRANCH   7   8
ENDBRANCH   6   7
ENDBRANCH   5   6
ENDBRANCH   1   5
BRANCH   1  14
HETATM   14  C13 UNL     1      24.206   3.600  51.708  1.00  0.00     0.184 C 
BRANCH  14  15
HETATM   15  N2  UNL     1      23.716   4.321  52.839  1.00  0.00    -0.410 N 
HETATM   16  H18 UNL     1      22.689   4.498  52.826  1.00  0.00     0.151 HD
HETATM   17  H19 UNL     1      24.290   5.124  53.136  1.00  0.00     0.151 HD
ENDBRANCH  14  15
BRANCH  14  18
HETATM   18  N3  UNL     1      24.937   4.452  50.802  1.00  0.00    -0.365 N 
HETATM   19  C14 UNL     1      25.980   3.672  50.176  1.00  0.00     0.089 A 
HETATM   20  C15 UNL     1      26.859   4.141  49.308  1.00  0.00     0.040 A 
HETATM   21  C16 UNL     1      26.831   5.542  48.906  1.00  0.00     0.033 A 
HETATM   22 CL1  UNL     1      27.890   6.356  47.785  1.00  0.00    -0.085 Cl
HETATM   23  C17 UNL     1      25.861   6.212  49.501  1.00  0.00     0.017 A 
HETATM   24  C18 UNL     1      24.804   5.856  50.479  1.00  0.00     0.153 A 
ENDBRANCH  14  18
ENDBRANCH   1  14
TORSDOF 8
ENDMDL
MODEL 4
REMARK VINA RESULT:      -7.2      3.198      5.921
REMARK  8 active torsions:
REMARK  status: ('A' for Active; 'I' for Inactive)
REMARK    1  A    between atoms: C3_3  and  C4_4 
REMARK    2  A    between atoms: C4_4  and  C5_5 
REMARK    3  A    between atoms: C4_4  and  C13_14 
REMARK    4  A    between atoms: C5_5  and  C6_6 
REMARK    5  A    between atoms: C6_6  and  C7_7 
REMARK    6  A    between atoms: C7_7  and  C8_8 
REMARK    7  A    between atoms: C13_14  and  N2_15 
REMARK    8  A    between atoms: C13_14  and  N3_16 
ROOT
HETATM    1  C4  UNL     1      25.145   2.206  51.049  1.00  0.00     0.050 C 
ENDROOT
BRANCH   1   2
HETATM    2  C3  UNL     1      25.598   3.193  49.988  1.00  0.00    -0.023 C 
HETATM    3  C2  UNL     1      26.725   3.856  49.754  1.00  0.00    -0.034 C 
HETATM    4  C1  UNL     1      27.238   4.830  48.744  1.00  0.00     0.036 C 
ENDBRANCH   1   2
BRANCH   1   5
HETATM    5  C5  UNL     1      23.708   2.627  51.341  1.00  0.00     0.013 C 
BRANCH   5   6
HETATM    6  C6  UNL     1      22.725   1.509  51.246  1.00  0.00     0.005 C 
BRANCH   6   7
HETATM    7  C7  UNL     1      21.739   1.593  52.410  1.00  0.00     0.038 C 
BRANCH   7   8
HETATM    8  C8  UNL     1      21.805   0.405  53.264  1.00  0.00    -0.055 A 
HETATM    9  C9  UNL     1      20.662  -0.352  53.466  1.00  0.00     0.026 A 
HETATM   10  C10 UNL     1      20.716  -1.478  54.272  1.00  0.00     0.116 A 
HETATM   11  N1  UNL     1      21.849  -1.867  54.874  1.00  0.00    -0.273 NA
HETATM   12  C11 UNL     1      22.987  -1.163  54.709  1.00  0.00     0.116 A 
HETATM   13  C12 UNL     1      22.952  -0.035  53.907  1.00  0.00     0.026 A 
ENDBRANCH   7   8
ENDBRANCH   6   7
ENDBRANCH   5   6
ENDBRANCH   1   5
BRANCH   1  14
HETATM   14  C13 UNL     1      25.944   2.431  52.288  1.00  0.00     0.184 C 
BRANCH  14  15
HETATM   15  N2  UNL     1      25.197   2.861  53.426  1.00  0.00    -0.410 N 
HETATM   16  H18 UNL     1      25.704   2.776  54.333  1.00  0.00     0.151 HD
HETATM   17  H19 UNL     1      24.212   2.558  53.451  1.00  0.00     0.151 HD
ENDBRANCH  14  15
BRANCH  14  18
HETATM   18  N3  UNL     1      26.888   1.393  52.625  1.00  0.00    -0.365 N 
HETATM   19  C14 UNL     1      26.332   0.118  52.231  1.00  0.00     0.089 A 
HETATM   20  C15 UNL     1      26.917  -1.053  52.414  1.00  0.00     0.040 A 
HETATM   21  C16 UNL     1      28.223  -1.137  53.055  1.00  0.00     0.033 A 
HETATM   22 CL1  UNL     1      29.161  -2.569  53.391  1.00  0.00    -0.085 Cl
HETATM   23  C17 UNL     1      28.690   0.051  53.394  1.00  0.00     0.017 A 
HETATM   24  C18 UNL     1      28.184   1.438  53.267  1.00  0.00     0.153 A 
ENDBRANCH  14  18
ENDBRANCH   1  14
TORSDOF 8
ENDMDL
MODEL 5
REMARK VINA RESULT:      -7.1      3.539      7.368
REMARK  8 active torsions:
REMARK  status: ('A' for Active; 'I' for Inactive)
REMARK    1  A    between atoms: C3_3  and  C4_4 
REMARK    2  A    between atoms: C4_4  and  C5_5 
REMARK    3  A    between atoms: C4_4  and  C13_14 
REMARK    4  A    between atoms: C5_5  and  C6_6 
REMARK    5  A    between atoms: C6_6  and  C7_7 
REMARK    6  A    between atoms: C7_7  and  C8_8 
REMARK    7  A    between atoms: C13_14  and  N2_15 
REMARK    8  A    between atoms: C13_14  and  N3_16 
ROOT
HETATM    1  C4  UNL     1      23.275  -0.708  53.594  1.00  0.00     0.050 C 
ENDROOT
BRANCH   1   2
HETATM    2  C3  UNL     1      23.125   0.662  52.956  1.00  0.00    -0.023 C 
HETATM    3  C2  UNL     1      23.709   1.282  51.936  1.00  0.00    -0.034 C 
HETATM    4  C1  UNL     1      23.616   2.610  51.258  1.00  0.00     0.036 C 
ENDBRANCH   1   2
BRANCH   1   5
HETATM    5  C5  UNL     1      21.941  -0.922  54.303  1.00  0.00     0.013 C 
BRANCH   5   6
HETATM    6  C6  UNL     1      20.895   0.074  53.927  1.00  0.00     0.005 C 
BRANCH   6   7
HETATM    7  C7  UNL     1      19.601  -0.655  53.564  1.00  0.00     0.038 C 
BRANCH   7   8
HETATM    8  C8  UNL     1      19.053  -0.185  52.290  1.00  0.00    -0.055 A 
HETATM    9  C9  UNL     1      19.869   0.511  51.414  1.00  0.00     0.026 A 
HETATM   10  C10 UNL     1      19.357   0.959  50.206  1.00  0.00     0.116 A 
HETATM   11  N1  UNL     1      18.083   0.741  49.849  1.00  0.00    -0.273 NA
HETATM   12  C11 UNL     1      17.250   0.069  50.668  1.00  0.00     0.116 A 
HETATM   13  C12 UNL     1      17.743  -0.386  51.880  1.00  0.00     0.026 A 
ENDBRANCH   7   8
ENDBRANCH   6   7
ENDBRANCH   5   6
ENDBRANCH   1   5
BRANCH   1  14
HETATM   14  C13 UNL     1      24.338  -0.639  54.638  1.00  0.00     0.184 C 
BRANCH  14  15
HETATM   15  N2  UNL     1      24.139  -1.488  55.768  1.00  0.00    -0.410 N 
HETATM   16  H18 UNL     1      23.163  -1.500  56.133  1.00  0.00     0.151 HD
HETATM   17  H19 UNL     1      24.872  -1.441  56.493  1.00  0.00     0.151 HD
ENDBRANCH  14  15
BRANCH  14  18
HETATM   18  N3  UNL     1      25.697  -0.693  54.157  1.00  0.00    -0.365 N 
HETATM   19  C14 UNL     1      26.533   0.078  55.049  1.00  0.00     0.089 A 
HETATM   20  C15 UNL     1      27.832   0.268  54.896  1.00  0.00     0.040 A 
HETATM   21  C16 UNL     1      28.538  -0.318  53.763  1.00  0.00     0.033 A 
HETATM   22 CL1  UNL     1      30.234  -0.192  53.378  1.00  0.00    -0.085 Cl
HETATM   23  C17 UNL     1      27.735  -1.014  52.980  1.00  0.00     0.017 A 
HETATM   24  C18 UNL     1      26.286  -1.328  52.998  1.00  0.00     0.153 A 
ENDBRANCH  14  18
ENDBRANCH   1  14
TORSDOF 8
ENDMDL
MODEL 6
REMARK VINA RESULT:      -7.0      3.625      6.956
REMARK  8 active torsions:
REMARK  status: ('A' for Active; 'I' for Inactive)
REMARK    1  A    between atoms: C3_3  and  C4_4 
REMARK    2  A    between atoms: C4_4  and  C5_5 
REMARK    3  A    between atoms: C4_4  and  C13_14 
REMARK    4  A    between atoms: C5_5  and  C6_6 
REMARK    5  A    between atoms: C6_6  and  C7_7 
REMARK    6  A    between atoms: C7_7  and  C8_8 
REMARK    7  A    between atoms: C13_14  and  N2_15 
REMARK    8  A    between atoms: C13_14  and  N3_16 
ROOT
HETATM    1  C4  UNL     1      25.887  -0.029  53.452  1.00  0.00     0.050 C 
ENDROOT
BRANCH   1   2
HETATM    2  C3  UNL     1      27.211  -0.684  53.102  1.00  0.00    -0.023 C 
HETATM    3  C2  UNL     1      28.451  -0.585  53.569  1.00  0.00    -0.034 C 
HETATM    4  C1  UNL     1      29.787  -1.188  53.281  1.00  0.00     0.036 C 
ENDBRANCH   1   2
BRANCH   1   5
HETATM    5  C5  UNL     1      26.299   1.244  54.185  1.00  0.00     0.013 C 
BRANCH   5   6
HETATM    6  C6  UNL     1      25.595   2.468  53.702  1.00  0.00     0.005 C 
BRANCH   6   7
HETATM    7  C7  UNL     1      25.464   2.416  52.180  1.00  0.00     0.038 C 
BRANCH   7   8
HETATM    8  C8  UNL     1      24.163   2.918  51.730  1.00  0.00    -0.055 A 
HETATM    9  C9  UNL     1      23.641   2.472  50.527  1.00  0.00     0.026 A 
HETATM   10  C10 UNL     1      22.411   2.942  50.095  1.00  0.00     0.116 A 
HETATM   11  N1  UNL     1      21.697   3.826  50.808  1.00  0.00    -0.273 NA
HETATM   12  C11 UNL     1      22.163   4.290  51.984  1.00  0.00     0.116 A 
HETATM   13  C12 UNL     1      23.391   3.832  52.432  1.00  0.00     0.026 A 
ENDBRANCH   7   8
ENDBRANCH   6   7
ENDBRANCH   5   6
ENDBRANCH   1   5
BRANCH   1  14
HETATM   14  C13 UNL     1      25.162  -0.897  54.424  1.00  0.00     0.184 C 
BRANCH  14  15
HETATM   15  N2  UNL     1      25.598  -0.793  55.779  1.00  0.00    -0.410 N 
HETATM   16  H18 UNL     1      26.100  -1.633  56.137  1.00  0.00     0.151 HD
HETATM   17  H19 UNL     1      24.914  -0.385  56.435  1.00  0.00     0.151 HD
ENDBRANCH  14  15
BRANCH  14  18
HETATM   18  N3  UNL     1      23.723  -0.893  54.318  1.00  0.00    -0.365 N 
HETATM   19  C14 UNL     1      23.358  -0.407  53.007  1.00  0.00     0.089 A 
HETATM   20  C15 UNL     1      22.119  -0.245  52.577  1.00  0.00     0.040 A 
HETATM   21  C16 UNL     1      20.987  -0.564  53.438  1.00  0.00     0.033 A 
HETATM   22 CL1  UNL     1      19.288  -0.425  53.070  1.00  0.00    -0.085 Cl
HETATM   23  C17 UNL     1      21.370  -1.007  54.622  1.00  0.00     0.017 A 
HETATM   24  C18 UNL     1      22.685  -1.248  55.262  1.00  0.00     0.153 A 
ENDBRANCH  14  18
ENDBRANCH   1  14
TORSDOF 8
ENDMDL
MODEL 7
REMARK VINA RESULT:      -6.8      3.462      6.848
REMARK  8 active torsions:
REMARK  status: ('A' for Active; 'I' for Inactive)
REMARK    1  A    between atoms: C3_3  and  C4_4 
REMARK    2  A    between atoms: C4_4  and  C5_5 
REMARK    3  A    between atoms: C4_4  and  C13_14 
REMARK    4  A    between atoms: C5_5  and  C6_6 
REMARK    5  A    between atoms: C6_6  and  C7_7 
REMARK    6  A    between atoms: C7_7  and  C8_8 
REMARK    7  A    between atoms: C13_14  and  N2_15 
REMARK    8  A    between atoms: C13_14  and  N3_16 
ROOT
HETATM    1  C4  UNL     1      26.084  -0.122  53.077  1.00  0.00     0.050 C 
ENDROOT
BRANCH   1   2
HETATM    2  C3  UNL     1      27.426  -0.827  53.154  1.00  0.00    -0.023 C 
HETATM    3  C2  UNL     1      28.637  -0.480  53.578  1.00  0.00    -0.034 C 
HETATM    4  C1  UNL     1      29.987  -1.110  53.684  1.00  0.00     0.036 C 
ENDBRANCH   1   2
BRANCH   1   5
HETATM    5  C5  UNL     1      26.342   1.217  53.762  1.00  0.00     0.013 C 
BRANCH   5   6
HETATM    6  C6  UNL     1      25.999   2.398  52.918  1.00  0.00     0.005 C 
BRANCH   6   7
HETATM    7  C7  UNL     1      26.172   2.040  51.442  1.00  0.00     0.038 C 
BRANCH   7   8
HETATM    8  C8  UNL     1      25.695   3.111  50.565  1.00  0.00    -0.055 A 
HETATM    9  C9  UNL     1      26.613   3.891  49.880  1.00  0.00     0.026 A 
HETATM   10  C10 UNL     1      26.170   4.906  49.048  1.00  0.00     0.116 A 
HETATM   11  N1  UNL     1      24.866   5.167  48.878  1.00  0.00    -0.273 NA
HETATM   12  C11 UNL     1      23.934   4.437  49.522  1.00  0.00     0.116 A 
HETATM   13  C12 UNL     1      24.358   3.418  50.359  1.00  0.00     0.026 A 
ENDBRANCH   7   8
ENDBRANCH   6   7
ENDBRANCH   5   6
ENDBRANCH   1   5
BRANCH   1  14
HETATM   14  C13 UNL     1      25.096  -0.873  53.905  1.00  0.00     0.184 C 
BRANCH  14  15
HETATM   15  N2  UNL     1      25.346  -0.865  55.310  1.00  0.00    -0.410 N 
HETATM   16  H18 UNL     1      24.547  -1.192  55.893  1.00  0.00     0.151 HD
HETATM   17  H19 UNL     1      25.831  -0.028  55.670  1.00  0.00     0.151 HD
ENDBRANCH  14  15
BRANCH  14  18
HETATM   18  N3  UNL     1      23.707  -0.627  53.603  1.00  0.00    -0.365 N 
HETATM   19  C14 UNL     1      22.894  -1.322  54.575  1.00  0.00     0.089 A 
HETATM   20  C15 UNL     1      21.573  -1.339  54.585  1.00  0.00     0.040 A 
HETATM   21  C16 UNL     1      20.815  -0.621  53.568  1.00  0.00     0.033 A 
HETATM   22 CL1  UNL     1      19.082  -0.515  53.400  1.00  0.00    -0.085 Cl
HETATM   23  C17 UNL     1      21.599  -0.001  52.705  1.00  0.00     0.017 A 
HETATM   24  C18 UNL     1      23.068   0.125  52.545  1.00  0.00     0.153 A 
ENDBRANCH  14  18
ENDBRANCH   1  14
TORSDOF 8
ENDMDL
MODEL 8
REMARK VINA RESULT:      -6.7      2.952      5.908
REMARK  8 active torsions:
REMARK  status: ('A' for Active; 'I' for Inactive)
REMARK    1  A    between atoms: C3_3  and  C4_4 
REMARK    2  A    between atoms: C4_4  and  C5_5 
REMARK    3  A    between atoms: C4_4  and  C13_14 
REMARK    4  A    between atoms: C5_5  and  C6_6 
REMARK    5  A    between atoms: C6_6  and  C7_7 
REMARK    6  A    between atoms: C7_7  and  C8_8 
REMARK    7  A    between atoms: C13_14  and  N2_15 
REMARK    8  A    between atoms: C13_14  and  N3_16 
ROOT
HETATM    1  C4  UNL     1      24.697   2.222  52.593  1.00  0.00     0.050 C 
ENDROOT
BRANCH   1   2
HETATM    2  C3  UNL     1      23.259   2.591  52.276  1.00  0.00    -0.023 C 
HETATM    3  C2  UNL     1      22.592   3.736  52.184  1.00  0.00    -0.034 C 
HETATM    4  C1  UNL     1      21.196   4.174  51.880  1.00  0.00     0.036 C 
ENDBRANCH   1   2
BRANCH   1   5
HETATM    5  C5  UNL     1      25.308   1.945  51.222  1.00  0.00     0.013 C 
BRANCH   5   6
HETATM    6  C6  UNL     1      26.521   2.763  50.930  1.00  0.00     0.005 C 
BRANCH   6   7
HETATM    7  C7  UNL     1      26.521   3.170  49.457  1.00  0.00     0.038 C 
BRANCH   7   8
HETATM    8  C8  UNL     1      26.571   4.625  49.296  1.00  0.00    -0.055 A 
HETATM    9  C9  UNL     1      27.608   5.195  48.575  1.00  0.00     0.026 A 
HETATM   10  C10 UNL     1      27.662   6.571  48.418  1.00  0.00     0.116 A 
HETATM   11  N1  UNL     1      26.736   7.383  48.947  1.00  0.00    -0.273 NA
HETATM   12  C11 UNL     1      25.708   6.877  49.657  1.00  0.00     0.116 A 
HETATM   13  C12 UNL     1      25.638   5.504  49.825  1.00  0.00     0.026 A 
ENDBRANCH   7   8
ENDBRANCH   6   7
ENDBRANCH   5   6
ENDBRANCH   1   5
BRANCH   1  14
HETATM   14  C13 UNL     1      24.709   0.943  53.361  1.00  0.00     0.184 C 
BRANCH  14  15
HETATM   15  N2  UNL     1      23.593   0.083  53.130  1.00  0.00    -0.410 N 
HETATM   16  H18 UNL     1      22.671   0.492  53.389  1.00  0.00     0.151 HD
HETATM   17  H19 UNL     1      23.725  -0.901  53.413  1.00  0.00     0.151 HD
ENDBRANCH  14  15
BRANCH  14  18
HETATM   18  N3  UNL     1      25.957   0.219  53.359  1.00  0.00    -0.365 N 
HETATM   19  C14 UNL     1      26.907   0.938  54.177  1.00  0.00     0.089 A 
HETATM   20  C15 UNL     1      28.163   0.575  54.376  1.00  0.00     0.040 A 
HETATM   21  C16 UNL     1      28.693  -0.632  53.755  1.00  0.00     0.033 A 
HETATM   22 CL1  UNL     1      30.305  -1.285  53.886  1.00  0.00    -0.085 Cl
HETATM   23  C17 UNL     1      27.788  -1.255  53.021  1.00  0.00     0.017 A 
HETATM   24  C18 UNL     1      26.365  -0.998  52.693  1.00  0.00     0.153 A 
ENDBRANCH  14  18
ENDBRANCH   1  14
TORSDOF 8
ENDMDL
MODEL 9
REMARK VINA RESULT:      -6.6      2.757      3.696
REMARK  8 active torsions:
REMARK  status: ('A' for Active; 'I' for Inactive)
REMARK    1  A    between atoms: C3_3  and  C4_4 
REMARK    2  A    between atoms: C4_4  and  C5_5 
REMARK    3  A    between atoms: C4_4  and  C13_14 
REMARK    4  A    between atoms: C5_5  and  C6_6 
REMARK    5  A    between atoms: C6_6  and  C7_7 
REMARK    6  A    between atoms: C7_7  and  C8_8 
REMARK    7  A    between atoms: C13_14  and  N2_15 
REMARK    8  A    between atoms: C13_14  and  N3_16 
ROOT
HETATM    1  C4  UNL     1      23.794   1.297  51.754  1.00  0.00     0.050 C 
ENDROOT
BRANCH   1   2
HETATM    2  C3  UNL     1      23.377   0.597  53.035  1.00  0.00    -0.023 C 
HETATM    3  C2  UNL     1      22.228   0.123  53.504  1.00  0.00    -0.034 C 
HETATM    4  C1  UNL     1      21.745  -0.570  54.737  1.00  0.00     0.036 C 
ENDBRANCH   1   2
BRANCH   1   5
HETATM    5  C5  UNL     1      25.031   2.091  52.166  1.00  0.00     0.013 C 
BRANCH   5   6
HETATM    6  C6  UNL     1      25.703   1.562  53.388  1.00  0.00     0.005 C 
BRANCH   6   7
HETATM    7  C7  UNL     1      27.204   1.430  53.129  1.00  0.00     0.038 C 
BRANCH   7   8
HETATM    8  C8  UNL     1      27.627   0.029  53.093  1.00  0.00    -0.055 A 
HETATM    9  C9  UNL     1      28.912  -0.305  53.491  1.00  0.00     0.026 A 
HETATM   10  C10 UNL     1      29.320  -1.629  53.461  1.00  0.00     0.116 A 
HETATM   11  N1  UNL     1      28.506  -2.614  53.054  1.00  0.00    -0.273 NA
HETATM   12  C11 UNL     1      27.248  -2.340  52.657  1.00  0.00     0.116 A 
HETATM   13  C12 UNL     1      26.822  -1.022  52.680  1.00  0.00     0.026 A 
ENDBRANCH   7   8
ENDBRANCH   6   7
ENDBRANCH   5   6
ENDBRANCH   1   5
BRANCH   1  14
HETATM   14  C13 UNL     1      22.734   2.274  51.372  1.00  0.00     0.184 C 
BRANCH  14  15
HETATM   15  N2  UNL     1      22.835   3.557  51.989  1.00  0.00    -0.410 N 
HETATM   16  H18 UNL     1      23.454   3.586  52.827  1.00  0.00     0.151 HD
HETATM   17  H19 UNL     1      21.947   4.073  52.088  1.00  0.00     0.151 HD
ENDBRANCH  14  15
BRANCH  14  18
HETATM   18  N3  UNL     1      22.453   2.376  49.960  1.00  0.00    -0.365 N 
HETATM   19  C14 UNL     1      22.887   3.675  49.496  1.00  0.00     0.089 A 
HETATM   20  C15 UNL     1      22.758   4.119  48.258  1.00  0.00     0.040 A 
HETATM   21  C16 UNL     1      22.142   3.287  47.232  1.00  0.00     0.033 A 
HETATM   22 CL1  UNL     1      21.876   3.678  45.553  1.00  0.00    -0.085 Cl
HETATM   23  C17 UNL     1      21.765   2.112  47.702  1.00  0.00     0.017 A 
HETATM   24  C18 UNL     1      21.830   1.458  49.031  1.00  0.00     0.153 A 
ENDBRANCH  14  18
ENDBRANCH   1  14
TORSDOF 8
ENDMDL
