MODEL 1
REMARK VINA RESULT:      -9.0      0.000      0.000
REMARK  4 active torsions:
REMARK  status: ('A' for Active; 'I' for Inactive)
REMARK    1  A    between atoms: O1_2  and  C2_3 
REMARK    2  A    between atoms: N2_9  and  C7_10 
REMARK    3  A    between atoms: C10_13  and  C11_14 
REMARK    4  A    between atoms: C22_27  and  O2_28 
ROOT
HETATM    1  C7  UNL     1      23.332   1.360  51.886  1.00  0.00     0.032 A 
HETATM    2  C8  UNL     1      22.994   1.821  50.633  1.00  0.00     0.030 A 
HETATM    3  C9  UNL     1      23.761   2.680  49.875  1.00  0.00     0.016 A 
HETATM    4  C10 UNL     1      24.944   3.112  50.392  1.00  0.00    -0.000 A 
HETATM    5  C18 UNL     1      25.346   2.691  51.639  1.00  0.00     0.016 A 
HETATM    6  C19 UNL     1      24.539   1.830  52.357  1.00  0.00     0.030 A 
ENDROOT
BRANCH   1   7
HETATM    7  N2  UNL     1      22.546   0.468  52.661  1.00  0.00    -0.350 N 
HETATM    8  C6  UNL     1      23.063  -0.823  53.135  1.00  0.00     0.275 C 
HETATM    9  N1  UNL     1      22.664  -0.866  54.555  1.00  0.00    -0.267 NA
HETATM   10  C5  UNL     1      21.552  -0.299  54.896  1.00  0.00     0.090 C 
HETATM   11  C4  UNL     1      20.660  -0.218  53.919  1.00  0.00     0.002 A 
HETATM   12  C3  UNL     1      19.456  -1.009  53.792  1.00  0.00     0.051 A 
HETATM   13  C20 UNL     1      21.188   0.841  52.995  1.00  0.00     0.147 A 
HETATM   14  C2  UNL     1      18.775  -0.753  52.690  1.00  0.00     0.102 A 
HETATM   15  C22 UNL     1      19.195   0.237  51.706  1.00  0.00     0.100 A 
HETATM   16  C21 UNL     1      20.296   0.973  51.827  1.00  0.00     0.043 A 
BRANCH  14  17
HETATM   17  O1  UNL     1      17.640  -1.546  52.633  1.00  0.00    -0.353 OA
HETATM   18  C1  UNL     1      17.534  -2.679  53.473  1.00  0.00     0.210 C 
ENDBRANCH  14  17
BRANCH  15  19
HETATM   19  O2  UNL     1      18.275   0.283  50.641  1.00  0.00    -0.353 OA
HETATM   20  C23 UNL     1      17.842   1.608  50.306  1.00  0.00     0.210 C 
ENDBRANCH  15  19
ENDBRANCH   1   7
BRANCH   4  21
HETATM   21  C11 UNL     1      25.869   4.021  49.718  1.00  0.00     0.109 A 
HETATM   22  N3  UNL     1      27.018   4.068  49.361  1.00  0.00    -0.240 NA
HETATM   23  C12 UNL     1      27.584   5.083  48.744  1.00  0.00     0.075 A 
HETATM   24  C13 UNL     1      28.888   5.200  48.310  1.00  0.00     0.033 A 
HETATM   25  C17 UNL     1      26.804   6.214  48.471  1.00  0.00     0.035 A 
HETATM   26  C14 UNL     1      29.316   6.336  47.682  1.00  0.00     0.002 A 
HETATM   27  C15 UNL     1      28.509   7.452  47.423  1.00  0.00     0.002 A 
HETATM   28  C16 UNL     1      27.199   7.370  47.843  1.00  0.00     0.021 A 
HETATM   29  S1  UNL     1      25.162   5.674  49.192  1.00  0.00    -0.068 SA
ENDBRANCH   4  21
TORSDOF 4
ENDMDL
MODEL 2
REMARK VINA RESULT:      -8.9      4.133      5.597
REMARK  4 active torsions:
REMARK  status: ('A' for Active; 'I' for Inactive)
REMARK    1  A    between atoms: O1_2  and  C2_3 
REMARK    2  A    between atoms: N2_9  and  C7_10 
REMARK    3  A    between atoms: C10_13  and  C11_14 
REMARK    4  A    between atoms: C22_27  and  O2_28 
ROOT
HETATM    1  C7  UNL     1      21.371   1.395  52.068  1.00  0.00     0.032 A 
HETATM    2  C8  UNL     1      21.652   0.484  53.062  1.00  0.00     0.030 A 
HETATM    3  C9  UNL     1      22.913   0.023  53.374  1.00  0.00     0.016 A 
HETATM    4  C10 UNL     1      23.968   0.496  52.655  1.00  0.00    -0.000 A 
HETATM    5  C18 UNL     1      23.761   1.410  51.647  1.00  0.00     0.016 A 
HETATM    6  C19 UNL     1      22.476   1.839  51.374  1.00  0.00     0.030 A 
ENDROOT
BRANCH   1   7
HETATM    7  N2  UNL     1      20.073   1.876  51.753  1.00  0.00    -0.350 N 
HETATM    8  C6  UNL     1      19.664   3.262  52.021  1.00  0.00     0.275 C 
HETATM    9  N1  UNL     1      19.006   3.686  50.771  1.00  0.00    -0.267 NA
HETATM   10  C5  UNL     1      18.354   2.798  50.090  1.00  0.00     0.090 C 
HETATM   11  C4  UNL     1      17.901   1.783  50.813  1.00  0.00     0.002 A 
HETATM   12  C3  UNL     1      16.526   1.549  51.190  1.00  0.00     0.051 A 
HETATM   13  C20 UNL     1      19.118   0.971  51.149  1.00  0.00     0.147 A 
HETATM   14  C2  UNL     1      16.367   0.484  51.956  1.00  0.00     0.102 A 
HETATM   15  C22 UNL     1      17.472  -0.372  52.369  1.00  0.00     0.100 A 
HETATM   16  C21 UNL     1      18.736  -0.164  52.012  1.00  0.00     0.043 A 
BRANCH  14  17
HETATM   17  O1  UNL     1      15.029   0.322  52.281  1.00  0.00    -0.353 OA
HETATM   18  C1  UNL     1      14.289   1.426  52.766  1.00  0.00     0.210 C 
ENDBRANCH  14  17
BRANCH  15  19
HETATM   19  O2  UNL     1      16.997  -1.419  53.181  1.00  0.00    -0.353 OA
HETATM   20  C23 UNL     1      18.021  -2.323  53.618  1.00  0.00     0.210 C 
ENDBRANCH  15  19
ENDBRANCH   1   7
BRANCH   4  21
HETATM   21  C11 UNL     1      25.362   0.109  52.862  1.00  0.00     0.109 A 
HETATM   22  N3  UNL     1      26.064  -0.869  52.813  1.00  0.00    -0.240 NA
HETATM   23  C12 UNL     1      27.354  -0.895  53.068  1.00  0.00     0.075 A 
HETATM   24  C13 UNL     1      28.211  -1.975  53.031  1.00  0.00     0.033 A 
HETATM   25  C17 UNL     1      27.984   0.303  53.430  1.00  0.00     0.035 A 
HETATM   26  C14 UNL     1      29.536  -1.825  53.329  1.00  0.00     0.002 A 
HETATM   27  C15 UNL     1      30.137  -0.612  53.688  1.00  0.00     0.002 A 
HETATM   28  C16 UNL     1      29.311   0.490  53.735  1.00  0.00     0.021 A 
HETATM   29  S1  UNL     1      26.531   1.483  53.367  1.00  0.00    -0.068 SA
ENDBRANCH   4  21
TORSDOF 4
ENDMDL
MODEL 3
REMARK VINA RESULT:      -8.7      2.585      4.180
REMARK  4 active torsions:
REMARK  status: ('A' for Active; 'I' for Inactive)
REMARK    1  A    between atoms: O1_2  and  C2_3 
REMARK    2  A    between atoms: N2_9  and  C7_10 
REMARK    3  A    between atoms: C10_13  and  C11_14 
REMARK    4  A    between atoms: C22_27  and  O2_28 
ROOT
HETATM    1  C7  UNL     1      24.491   3.764  50.354  1.00  0.00     0.032 A 
HETATM    2  C8  UNL     1      24.631   5.123  50.177  1.00  0.00     0.030 A 
HETATM    3  C9  UNL     1      25.729   5.735  49.612  1.00  0.00     0.016 A 
HETATM    4  C10 UNL     1      26.760   4.950  49.194  1.00  0.00    -0.000 A 
HETATM    5  C18 UNL     1      26.688   3.583  49.340  1.00  0.00     0.016 A 
HETATM    6  C19 UNL     1      25.564   3.020  49.913  1.00  0.00     0.030 A 
ENDROOT
BRANCH   1   7
HETATM    7  N2  UNL     1      23.356   3.134  50.928  1.00  0.00    -0.350 N 
HETATM    8  C6  UNL     1      22.176   3.894  51.366  1.00  0.00     0.275 C 
HETATM    9  N1  UNL     1      21.039   3.133  50.812  1.00  0.00    -0.267 NA
HETATM   10  C5  UNL     1      21.149   1.846  50.721  1.00  0.00     0.090 C 
HETATM   11  C4  UNL     1      21.997   1.310  51.587  1.00  0.00     0.002 A 
HETATM   12  C3  UNL     1      21.648   0.538  52.759  1.00  0.00     0.051 A 
HETATM   13  C20 UNL     1      23.359   1.696  51.089  1.00  0.00     0.147 A 
HETATM   14  C2  UNL     1      22.696   0.167  53.472  1.00  0.00     0.102 A 
HETATM   15  C22 UNL     1      24.067   0.499  53.105  1.00  0.00     0.100 A 
HETATM   16  C21 UNL     1      24.389   1.198  52.021  1.00  0.00     0.043 A 
BRANCH  14  17
HETATM   17  O1  UNL     1      22.290  -0.562  54.578  1.00  0.00    -0.353 OA
HETATM   18  C1  UNL     1      21.325  -1.586  54.425  1.00  0.00     0.210 C 
ENDBRANCH  14  17
BRANCH  15  19
HETATM   19  O2  UNL     1      24.964  -0.025  54.056  1.00  0.00    -0.353 OA
HETATM   20  C23 UNL     1      26.157  -0.578  53.484  1.00  0.00     0.210 C 
ENDBRANCH  15  19
ENDBRANCH   1   7
BRANCH   4  21
HETATM   21  C11 UNL     1      27.990   5.442  48.577  1.00  0.00     0.109 A 
HETATM   22  N3  UNL     1      29.123   5.089  48.372  1.00  0.00    -0.240 NA
HETATM   23  C12 UNL     1      30.043   5.799  47.756  1.00  0.00     0.075 A 
HETATM   24  C13 UNL     1      31.352   5.457  47.491  1.00  0.00     0.033 A 
HETATM   25  C17 UNL     1      29.698   7.076  47.293  1.00  0.00     0.035 A 
HETATM   26  C14 UNL     1      32.182   6.322  46.835  1.00  0.00     0.002 A 
HETATM   27  C15 UNL     1      31.806   7.594  46.383  1.00  0.00     0.002 A 
HETATM   28  C16 UNL     1      30.503   7.971  46.631  1.00  0.00     0.021 A 
HETATM   29  S1  UNL     1      27.906   7.158  47.831  1.00  0.00    -0.068 SA
ENDBRANCH   4  21
TORSDOF 4
ENDMDL
MODEL 4
REMARK VINA RESULT:      -8.6      5.136     11.661
REMARK  4 active torsions:
REMARK  status: ('A' for Active; 'I' for Inactive)
REMARK    1  A    between atoms: O1_2  and  C2_3 
REMARK    2  A    between atoms: N2_9  and  C7_10 
REMARK    3  A    between atoms: C10_13  and  C11_14 
REMARK    4  A    between atoms: C22_27  and  O2_28 
ROOT
HETATM    1  C7  UNL     1      27.894   6.500  48.294  1.00  0.00     0.032 A 
HETATM    2  C8  UNL     1      26.654   6.913  48.730  1.00  0.00     0.030 A 
HETATM    3  C9  UNL     1      25.699   6.087  49.283  1.00  0.00     0.016 A 
HETATM    4  C10 UNL     1      25.989   4.763  49.415  1.00  0.00    -0.000 A 
HETATM    5  C18 UNL     1      27.211   4.282  49.001  1.00  0.00     0.016 A 
HETATM    6  C19 UNL     1      28.133   5.152  48.453  1.00  0.00     0.030 A 
ENDROOT
BRANCH   1   7
HETATM    7  N2  UNL     1      28.881   7.352  47.733  1.00  0.00    -0.350 N 
HETATM    8  C6  UNL     1      28.757   7.909  46.378  1.00  0.00     0.275 C 
HETATM    9  N1  UNL     1      29.094   9.336  46.548  1.00  0.00    -0.267 NA
HETATM   10  C5  UNL     1      29.971   9.655  47.446  1.00  0.00     0.090 C 
HETATM   11  C4  UNL     1      30.834   8.691  47.729  1.00  0.00     0.002 A 
HETATM   12  C3  UNL     1      32.224   8.644  47.334  1.00  0.00     0.051 A 
HETATM   13  C20 UNL     1      30.049   7.684  48.519  1.00  0.00     0.147 A 
HETATM   14  C2  UNL     1      32.840   7.539  47.713  1.00  0.00     0.102 A 
HETATM   15  C22 UNL     1      32.181   6.478  48.464  1.00  0.00     0.100 A 
HETATM   16  C21 UNL     1      30.906   6.526  48.840  1.00  0.00     0.043 A 
BRANCH  14  17
HETATM   17  O1  UNL     1      34.162   7.560  47.298  1.00  0.00    -0.353 OA
HETATM   18  C1  UNL     1      35.146   8.149  48.126  1.00  0.00     0.210 C 
ENDBRANCH  14  17
BRANCH  15  19
HETATM   19  O2  UNL     1      33.086   5.430  48.719  1.00  0.00    -0.353 OA
HETATM   20  C23 UNL     1      32.840   4.251  47.941  1.00  0.00     0.210 C 
ENDBRANCH  15  19
ENDBRANCH   1   7
BRANCH   4  21
HETATM   21  C11 UNL     1      25.088   3.761  49.980  1.00  0.00     0.109 A 
HETATM   22  N3  UNL     1      25.018   3.010  50.919  1.00  0.00    -0.240 NA
HETATM   23  C12 UNL     1      24.021   2.188  51.164  1.00  0.00     0.075 A 
HETATM   24  C13 UNL     1      23.879   1.306  52.215  1.00  0.00     0.033 A 
HETATM   25  C17 UNL     1      22.941   2.167  50.271  1.00  0.00     0.035 A 
HETATM   26  C14 UNL     1      22.769   0.516  52.319  1.00  0.00     0.002 A 
HETATM   27  C15 UNL     1      21.704   0.519  51.409  1.00  0.00     0.002 A 
HETATM   28  C16 UNL     1      21.812   1.389  50.344  1.00  0.00     0.021 A 
HETATM   29  S1  UNL     1      23.501   3.457  49.034  1.00  0.00    -0.068 SA
ENDBRANCH   4  21
TORSDOF 4
ENDMDL
MODEL 5
REMARK VINA RESULT:      -8.5      5.279     11.788
REMARK  4 active torsions:
REMARK  status: ('A' for Active; 'I' for Inactive)
REMARK    1  A    between atoms: O1_2  and  C2_3 
REMARK    2  A    between atoms: N2_9  and  C7_10 
REMARK    3  A    between atoms: C10_13  and  C11_14 
REMARK    4  A    between atoms: C22_27  and  O2_28 
ROOT
HETATM    1  C7  UNL     1      27.447   6.752  48.358  1.00  0.00     0.032 A 
HETATM    2  C8  UNL     1      27.931   5.463  48.324  1.00  0.00     0.030 A 
HETATM    3  C9  UNL     1      27.340   4.383  48.945  1.00  0.00     0.016 A 
HETATM    4  C10 UNL     1      26.194   4.592  49.649  1.00  0.00    -0.000 A 
HETATM    5  C18 UNL     1      25.653   5.856  49.725  1.00  0.00     0.016 A 
HETATM    6  C19 UNL     1      26.285   6.904  49.084  1.00  0.00     0.030 A 
ENDROOT
BRANCH   1   7
HETATM    7  N2  UNL     1      28.050   7.862  47.710  1.00  0.00    -0.350 N 
HETATM    8  C6  UNL     1      27.839   8.145  46.284  1.00  0.00     0.275 C 
HETATM    9  N1  UNL     1      27.549   9.592  46.249  1.00  0.00    -0.267 NA
HETATM   10  C5  UNL     1      28.130  10.355  47.118  1.00  0.00     0.090 C 
HETATM   11  C4  UNL     1      29.281   9.880  47.575  1.00  0.00     0.002 A 
HETATM   12  C3  UNL     1      30.600  10.368  47.240  1.00  0.00     0.051 A 
HETATM   13  C20 UNL     1      28.902   8.743  48.479  1.00  0.00     0.147 A 
HETATM   14  C2  UNL     1      31.573   9.676  47.803  1.00  0.00     0.102 A 
HETATM   15  C22 UNL     1      31.335   8.538  48.682  1.00  0.00     0.100 A 
HETATM   16  C21 UNL     1      30.122   8.096  49.001  1.00  0.00     0.043 A 
BRANCH  14  17
HETATM   17  O1  UNL     1      32.805  10.194  47.437  1.00  0.00    -0.353 OA
HETATM   18  C1  UNL     1      32.868  11.429  46.750  1.00  0.00     0.210 C 
ENDBRANCH  14  17
BRANCH  15  19
HETATM   19  O2  UNL     1      32.560   8.001  49.123  1.00  0.00    -0.353 OA
HETATM   20  C23 UNL     1      32.856   6.709  48.578  1.00  0.00     0.210 C 
ENDBRANCH  15  19
ENDBRANCH   1   7
BRANCH   4  21
HETATM   21  C11 UNL     1      25.449   3.556  50.362  1.00  0.00     0.109 A 
HETATM   22  N3  UNL     1      24.322   3.149  50.481  1.00  0.00    -0.240 NA
HETATM   23  C12 UNL     1      23.952   2.142  51.242  1.00  0.00     0.075 A 
HETATM   24  C13 UNL     1      22.686   1.628  51.424  1.00  0.00     0.033 A 
HETATM   25  C17 UNL     1      24.935   1.474  51.984  1.00  0.00     0.035 A 
HETATM   26  C14 UNL     1      22.475   0.568  52.260  1.00  0.00     0.002 A 
HETATM   27  C15 UNL     1      23.481  -0.080  52.989  1.00  0.00     0.002 A 
HETATM   28  C16 UNL     1      24.760   0.407  52.833  1.00  0.00     0.021 A 
HETATM   29  S1  UNL     1      26.457   2.440  51.478  1.00  0.00    -0.068 SA
ENDBRANCH   4  21
TORSDOF 4
ENDMDL
MODEL 6
REMARK VINA RESULT:      -8.4      3.500      5.767
REMARK  4 active torsions:
REMARK  status: ('A' for Active; 'I' for Inactive)
REMARK    1  A    between atoms: O1_2  and  C2_3 
REMARK    2  A    between atoms: N2_9  and  C7_10 
REMARK    3  A    between atoms: C10_13  and  C11_14 
REMARK    4  A    between atoms: C22_27  and  O2_28 
ROOT
HETATM    1  C7  UNL     1      24.935   5.369  49.843  1.00  0.00     0.032 A 
HETATM    2  C8  UNL     1      25.978   5.254  48.951  1.00  0.00     0.030 A 
HETATM    3  C9  UNL     1      26.892   6.249  48.675  1.00  0.00     0.016 A 
HETATM    4  C10 UNL     1      26.766   7.438  49.326  1.00  0.00    -0.000 A 
HETATM    5  C18 UNL     1      25.747   7.623  50.232  1.00  0.00     0.016 A 
HETATM    6  C19 UNL     1      24.857   6.593  50.472  1.00  0.00     0.030 A 
ENDROOT
BRANCH   1   7
HETATM    7  N2  UNL     1      23.999   4.341  50.133  1.00  0.00    -0.350 N 
HETATM    8  C6  UNL     1      22.551   4.590  50.179  1.00  0.00     0.275 C 
HETATM    9  N1  UNL     1      21.976   3.479  49.396  1.00  0.00    -0.267 NA
HETATM   10  C5  UNL     1      22.572   2.330  49.433  1.00  0.00     0.090 C 
HETATM   11  C4  UNL     1      23.281   2.121  50.533  1.00  0.00     0.002 A 
HETATM   12  C3  UNL     1      22.930   1.235  51.621  1.00  0.00     0.051 A 
HETATM   13  C20 UNL     1      24.487   3.004  50.394  1.00  0.00     0.147 A 
HETATM   14  C2  UNL     1      23.798   1.259  52.616  1.00  0.00     0.102 A 
HETATM   15  C22 UNL     1      24.995   2.090  52.609  1.00  0.00     0.100 A 
HETATM   16  C21 UNL     1      25.325   2.896  51.604  1.00  0.00     0.043 A 
BRANCH  14  17
HETATM   17  O1  UNL     1      23.398   0.393  53.622  1.00  0.00    -0.353 OA
HETATM   18  C1  UNL     1      22.019   0.173  53.849  1.00  0.00     0.210 C 
ENDBRANCH  14  17
BRANCH  15  19
HETATM   19  O2  UNL     1      25.720   1.907  53.803  1.00  0.00    -0.353 OA
HETATM   20  C23 UNL     1      26.963   1.215  53.625  1.00  0.00     0.210 C 
ENDBRANCH  15  19
ENDBRANCH   1   7
BRANCH   4  21
HETATM   21  C11 UNL     1      27.650   8.587  49.147  1.00  0.00     0.109 A 
HETATM   22  N3  UNL     1      27.616   9.791  49.185  1.00  0.00    -0.240 NA
HETATM   23  C12 UNL     1      28.638  10.590  48.965  1.00  0.00     0.075 A 
HETATM   24  C13 UNL     1      28.667  11.968  48.993  1.00  0.00     0.033 A 
HETATM   25  C17 UNL     1      29.878  10.014  48.657  1.00  0.00     0.035 A 
HETATM   26  C14 UNL     1      29.824  12.648  48.737  1.00  0.00     0.002 A 
HETATM   27  C15 UNL     1      31.050  12.042  48.432  1.00  0.00     0.002 A 
HETATM   28  C16 UNL     1      31.059  10.664  48.394  1.00  0.00     0.021 A 
HETATM   29  S1  UNL     1      29.431   8.196  48.716  1.00  0.00    -0.068 SA
ENDBRANCH   4  21
TORSDOF 4
ENDMDL
MODEL 7
REMARK VINA RESULT:      -8.3      3.637      6.514
REMARK  4 active torsions:
REMARK  status: ('A' for Active; 'I' for Inactive)
REMARK    1  A    between atoms: O1_2  and  C2_3 
REMARK    2  A    between atoms: N2_9  and  C7_10 
REMARK    3  A    between atoms: C10_13  and  C11_14 
REMARK    4  A    between atoms: C22_27  and  O2_28 
ROOT
HETATM    1  C7  UNL     1      26.406   5.460  48.966  1.00  0.00     0.032 A 
HETATM    2  C8  UNL     1      26.532   6.831  48.948  1.00  0.00     0.030 A 
HETATM    3  C9  UNL     1      27.692   7.511  48.647  1.00  0.00     0.016 A 
HETATM    4  C10 UNL     1      28.804   6.787  48.343  1.00  0.00    -0.000 A 
HETATM    5  C18 UNL     1      28.750   5.411  48.340  1.00  0.00     0.016 A 
HETATM    6  C19 UNL     1      27.561   4.778  48.649  1.00  0.00     0.030 A 
ENDROOT
BRANCH   1   7
HETATM    7  N2  UNL     1      25.208   4.760  49.266  1.00  0.00    -0.350 N 
HETATM    8  C6  UNL     1      23.887   5.401  49.197  1.00  0.00     0.275 C 
HETATM    9  N1  UNL     1      23.058   4.427  48.460  1.00  0.00    -0.267 NA
HETATM   10  C5  UNL     1      23.306   3.166  48.620  1.00  0.00     0.090 C 
HETATM   11  C4  UNL     1      23.879   2.867  49.778  1.00  0.00     0.002 A 
HETATM   12  C3  UNL     1      23.246   2.213  50.901  1.00  0.00     0.051 A 
HETATM   13  C20 UNL     1      25.288   3.368  49.656  1.00  0.00     0.147 A 
HETATM   14  C2  UNL     1      24.041   2.084  51.948  1.00  0.00     0.102 A 
HETATM   15  C22 UNL     1      25.422   2.549  51.961  1.00  0.00     0.100 A 
HETATM   16  C21 UNL     1      26.009   3.140  50.924  1.00  0.00     0.043 A 
BRANCH  14  17
HETATM   17  O1  UNL     1      23.371   1.454  52.985  1.00  0.00    -0.353 OA
HETATM   18  C1  UNL     1      23.256   0.044  52.989  1.00  0.00     0.210 C 
ENDBRANCH  14  17
BRANCH  15  19
HETATM   19  O2  UNL     1      26.013   2.279  53.210  1.00  0.00    -0.353 OA
HETATM   20  C23 UNL     1      27.424   2.034  53.142  1.00  0.00     0.210 C 
ENDBRANCH  15  19
ENDBRANCH   1   7
BRANCH   4  21
HETATM   21  C11 UNL     1      30.106   7.355  48.002  1.00  0.00     0.109 A 
HETATM   22  N3  UNL     1      30.603   8.105  47.202  1.00  0.00    -0.240 NA
HETATM   23  C12 UNL     1      31.876   8.435  47.154  1.00  0.00     0.075 A 
HETATM   24  C13 UNL     1      32.506   9.283  46.269  1.00  0.00     0.033 A 
HETATM   25  C17 UNL     1      32.743   7.879  48.104  1.00  0.00     0.035 A 
HETATM   26  C14 UNL     1      33.850   9.517  46.361  1.00  0.00     0.002 A 
HETATM   27  C15 UNL     1      34.691   8.944  47.324  1.00  0.00     0.002 A 
HETATM   28  C16 UNL     1      34.095   8.090  48.227  1.00  0.00     0.021 A 
HETATM   29  S1  UNL     1      31.542   6.826  49.083  1.00  0.00    -0.068 SA
ENDBRANCH   4  21
TORSDOF 4
ENDMDL
MODEL 8
REMARK VINA RESULT:      -8.3      3.004      4.633
REMARK  4 active torsions:
REMARK  status: ('A' for Active; 'I' for Inactive)
REMARK    1  A    between atoms: O1_2  and  C2_3 
REMARK    2  A    between atoms: N2_9  and  C7_10 
REMARK    3  A    between atoms: C10_13  and  C11_14 
REMARK    4  A    between atoms: C22_27  and  O2_28 
ROOT
HETATM    1  C7  UNL     1      24.162   4.265  50.688  1.00  0.00     0.032 A 
HETATM    2  C8  UNL     1      24.081   5.586  51.070  1.00  0.00     0.030 A 
HETATM    3  C9  UNL     1      24.897   6.593  50.599  1.00  0.00     0.016 A 
HETATM    4  C10 UNL     1      25.858   6.272  49.690  1.00  0.00    -0.000 A 
HETATM    5  C18 UNL     1      25.995   4.970  49.264  1.00  0.00     0.016 A 
HETATM    6  C19 UNL     1      25.151   3.999  49.767  1.00  0.00     0.030 A 
ENDROOT
BRANCH   1   7
HETATM    7  N2  UNL     1      23.315   3.230  51.166  1.00  0.00    -0.350 N 
HETATM    8  C6  UNL     1      21.933   3.484  51.594  1.00  0.00     0.275 C 
HETATM    9  N1  UNL     1      21.156   2.413  50.940  1.00  0.00    -0.267 NA
HETATM   10  C5  UNL     1      21.722   1.261  50.773  1.00  0.00     0.090 C 
HETATM   11  C4  UNL     1      22.687   0.997  51.642  1.00  0.00     0.002 A 
HETATM   12  C3  UNL     1      22.612   0.065  52.745  1.00  0.00     0.051 A 
HETATM   13  C20 UNL     1      23.831   1.880  51.235  1.00  0.00     0.147 A 
HETATM   14  C2  UNL     1      23.708   0.038  53.483  1.00  0.00     0.102 A 
HETATM   15  C22 UNL     1      24.877   0.863  53.203  1.00  0.00     0.100 A 
HETATM   16  C21 UNL     1      24.950   1.711  52.182  1.00  0.00     0.043 A 
BRANCH  14  17
HETATM   17  O1  UNL     1      23.566  -0.871  54.519  1.00  0.00    -0.353 OA
HETATM   18  C1  UNL     1      22.272  -1.216  54.975  1.00  0.00     0.210 C 
ENDBRANCH  14  17
BRANCH  15  19
HETATM   19  O2  UNL     1      25.881   0.621  54.160  1.00  0.00    -0.353 OA
HETATM   20  C23 UNL     1      27.022  -0.074  53.640  1.00  0.00     0.210 C 
ENDBRANCH  15  19
ENDBRANCH   1   7
BRANCH   4  21
HETATM   21  C11 UNL     1      26.799   7.220  49.097  1.00  0.00     0.109 A 
HETATM   22  N3  UNL     1      27.555   7.306  48.164  1.00  0.00    -0.240 NA
HETATM   23  C12 UNL     1      28.306   8.349  47.885  1.00  0.00     0.075 A 
HETATM   24  C13 UNL     1      29.188   8.512  46.837  1.00  0.00     0.033 A 
HETATM   25  C17 UNL     1      28.236   9.464  48.731  1.00  0.00     0.035 A 
HETATM   26  C14 UNL     1      29.896   9.672  46.694  1.00  0.00     0.002 A 
HETATM   27  C15 UNL     1      29.804  10.770  47.559  1.00  0.00     0.002 A 
HETATM   28  C16 UNL     1      28.932  10.644  48.618  1.00  0.00     0.021 A 
HETATM   29  S1  UNL     1      26.975   8.863  49.979  1.00  0.00    -0.068 SA
ENDBRANCH   4  21
TORSDOF 4
ENDMDL
MODEL 9
REMARK VINA RESULT:      -7.8      4.145      9.126
REMARK  4 active torsions:
REMARK  status: ('A' for Active; 'I' for Inactive)
REMARK    1  A    between atoms: O1_2  and  C2_3 
REMARK    2  A    between atoms: N2_9  and  C7_10 
REMARK    3  A    between atoms: C10_13  and  C11_14 
REMARK    4  A    between atoms: C22_27  and  O2_28 
ROOT
HETATM    1  C7  UNL     1      21.579   2.903  50.734  1.00  0.00     0.032 A 
HETATM    2  C8  UNL     1      20.660   1.931  50.404  1.00  0.00     0.030 A 
HETATM    3  C9  UNL     1      19.302   2.025  50.621  1.00  0.00     0.016 A 
HETATM    4  C10 UNL     1      18.819   3.157  51.203  1.00  0.00    -0.000 A 
HETATM    5  C18 UNL     1      19.680   4.171  51.557  1.00  0.00     0.016 A 
HETATM    6  C19 UNL     1      21.033   4.026  51.318  1.00  0.00     0.030 A 
ENDROOT
BRANCH   1   7
HETATM    7  N2  UNL     1      22.976   2.810  50.502  1.00  0.00    -0.350 N 
HETATM    8  C6  UNL     1      23.545   2.784  49.147  1.00  0.00     0.275 C 
HETATM    9  N1  UNL     1      24.661   3.749  49.212  1.00  0.00    -0.267 NA
HETATM   10  C5  UNL     1      25.307   3.863  50.328  1.00  0.00     0.090 C 
HETATM   11  C4  UNL     1      25.269   2.781  51.092  1.00  0.00     0.002 A 
HETATM   12  C3  UNL     1      26.357   1.855  51.317  1.00  0.00     0.051 A 
HETATM   13  C20 UNL     1      23.871   2.736  51.636  1.00  0.00     0.147 A 
HETATM   14  C2  UNL     1      26.025   0.834  52.087  1.00  0.00     0.102 A 
HETATM   15  C22 UNL     1      24.694   0.667  52.658  1.00  0.00     0.100 A 
HETATM   16  C21 UNL     1      23.697   1.524  52.461  1.00  0.00     0.043 A 
BRANCH  14  17
HETATM   17  O1  UNL     1      27.110  -0.012  52.256  1.00  0.00    -0.353 OA
HETATM   18  C1  UNL     1      28.056   0.259  53.273  1.00  0.00     0.210 C 
ENDBRANCH  14  17
BRANCH  15  19
HETATM   19  O2  UNL     1      24.640  -0.512  53.425  1.00  0.00    -0.353 OA
HETATM   20  C23 UNL     1      23.337  -0.806  53.945  1.00  0.00     0.210 C 
ENDBRANCH  15  19
ENDBRANCH   1   7
BRANCH   4  21
HETATM   21  C11 UNL     1      17.410   3.411  51.499  1.00  0.00     0.109 A 
HETATM   22  N3  UNL     1      16.712   3.779  52.408  1.00  0.00    -0.240 NA
HETATM   23  C12 UNL     1      15.404   3.912  52.359  1.00  0.00     0.075 A 
HETATM   24  C13 UNL     1      14.549   4.326  53.358  1.00  0.00     0.033 A 
HETATM   25  C17 UNL     1      14.749   3.603  51.159  1.00  0.00     0.035 A 
HETATM   26  C14 UNL     1      13.203   4.407  53.137  1.00  0.00     0.002 A 
HETATM   27  C15 UNL     1      12.577   4.091  51.924  1.00  0.00     0.002 A 
HETATM   28  C16 UNL     1      13.401   3.672  50.901  1.00  0.00     0.021 A 
HETATM   29  S1  UNL     1      16.207   3.100  50.097  1.00  0.00    -0.068 SA
ENDBRANCH   4  21
TORSDOF 4
ENDMDL
