MODEL 1
REMARK VINA RESULT:      -8.3      0.000      0.000
REMARK  3 active torsions:
REMARK  status: ('A' for Active; 'I' for Inactive)
REMARK    1  A    between atoms: C9_13  and  N2_14 
REMARK    2  A    between atoms: N2_14  and  C10_15 
REMARK    3  A    between atoms: C10_15  and  C11_16 
ROOT
HETATM    1  C1  UNL     1      19.853   0.927  50.249  1.00  0.00     0.043 C 
HETATM    2  S1  UNL     1      20.720   1.929  49.292  1.00  0.00    -0.099 SA
HETATM    3  C2  UNL     1      22.296   1.923  49.810  1.00  0.00     0.051 C 
HETATM    4  C3  UNL     1      22.589   1.184  51.055  1.00  0.00     0.021 C 
HETATM    5  C4  UNL     1      21.770   0.525  51.821  1.00  0.00     0.002 C 
HETATM    6  C5  UNL     1      20.416   0.558  51.333  1.00  0.00     0.058 C 
HETATM    7  S2  UNL     1      19.069  -0.031  52.388  1.00  0.00     0.040 SA
HETATM    8  O1  UNL     1      19.883  -0.976  53.605  1.00  0.00    -0.253 OA
HETATM    9  C6  UNL     1      21.249  -0.816  53.783  1.00  0.00     0.191 A 
HETATM   10  N1  UNL     1      21.603  -1.453  54.907  1.00  0.00    -0.235 NA
HETATM   11  C7  UNL     1      22.860  -1.486  55.357  1.00  0.00     0.122 A 
HETATM   12  C8  UNL     1      23.764  -0.813  54.576  1.00  0.00     0.049 A 
HETATM   13  C9  UNL     1      23.498  -0.130  53.405  1.00  0.00     0.045 A 
HETATM   14  C16 UNL     1      22.185  -0.149  53.023  1.00  0.00     0.056 A 
ENDROOT
BRANCH  13  15
HETATM   15  N2  UNL     1      24.564   0.459  52.782  1.00  0.00    -0.385 N 
HETATM   16  H5  UNL     1      25.168   1.103  52.282  1.00  0.00     0.160 HD
BRANCH  15  17
HETATM   17  C10 UNL     1      25.807  -0.265  52.716  1.00  0.00     0.160 C 
BRANCH  17  18
HETATM   18  C11 UNL     1      27.032   0.311  53.213  1.00  0.00    -0.023 A 
HETATM   19  C12 UNL     1      28.252  -0.307  53.404  1.00  0.00     0.012 A 
HETATM   20  C13 UNL     1      29.336   0.386  53.892  1.00  0.00     0.020 A 
HETATM   21  C14 UNL     1      29.274   1.719  54.216  1.00  0.00     0.116 A 
HETATM   22  N3  UNL     1      28.082   2.341  54.034  1.00  0.00    -0.273 NA
HETATM   23  C15 UNL     1      27.040   1.667  53.564  1.00  0.00     0.124 A 
ENDBRANCH  17  18
ENDBRANCH  15  17
ENDBRANCH  13  15
TORSDOF 3
ENDMDL
MODEL 2
REMARK VINA RESULT:      -8.2      4.837      6.434
REMARK  3 active torsions:
REMARK  status: ('A' for Active; 'I' for Inactive)
REMARK    1  A    between atoms: C9_13  and  N2_14 
REMARK    2  A    between atoms: N2_14  and  C10_15 
REMARK    3  A    between atoms: C10_15  and  C11_16 
ROOT
HETATM    1  C1  UNL     1      27.100   0.158  54.811  1.00  0.00     0.043 C 
HETATM    2  S1  UNL     1      28.642   0.689  54.699  1.00  0.00    -0.099 SA
HETATM    3  C2  UNL     1      28.711   1.871  53.537  1.00  0.00     0.051 C 
HETATM    4  C3  UNL     1      27.483   2.111  52.751  1.00  0.00     0.021 C 
HETATM    5  C4  UNL     1      26.330   1.514  52.842  1.00  0.00     0.002 C 
HETATM    6  C5  UNL     1      26.318   0.498  53.862  1.00  0.00     0.058 C 
HETATM    7  S2  UNL     1      24.927  -0.655  53.959  1.00  0.00     0.040 SA
HETATM    8  O1  UNL     1      23.678   0.127  53.029  1.00  0.00    -0.253 OA
HETATM    9  C6  UNL     1      24.024   1.150  52.159  1.00  0.00     0.191 A 
HETATM   10  N1  UNL     1      22.960   1.428  51.394  1.00  0.00    -0.235 NA
HETATM   11  C7  UNL     1      22.971   2.373  50.451  1.00  0.00     0.122 A 
HETATM   12  C8  UNL     1      24.164   3.039  50.324  1.00  0.00     0.049 A 
HETATM   13  C9  UNL     1      25.312   2.826  51.063  1.00  0.00     0.045 A 
HETATM   14  C16 UNL     1      25.207   1.840  52.004  1.00  0.00     0.056 A 
ENDROOT
BRANCH  13  15
HETATM   15  N2  UNL     1      26.386   3.623  50.772  1.00  0.00    -0.385 N 
HETATM   16  H5  UNL     1      27.176   4.255  50.834  1.00  0.00     0.160 HD
BRANCH  15  17
HETATM   17  C10 UNL     1      26.808   3.734  49.399  1.00  0.00     0.160 C 
BRANCH  17  18
HETATM   18  C11 UNL     1      27.181   5.007  48.836  1.00  0.00    -0.023 A 
HETATM   19  C12 UNL     1      28.412   5.399  48.347  1.00  0.00     0.012 A 
HETATM   20  C13 UNL     1      28.609   6.661  47.837  1.00  0.00     0.020 A 
HETATM   21  C14 UNL     1      27.610   7.601  47.783  1.00  0.00     0.116 A 
HETATM   22  N3  UNL     1      26.394   7.232  48.260  1.00  0.00    -0.273 NA
HETATM   23  C15 UNL     1      26.209   6.013  48.751  1.00  0.00     0.124 A 
ENDBRANCH  17  18
ENDBRANCH  15  17
ENDBRANCH  13  15
TORSDOF 3
ENDMDL
MODEL 3
REMARK VINA RESULT:      -8.1      1.872      2.198
REMARK  3 active torsions:
REMARK  status: ('A' for Active; 'I' for Inactive)
REMARK    1  A    between atoms: C9_13  and  N2_14 
REMARK    2  A    between atoms: N2_14  and  C10_15 
REMARK    3  A    between atoms: C10_15  and  C11_16 
ROOT
HETATM    1  C1  UNL     1      22.608   3.971  50.590  1.00  0.00     0.043 C 
HETATM    2  S1  UNL     1      24.163   4.185  50.134  1.00  0.00    -0.099 SA
HETATM    3  C2  UNL     1      25.065   2.924  50.724  1.00  0.00     0.051 C 
HETATM    4  C3  UNL     1      24.381   1.975  51.627  1.00  0.00     0.021 C 
HETATM    5  C4  UNL     1      23.146   1.989  52.036  1.00  0.00     0.002 C 
HETATM    6  C5  UNL     1      22.403   3.099  51.499  1.00  0.00     0.058 C 
HETATM    7  S2  UNL     1      20.766   3.485  52.164  1.00  0.00     0.040 SA
HETATM    8  O1  UNL     1      20.307   2.027  53.001  1.00  0.00    -0.253 OA
HETATM    9  C6  UNL     1      21.284   1.096  53.323  1.00  0.00     0.191 A 
HETATM   10  N1  UNL     1      20.748   0.194  54.155  1.00  0.00    -0.235 NA
HETATM   11  C7  UNL     1      21.436  -0.837  54.649  1.00  0.00     0.122 A 
HETATM   12  C8  UNL     1      22.743  -0.901  54.238  1.00  0.00     0.049 A 
HETATM   13  C9  UNL     1      23.385  -0.022  53.385  1.00  0.00     0.045 A 
HETATM   14  C16 UNL     1      22.603   1.002  52.930  1.00  0.00     0.056 A 
ENDROOT
BRANCH  13  15
HETATM   15  N2  UNL     1      24.697  -0.291  53.100  1.00  0.00    -0.385 N 
HETATM   16  H5  UNL     1      25.570  -0.492  52.626  1.00  0.00     0.160 HD
BRANCH  15  17
HETATM   17  C10 UNL     1      25.631  -0.387  54.192  1.00  0.00     0.160 C 
BRANCH  17  18
HETATM   18  C11 UNL     1      26.884   0.326  54.165  1.00  0.00    -0.023 A 
HETATM   19  C12 UNL     1      28.164  -0.192  54.178  1.00  0.00     0.012 A 
HETATM   20  C13 UNL     1      29.267   0.629  54.149  1.00  0.00     0.020 A 
HETATM   21  C14 UNL     1      29.168   1.997  54.106  1.00  0.00     0.116 A 
HETATM   22  N3  UNL     1      27.917   2.522  54.092  1.00  0.00    -0.273 NA
HETATM   23  C15 UNL     1      26.856   1.726  54.121  1.00  0.00     0.124 A 
ENDBRANCH  17  18
ENDBRANCH  15  17
ENDBRANCH  13  15
TORSDOF 3
ENDMDL
MODEL 4
REMARK VINA RESULT:      -8.0      2.255      3.934
REMARK  3 active torsions:
REMARK  status: ('A' for Active; 'I' for Inactive)
REMARK    1  A    between atoms: C9_13  and  N2_14 
REMARK    2  A    between atoms: N2_14  and  C10_15 
REMARK    3  A    between atoms: C10_15  and  C11_16 
ROOT
HETATM    1  C1  UNL     1      20.562  -0.327  52.904  1.00  0.00     0.043 C 
HETATM    2  S1  UNL     1      20.945  -1.282  54.175  1.00  0.00    -0.099 SA
HETATM    3  C2  UNL     1      22.505  -0.953  54.632  1.00  0.00     0.051 C 
HETATM    4  C3  UNL     1      23.275  -0.030  53.773  1.00  0.00     0.021 C 
HETATM    5  C4  UNL     1      22.896   0.573  52.684  1.00  0.00     0.002 C 
HETATM    6  C5  UNL     1      21.537   0.258  52.327  1.00  0.00     0.058 C 
HETATM    7  S2  UNL     1      20.905   0.741  50.702  1.00  0.00     0.040 SA
HETATM    8  O1  UNL     1      22.038   1.948  50.161  1.00  0.00    -0.253 OA
HETATM    9  C6  UNL     1      23.276   2.039  50.779  1.00  0.00     0.191 A 
HETATM   10  N1  UNL     1      24.050   2.857  50.054  1.00  0.00    -0.235 NA
HETATM   11  C7  UNL     1      25.308   3.152  50.388  1.00  0.00     0.122 A 
HETATM   12  C8  UNL     1      25.751   2.547  51.537  1.00  0.00     0.049 A 
HETATM   13  C9  UNL     1      25.032   1.692  52.350  1.00  0.00     0.045 A 
HETATM   14  C16 UNL     1      23.754   1.447  51.929  1.00  0.00     0.056 A 
ENDROOT
BRANCH  13  15
HETATM   15  N2  UNL     1      25.675   1.215  53.461  1.00  0.00    -0.385 N 
HETATM   16  H5  UNL     1      25.888   0.809  54.365  1.00  0.00     0.160 HD
BRANCH  15  17
HETATM   17  C10 UNL     1      27.113   1.282  53.504  1.00  0.00     0.160 C 
BRANCH  17  18
HETATM   18  C11 UNL     1      27.916   0.087  53.436  1.00  0.00    -0.023 A 
HETATM   19  C12 UNL     1      29.280  -0.038  53.614  1.00  0.00     0.012 A 
HETATM   20  C13 UNL     1      29.904  -1.261  53.516  1.00  0.00     0.020 A 
HETATM   21  C14 UNL     1      29.221  -2.418  53.238  1.00  0.00     0.116 A 
HETATM   22  N3  UNL     1      27.880  -2.312  53.061  1.00  0.00    -0.273 NA
HETATM   23  C15 UNL     1      27.283  -1.131  53.156  1.00  0.00     0.124 A 
ENDBRANCH  17  18
ENDBRANCH  15  17
ENDBRANCH  13  15
TORSDOF 3
ENDMDL
MODEL 5
REMARK VINA RESULT:      -8.0      3.414      4.687
REMARK  3 active torsions:
REMARK  status: ('A' for Active; 'I' for Inactive)
REMARK    1  A    between atoms: C9_13  and  N2_14 
REMARK    2  A    between atoms: N2_14  and  C10_15 
REMARK    3  A    between atoms: C10_15  and  C11_16 
ROOT
HETATM    1  C1  UNL     1      21.365  -0.737  53.755  1.00  0.00     0.043 C 
HETATM    2  S1  UNL     1      20.478   0.222  52.773  1.00  0.00    -0.099 SA
HETATM    3  C2  UNL     1      21.511   1.134  51.851  1.00  0.00     0.051 C 
HETATM    4  C3  UNL     1      22.952   1.040  52.166  1.00  0.00     0.021 C 
HETATM    5  C4  UNL     1      23.537   0.329  53.084  1.00  0.00     0.002 C 
HETATM    6  C5  UNL     1      22.602  -0.445  53.859  1.00  0.00     0.058 C 
HETATM    7  S2  UNL     1      23.158  -1.268  55.371  1.00  0.00     0.040 SA
HETATM    8  O1  UNL     1      24.893  -1.288  55.215  1.00  0.00    -0.253 OA
HETATM    9  C6  UNL     1      25.500  -0.442  54.299  1.00  0.00     0.191 A 
HETATM   10  N1  UNL     1      26.821  -0.460  54.521  1.00  0.00    -0.235 NA
HETATM   11  C7  UNL     1      27.687   0.256  53.801  1.00  0.00     0.122 A 
HETATM   12  C8  UNL     1      27.117   1.015  52.811  1.00  0.00     0.049 A 
HETATM   13  C9  UNL     1      25.772   1.100  52.505  1.00  0.00     0.045 A 
HETATM   14  C16 UNL     1      24.961   0.334  53.295  1.00  0.00     0.056 A 
ENDROOT
BRANCH  13  15
HETATM   15  N2  UNL     1      25.430   1.915  51.460  1.00  0.00    -0.385 N 
HETATM   16  H5  UNL     1      24.918   2.466  50.780  1.00  0.00     0.160 HD
BRANCH  15  17
HETATM   17  C10 UNL     1      26.482   2.458  50.639  1.00  0.00     0.160 C 
BRANCH  17  18
HETATM   18  C11 UNL     1      26.347   3.750  50.014  1.00  0.00    -0.023 A 
HETATM   19  C12 UNL     1      27.199   4.358  49.114  1.00  0.00     0.012 A 
HETATM   20  C13 UNL     1      26.928   5.607  48.604  1.00  0.00     0.020 A 
HETATM   21  C14 UNL     1      25.808   6.319  48.953  1.00  0.00     0.116 A 
HETATM   22  N3  UNL     1      24.959   5.735  49.837  1.00  0.00    -0.273 NA
HETATM   23  C15 UNL     1      25.226   4.531  50.326  1.00  0.00     0.124 A 
ENDBRANCH  17  18
ENDBRANCH  15  17
ENDBRANCH  13  15
TORSDOF 3
ENDMDL
MODEL 6
REMARK VINA RESULT:      -7.6      3.275      6.590
REMARK  3 active torsions:
REMARK  status: ('A' for Active; 'I' for Inactive)
REMARK    1  A    between atoms: C9_13  and  N2_14 
REMARK    2  A    between atoms: N2_14  and  C10_15 
REMARK    3  A    between atoms: C10_15  and  C11_16 
ROOT
HETATM    1  C1  UNL     1      26.848   2.167  51.753  1.00  0.00     0.043 C 
HETATM    2  S1  UNL     1      26.032   2.886  50.533  1.00  0.00    -0.099 SA
HETATM    3  C2  UNL     1      24.414   2.578  50.726  1.00  0.00     0.051 C 
HETATM    4  C3  UNL     1      24.033   1.642  51.804  1.00  0.00     0.021 C 
HETATM    5  C4  UNL     1      24.803   1.011  52.641  1.00  0.00     0.002 C 
HETATM    6  C5  UNL     1      26.197   1.308  52.436  1.00  0.00     0.058 C 
HETATM    7  S2  UNL     1      27.456   0.321  53.280  1.00  0.00     0.040 SA
HETATM    8  O1  UNL     1      26.573  -0.467  54.558  1.00  0.00    -0.253 OA
HETATM    9  C6  UNL     1      25.189  -0.525  54.488  1.00  0.00     0.191 A 
HETATM   10  N1  UNL     1      24.755  -1.368  55.435  1.00  0.00    -0.235 NA
HETATM   11  C7  UNL     1      23.462  -1.641  55.626  1.00  0.00     0.122 A 
HETATM   12  C8  UNL     1      22.608  -0.989  54.773  1.00  0.00     0.049 A 
HETATM   13  C9  UNL     1      22.958  -0.105  53.770  1.00  0.00     0.045 A 
HETATM   14  C16 UNL     1      24.302   0.112  53.647  1.00  0.00     0.056 A 
ENDROOT
BRANCH  13  15
HETATM   15  N2  UNL     1      21.931   0.440  53.047  1.00  0.00    -0.385 N 
HETATM   16  H5  UNL     1      21.377   1.011  52.419  1.00  0.00     0.160 HD
BRANCH  15  17
HETATM   17  C10 UNL     1      20.611  -0.113  53.204  1.00  0.00     0.160 C 
BRANCH  17  18
HETATM   18  C11 UNL     1      19.608   0.053  52.181  1.00  0.00    -0.023 A 
HETATM   19  C12 UNL     1      19.728   0.686  50.960  1.00  0.00     0.012 A 
HETATM   20  C13 UNL     1      18.667   0.761  50.087  1.00  0.00     0.020 A 
HETATM   21  C14 UNL     1      17.438   0.218  50.370  1.00  0.00     0.116 A 
HETATM   22  N3  UNL     1      17.304  -0.408  51.566  1.00  0.00    -0.273 NA
HETATM   23  C15 UNL     1      18.331  -0.477  52.405  1.00  0.00     0.124 A 
ENDBRANCH  17  18
ENDBRANCH  15  17
ENDBRANCH  13  15
TORSDOF 3
ENDMDL
MODEL 7
REMARK VINA RESULT:      -7.5      2.254      2.776
REMARK  3 active torsions:
REMARK  status: ('A' for Active; 'I' for Inactive)
REMARK    1  A    between atoms: C9_13  and  N2_14 
REMARK    2  A    between atoms: N2_14  and  C10_15 
REMARK    3  A    between atoms: C10_15  and  C11_16 
ROOT
HETATM    1  C1  UNL     1      22.918   4.333  50.386  1.00  0.00     0.043 C 
HETATM    2  S1  UNL     1      24.512   4.500  50.064  1.00  0.00    -0.099 SA
HETATM    3  C2  UNL     1      25.317   3.190  50.686  1.00  0.00     0.051 C 
HETATM    4  C3  UNL     1      24.528   2.244  51.502  1.00  0.00     0.021 C 
HETATM    5  C4  UNL     1      23.265   2.294  51.810  1.00  0.00     0.002 C 
HETATM    6  C5  UNL     1      22.609   3.447  51.249  1.00  0.00     0.058 C 
HETATM    7  S2  UNL     1      20.937   3.876  51.791  1.00  0.00     0.040 SA
HETATM    8  O1  UNL     1      20.360   2.415  52.545  1.00  0.00    -0.253 OA
HETATM    9  C6  UNL     1      21.273   1.440  52.916  1.00  0.00     0.191 A 
HETATM   10  N1  UNL     1      20.638   0.537  53.675  1.00  0.00    -0.235 NA
HETATM   11  C7  UNL     1      21.247  -0.533  54.192  1.00  0.00     0.122 A 
HETATM   12  C8  UNL     1      22.580  -0.636  53.886  1.00  0.00     0.049 A 
HETATM   13  C9  UNL     1      23.320   0.240  53.114  1.00  0.00     0.045 A 
HETATM   14  C16 UNL     1      22.615   1.305  52.629  1.00  0.00     0.056 A 
ENDROOT
BRANCH  13  15
HETATM   15  N2  UNL     1      24.640  -0.071  52.928  1.00  0.00    -0.385 N 
HETATM   16  H5  UNL     1      25.547  -0.268  52.520  1.00  0.00     0.160 HD
BRANCH  15  17
HETATM   17  C10 UNL     1      25.451  -0.346  54.086  1.00  0.00     0.160 C 
BRANCH  17  18
HETATM   18  C11 UNL     1      26.891  -0.331  54.007  1.00  0.00    -0.023 A 
HETATM   19  C12 UNL     1      27.757   0.676  54.385  1.00  0.00     0.012 A 
HETATM   20  C13 UNL     1      29.119   0.537  54.244  1.00  0.00     0.020 A 
HETATM   21  C14 UNL     1      29.696  -0.596  53.727  1.00  0.00     0.116 A 
HETATM   22  N3  UNL     1      28.858  -1.595  53.352  1.00  0.00    -0.273 NA
HETATM   23  C15 UNL     1      27.545  -1.455  53.488  1.00  0.00     0.124 A 
ENDBRANCH  17  18
ENDBRANCH  15  17
ENDBRANCH  13  15
TORSDOF 3
ENDMDL
MODEL 8
REMARK VINA RESULT:      -7.5      2.934      5.158
REMARK  3 active torsions:
REMARK  status: ('A' for Active; 'I' for Inactive)
REMARK    1  A    between atoms: C9_13  and  N2_14 
REMARK    2  A    between atoms: N2_14  and  C10_15 
REMARK    3  A    between atoms: C10_15  and  C11_16 
ROOT
HETATM    1  C1  UNL     1      21.448  -1.196  54.426  1.00  0.00     0.043 C 
HETATM    2  S1  UNL     1      20.324  -0.381  53.563  1.00  0.00    -0.099 SA
HETATM    3  C2  UNL     1      21.099   0.536  52.419  1.00  0.00     0.051 C 
HETATM    4  C3  UNL     1      22.574   0.573  52.476  1.00  0.00     0.021 C 
HETATM    5  C4  UNL     1      23.370  -0.022  53.316  1.00  0.00     0.002 C 
HETATM    6  C5  UNL     1      22.654  -0.804  54.289  1.00  0.00     0.058 C 
HETATM    7  S2  UNL     1      23.533  -1.469  55.724  1.00  0.00     0.040 SA
HETATM    8  O1  UNL     1      25.210  -1.371  55.262  1.00  0.00    -0.253 OA
HETATM    9  C6  UNL     1      25.573  -0.552  54.203  1.00  0.00     0.191 A 
HETATM   10  N1  UNL     1      26.909  -0.454  54.186  1.00  0.00    -0.235 NA
HETATM   11  C7  UNL     1      27.572   0.270  53.281  1.00  0.00     0.122 A 
HETATM   12  C8  UNL     1      26.775   0.909  52.366  1.00  0.00     0.049 A 
HETATM   13  C9  UNL     1      25.395   0.869  52.301  1.00  0.00     0.045 A 
HETATM   14  C16 UNL     1      24.803   0.106  53.268  1.00  0.00     0.056 A 
ENDROOT
BRANCH  13  15
HETATM   15  N2  UNL     1      24.807   1.578  51.288  1.00  0.00    -0.385 N 
HETATM   16  H5  UNL     1      24.252   1.854  50.486  1.00  0.00     0.160 HD
BRANCH  15  17
HETATM   17  C10 UNL     1      25.141   2.971  51.140  1.00  0.00     0.160 C 
BRANCH  17  18
HETATM   18  C11 UNL     1      24.114   3.980  51.079  1.00  0.00    -0.023 A 
HETATM   19  C12 UNL     1      23.841   4.862  50.052  1.00  0.00     0.012 A 
HETATM   20  C13 UNL     1      22.816   5.775  50.148  1.00  0.00     0.020 A 
HETATM   21  C14 UNL     1      22.010   5.867  51.256  1.00  0.00     0.116 A 
HETATM   22  N3  UNL     1      22.265   5.006  52.273  1.00  0.00    -0.273 NA
HETATM   23  C15 UNL     1      23.255   4.128  52.176  1.00  0.00     0.124 A 
ENDBRANCH  17  18
ENDBRANCH  15  17
ENDBRANCH  13  15
TORSDOF 3
ENDMDL
MODEL 9
REMARK VINA RESULT:      -7.4      1.899      3.440
REMARK  3 active torsions:
REMARK  status: ('A' for Active; 'I' for Inactive)
REMARK    1  A    between atoms: C9_13  and  N2_14 
REMARK    2  A    between atoms: N2_14  and  C10_15 
REMARK    3  A    between atoms: C10_15  and  C11_16 
ROOT
HETATM    1  C1  UNL     1      18.596   0.144  51.808  1.00  0.00     0.043 C 
HETATM    2  S1  UNL     1      18.544  -0.944  53.026  1.00  0.00    -0.099 SA
HETATM    3  C2  UNL     1      20.021  -0.963  53.781  1.00  0.00     0.051 C 
HETATM    4  C3  UNL     1      21.099  -0.162  53.166  1.00  0.00     0.021 C 
HETATM    5  C4  UNL     1      21.055   0.570  52.092  1.00  0.00     0.002 C 
HETATM    6  C5  UNL     1      19.755   0.556  51.471  1.00  0.00     0.058 C 
HETATM    7  S2  UNL     1      19.547   1.256  49.816  1.00  0.00     0.040 SA
HETATM    8  O1  UNL     1      20.967   2.242  49.604  1.00  0.00    -0.253 OA
HETATM    9  C6  UNL     1      22.058   2.045  50.437  1.00  0.00     0.191 A 
HETATM   10  N1  UNL     1      23.095   2.735  49.943  1.00  0.00    -0.235 NA
HETATM   11  C7  UNL     1      24.298   2.750  50.521  1.00  0.00     0.122 A 
HETATM   12  C8  UNL     1      24.392   1.999  51.665  1.00  0.00     0.049 A 
HETATM   13  C9  UNL     1      23.384   1.257  52.251  1.00  0.00     0.045 A 
HETATM   14  C16 UNL     1      22.189   1.300  51.589  1.00  0.00     0.056 A 
ENDROOT
BRANCH  13  15
HETATM   15  N2  UNL     1      23.702   0.593  53.405  1.00  0.00    -0.385 N 
HETATM   16  H5  UNL     1      23.779   0.304  54.374  1.00  0.00     0.160 HD
BRANCH  15  17
HETATM   17  C10 UNL     1      24.551  -0.567  53.319  1.00  0.00     0.160 C 
BRANCH  17  18
HETATM   18  C11 UNL     1      25.967  -0.474  53.569  1.00  0.00    -0.023 A 
HETATM   19  C12 UNL     1      26.997  -1.104  52.898  1.00  0.00     0.012 A 
HETATM   20  C13 UNL     1      28.310  -0.910  53.261  1.00  0.00     0.020 A 
HETATM   21  C14 UNL     1      28.676  -0.091  54.300  1.00  0.00     0.116 A 
HETATM   22  N3  UNL     1      27.676   0.536  54.969  1.00  0.00    -0.273 NA
HETATM   23  C15 UNL     1      26.410   0.345  54.615  1.00  0.00     0.124 A 
ENDBRANCH  17  18
ENDBRANCH  15  17
ENDBRANCH  13  15
TORSDOF 3
ENDMDL
