MODEL 1
REMARK VINA RESULT:      -9.8      0.000      0.000
REMARK  1 active torsions:
REMARK  status: ('A' for Active; 'I' for Inactive)
REMARK    1  A    between atoms: C16_17  and  N2_18 
ROOT
HETATM    1  C1  UNL     1      25.212   2.714  53.641  1.00  0.00     0.052 C 
HETATM    2  C2  UNL     1      25.603   1.326  53.189  1.00  0.00    -0.019 A 
HETATM    3  C3  UNL     1      26.937   1.146  52.759  1.00  0.00     0.105 A 
HETATM    4  C4  UNL     1      27.457  -0.105  52.541  1.00  0.00     0.040 A 
HETATM    5  C5  UNL     1      26.585  -1.143  52.761  1.00  0.00     0.003 A 
HETATM    6  C6  UNL     1      25.287  -0.929  53.170  1.00  0.00     0.009 A 
HETATM    7  C7  UNL     1      24.703   0.295  53.408  1.00  0.00    -0.035 A 
HETATM    8  C8  UNL     1      23.305   0.472  53.746  1.00  0.00     0.103 A 
HETATM    9  C9  UNL     1      22.752  -0.764  54.351  1.00  0.00     0.012 A 
HETATM   10  C10 UNL     1      23.072  -1.579  55.364  1.00  0.00     0.039 C 
HETATM   11  N1  UNL     1      21.602  -1.154  53.608  1.00  0.00    -0.368 N 
HETATM   12  C11 UNL     1      21.412  -0.249  52.548  1.00  0.00     0.096 A 
HETATM   13  C12 UNL     1      22.378   0.692  52.598  1.00  0.00    -0.022 A 
HETATM   14  C13 UNL     1      22.364   1.739  51.545  1.00  0.00    -0.049 C 
HETATM   15  C14 UNL     1      21.974   1.453  50.274  1.00  0.00    -0.016 C 
HETATM   16  C15 UNL     1      21.535   2.392  49.201  1.00  0.00     0.067 C 
HETATM   17  C16 UNL     1      22.378   3.655  49.136  1.00  0.00     0.250 C 
HETATM   18  C17 UNL     1      23.439   3.402  50.205  1.00  0.00    -0.038 C 
HETATM   19  C18 UNL     1      24.763   3.400  50.052  1.00  0.00     0.081 C 
HETATM   20  C19 UNL     1      26.227   3.352  50.084  1.00  0.00     0.265 C 
HETATM   21  O1  UNL     1      27.094   3.583  49.209  1.00  0.00    -0.266 OA
HETATM   22  N3  UNL     1      26.810   2.950  51.323  1.00  0.00    -0.225 N 
HETATM   23  O2  UNL     1      27.428   2.527  52.630  1.00  0.00    -0.235 OA
HETATM   24  C20 UNL     1      22.676   3.166  51.474  1.00  0.00     0.075 C 
HETATM   25  H10 UNL     1      20.956  -1.971  53.764  1.00  0.00     0.165 HD
HETATM   26  H19 UNL     1      27.858   2.851  51.290  1.00  0.00     0.198 HD
ENDROOT
BRANCH  17  27
HETATM   27  N2  UNL     1      22.956   3.776  47.833  1.00  0.00     0.087 N 
HETATM   28  H16 UNL     1      22.254   4.103  47.114  1.00  0.00     0.313 HD
HETATM   29  H17 UNL     1      23.169   2.778  47.530  1.00  0.00     0.313 HD
ENDBRANCH  17  27
TORSDOF 1
ENDMDL
MODEL 2
REMARK VINA RESULT:      -9.5      2.527      6.368
REMARK  1 active torsions:
REMARK  status: ('A' for Active; 'I' for Inactive)
REMARK    1  A    between atoms: C16_17  and  N2_18 
ROOT
HETATM    1  C1  UNL     1      22.135   3.079  52.312  1.00  0.00     0.052 C 
HETATM    2  C2  UNL     1      22.201   2.513  50.912  1.00  0.00    -0.019 A 
HETATM    3  C3  UNL     1      21.225   1.552  50.564  1.00  0.00     0.105 A 
HETATM    4  C4  UNL     1      21.055   1.141  49.266  1.00  0.00     0.040 A 
HETATM    5  C5  UNL     1      21.904   1.724  48.356  1.00  0.00     0.003 A 
HETATM    6  C6  UNL     1      22.851   2.649  48.734  1.00  0.00     0.009 A 
HETATM    7  C7  UNL     1      23.074   3.106  50.014  1.00  0.00    -0.035 A 
HETATM    8  C8  UNL     1      24.146   4.012  50.373  1.00  0.00     0.103 A 
HETATM    9  C9  UNL     1      24.579   4.805  49.199  1.00  0.00     0.012 A 
HETATM   10  C10 UNL     1      23.993   5.589  48.283  1.00  0.00     0.039 C 
HETATM   11  N1  UNL     1      25.982   4.633  49.029  1.00  0.00    -0.368 N 
HETATM   12  C11 UNL     1      26.458   3.750  50.017  1.00  0.00     0.096 A 
HETATM   13  C12 UNL     1      25.426   3.372  50.800  1.00  0.00    -0.022 A 
HETATM   14  C13 UNL     1      25.719   2.420  51.900  1.00  0.00    -0.049 C 
HETATM   15  C14 UNL     1      26.654   1.443  51.754  1.00  0.00    -0.016 C 
HETATM   16  C15 UNL     1      27.351   0.656  52.813  1.00  0.00     0.067 C 
HETATM   17  C16 UNL     1      26.426   0.225  53.939  1.00  0.00     0.250 C 
HETATM   18  C17 UNL     1      25.066   0.735  53.466  1.00  0.00    -0.038 C 
HETATM   19  C18 UNL     1      23.953   0.027  53.277  1.00  0.00     0.081 C 
HETATM   20  C19 UNL     1      22.643  -0.574  53.012  1.00  0.00     0.265 C 
HETATM   21  O1  UNL     1      22.207  -1.738  53.166  1.00  0.00    -0.266 OA
HETATM   22  N3  UNL     1      21.660   0.297  52.453  1.00  0.00    -0.225 N 
HETATM   23  O2  UNL     1      20.622   1.214  51.862  1.00  0.00    -0.235 OA
HETATM   24  C20 UNL     1      25.243   2.211  53.267  1.00  0.00     0.075 C 
HETATM   25  H10 UNL     1      26.621   5.057  48.309  1.00  0.00     0.165 HD
HETATM   26  H19 UNL     1      20.757  -0.183  52.201  1.00  0.00     0.198 HD
ENDROOT
BRANCH  17  27
HETATM   27  N2  UNL     1      26.447  -1.201  54.054  1.00  0.00     0.087 N 
HETATM   28  H16 UNL     1      25.655  -1.564  54.654  1.00  0.00     0.313 HD
HETATM   29  H17 UNL     1      27.311  -1.419  54.634  1.00  0.00     0.313 HD
ENDBRANCH  17  27
TORSDOF 1
ENDMDL
MODEL 3
REMARK VINA RESULT:      -9.1      3.208      4.976
REMARK  1 active torsions:
REMARK  status: ('A' for Active; 'I' for Inactive)
REMARK    1  A    between atoms: C16_17  and  N2_18 
ROOT
HETATM    1  C1  UNL     1      21.691   0.533  50.581  1.00  0.00     0.052 C 
HETATM    2  C2  UNL     1      21.691   0.394  52.086  1.00  0.00    -0.019 A 
HETATM    3  C3  UNL     1      20.443   0.158  52.706  1.00  0.00     0.105 A 
HETATM    4  C4  UNL     1      20.356  -0.203  54.027  1.00  0.00     0.040 A 
HETATM    5  C5  UNL     1      21.560  -0.303  54.682  1.00  0.00     0.003 A 
HETATM    6  C6  UNL     1      22.757  -0.054  54.048  1.00  0.00     0.009 A 
HETATM    7  C7  UNL     1      22.916   0.308  52.729  1.00  0.00    -0.035 A 
HETATM    8  C8  UNL     1      24.191   0.649  52.133  1.00  0.00     0.103 A 
HETATM    9  C9  UNL     1      25.306   0.030  52.889  1.00  0.00     0.012 A 
HETATM   10  C10 UNL     1      25.635  -1.200  53.306  1.00  0.00     0.039 C 
HETATM   11  N1  UNL     1      26.218   1.054  53.269  1.00  0.00    -0.368 N 
HETATM   12  C11 UNL     1      25.729   2.294  52.818  1.00  0.00     0.096 A 
HETATM   13  C12 UNL     1      24.563   2.094  52.168  1.00  0.00    -0.022 A 
HETATM   14  C13 UNL     1      23.871   3.291  51.626  1.00  0.00    -0.049 C 
HETATM   15  C14 UNL     1      23.911   4.482  52.281  1.00  0.00    -0.016 C 
HETATM   16  C15 UNL     1      23.623   5.847  51.750  1.00  0.00     0.067 C 
HETATM   17  C16 UNL     1      22.416   5.883  50.827  1.00  0.00     0.250 C 
HETATM   18  C17 UNL     1      21.913   4.442  50.881  1.00  0.00    -0.038 C 
HETATM   19  C18 UNL     1      20.700   4.018  51.234  1.00  0.00     0.081 C 
HETATM   20  C19 UNL     1      19.439   3.362  51.588  1.00  0.00     0.265 C 
HETATM   21  O1  UNL     1      18.315   3.818  51.905  1.00  0.00    -0.266 OA
HETATM   22  N3  UNL     1      19.462   1.935  51.605  1.00  0.00    -0.225 N 
HETATM   23  O2  UNL     1      19.484   0.429  51.624  1.00  0.00    -0.235 OA
HETATM   24  C20 UNL     1      23.072   3.599  50.441  1.00  0.00     0.075 C 
HETATM   25  H10 UNL     1      27.124   0.975  53.800  1.00  0.00     0.165 HD
HETATM   26  H19 UNL     1      18.564   1.497  51.939  1.00  0.00     0.198 HD
ENDROOT
BRANCH  17  27
HETATM   27  N2  UNL     1      21.450   6.802  51.342  1.00  0.00     0.087 N 
HETATM   28  H16 UNL     1      21.461   7.725  50.826  1.00  0.00     0.313 HD
HETATM   29  H17 UNL     1      21.803   7.063  52.312  1.00  0.00     0.313 HD
ENDBRANCH  17  27
TORSDOF 1
ENDMDL
MODEL 4
REMARK VINA RESULT:      -8.8      2.118      5.222
REMARK  1 active torsions:
REMARK  status: ('A' for Active; 'I' for Inactive)
REMARK    1  A    between atoms: C16_17  and  N2_18 
ROOT
HETATM    1  C1  UNL     1      23.900   1.684  50.607  1.00  0.00     0.052 C 
HETATM    2  C2  UNL     1      23.202   2.781  51.379  1.00  0.00    -0.019 A 
HETATM    3  C3  UNL     1      23.956   3.942  51.663  1.00  0.00     0.105 A 
HETATM    4  C4  UNL     1      23.365   5.078  52.156  1.00  0.00     0.040 A 
HETATM    5  C5  UNL     1      22.009   4.987  52.355  1.00  0.00     0.003 A 
HETATM    6  C6  UNL     1      21.308   3.835  52.076  1.00  0.00     0.009 A 
HETATM    7  C7  UNL     1      21.836   2.664  51.580  1.00  0.00    -0.035 A 
HETATM    8  C8  UNL     1      21.071   1.448  51.392  1.00  0.00     0.103 A 
HETATM    9  C9  UNL     1      19.628   1.754  51.240  1.00  0.00     0.012 A 
HETATM   10  C10 UNL     1      18.878   2.550  50.466  1.00  0.00     0.039 C 
HETATM   11  N1  UNL     1      18.902   1.004  52.207  1.00  0.00    -0.368 N 
HETATM   12  C11 UNL     1      19.809   0.258  52.983  1.00  0.00     0.096 A 
HETATM   13  C12 UNL     1      21.062   0.497  52.543  1.00  0.00    -0.022 A 
HETATM   14  C13 UNL     1      22.175  -0.187  53.248  1.00  0.00    -0.049 C 
HETATM   15  C14 UNL     1      22.123  -0.415  54.588  1.00  0.00    -0.016 C 
HETATM   16  C15 UNL     1      22.918  -1.383  55.399  1.00  0.00     0.067 C 
HETATM   17  C16 UNL     1      24.381  -1.437  54.993  1.00  0.00     0.250 C 
HETATM   18  C17 UNL     1      24.466  -0.364  53.909  1.00  0.00    -0.038 C 
HETATM   19  C18 UNL     1      25.265   0.702  53.882  1.00  0.00     0.081 C 
HETATM   20  C19 UNL     1      26.053   1.920  53.673  1.00  0.00     0.265 C 
HETATM   21  O1  UNL     1      26.991   2.435  54.324  1.00  0.00    -0.266 OA
HETATM   22  N3  UNL     1      25.700   2.702  52.533  1.00  0.00    -0.225 N 
HETATM   23  O2  UNL     1      25.329   3.529  51.330  1.00  0.00    -0.235 OA
HETATM   24  C20 UNL     1      23.463  -0.768  52.871  1.00  0.00     0.075 C 
HETATM   25  H10 UNL     1      17.864   0.964  52.375  1.00  0.00     0.165 HD
HETATM   26  H19 UNL     1      26.231   3.608  52.455  1.00  0.00     0.198 HD
ENDROOT
BRANCH  17  27
HETATM   27  N2  UNL     1      25.202  -1.118  56.120  1.00  0.00     0.087 N 
HETATM   28  H16 UNL     1      25.685  -0.184  56.011  1.00  0.00     0.313 HD
HETATM   29  H17 UNL     1      26.006  -1.814  56.083  1.00  0.00     0.313 HD
ENDBRANCH  17  27
TORSDOF 1
ENDMDL
MODEL 5
REMARK VINA RESULT:      -8.6      2.368      3.917
REMARK  1 active torsions:
REMARK  status: ('A' for Active; 'I' for Inactive)
REMARK    1  A    between atoms: C16_17  and  N2_18 
ROOT
HETATM    1  C1  UNL     1      23.449   4.710  52.331  1.00  0.00     0.052 C 
HETATM    2  C2  UNL     1      24.430   3.979  51.444  1.00  0.00    -0.019 A 
HETATM    3  C3  UNL     1      24.848   4.644  50.269  1.00  0.00     0.105 A 
HETATM    4  C4  UNL     1      25.893   4.175  49.513  1.00  0.00     0.040 A 
HETATM    5  C5  UNL     1      26.477   3.023  49.981  1.00  0.00     0.003 A 
HETATM    6  C6  UNL     1      26.036   2.396  51.125  1.00  0.00     0.009 A 
HETATM    7  C7  UNL     1      24.998   2.812  51.929  1.00  0.00    -0.035 A 
HETATM    8  C8  UNL     1      24.512   2.065  53.072  1.00  0.00     0.103 A 
HETATM    9  C9  UNL     1      25.566   1.166  53.598  1.00  0.00     0.012 A 
HETATM   10  C10 UNL     1      26.838   1.289  54.002  1.00  0.00     0.039 C 
HETATM   11  N1  UNL     1      25.051  -0.160  53.638  1.00  0.00    -0.368 N 
HETATM   12  C11 UNL     1      23.735  -0.155  53.140  1.00  0.00     0.096 A 
HETATM   13  C12 UNL     1      23.400   1.107  52.801  1.00  0.00    -0.022 A 
HETATM   14  C13 UNL     1      22.045   1.323  52.232  1.00  0.00    -0.049 C 
HETATM   15  C14 UNL     1      21.462   0.392  51.432  1.00  0.00    -0.016 C 
HETATM   16  C15 UNL     1      20.020   0.237  51.081  1.00  0.00     0.067 C 
HETATM   17  C16 UNL     1      19.332   1.562  50.799  1.00  0.00     0.250 C 
HETATM   18  C17 UNL     1      20.478   2.565  50.922  1.00  0.00    -0.038 C 
HETATM   19  C18 UNL     1      20.898   3.434  50.004  1.00  0.00     0.081 C 
HETATM   20  C19 UNL     1      21.502   4.447  49.133  1.00  0.00     0.265 C 
HETATM   21  O1  UNL     1      21.198   4.861  47.990  1.00  0.00    -0.266 OA
HETATM   22  N3  UNL     1      22.670   5.089  49.642  1.00  0.00    -0.225 N 
HETATM   23  O2  UNL     1      23.904   5.769  50.177  1.00  0.00    -0.235 OA
HETATM   24  C20 UNL     1      21.028   2.372  52.303  1.00  0.00     0.075 C 
HETATM   25  H10 UNL     1      25.517  -1.044  53.969  1.00  0.00     0.165 HD
HETATM   26  H19 UNL     1      23.124   5.753  48.961  1.00  0.00     0.198 HD
ENDROOT
BRANCH  17  27
HETATM   27  N2  UNL     1      18.783   1.543  49.479  1.00  0.00     0.087 N 
HETATM   28  H16 UNL     1      19.498   1.805  48.745  1.00  0.00     0.313 HD
HETATM   29  H17 UNL     1      18.098   2.358  49.451  1.00  0.00     0.313 HD
ENDBRANCH  17  27
TORSDOF 1
ENDMDL
MODEL 6
REMARK VINA RESULT:      -8.3      3.075      6.407
REMARK  1 active torsions:
REMARK  status: ('A' for Active; 'I' for Inactive)
REMARK    1  A    between atoms: C16_17  and  N2_18 
ROOT
HETATM    1  C1  UNL     1      20.855   3.647  51.518  1.00  0.00     0.052 C 
HETATM    2  C2  UNL     1      21.405   2.944  50.298  1.00  0.00    -0.019 A 
HETATM    3  C3  UNL     1      20.500   2.693  49.243  1.00  0.00     0.105 A 
HETATM    4  C4  UNL     1      20.933   2.267  48.013  1.00  0.00     0.040 A 
HETATM    5  C5  UNL     1      22.293   2.099  47.902  1.00  0.00     0.003 A 
HETATM    6  C6  UNL     1      23.144   2.344  48.957  1.00  0.00     0.009 A 
HETATM    7  C7  UNL     1      22.777   2.773  50.213  1.00  0.00    -0.035 A 
HETATM    8  C8  UNL     1      23.703   2.926  51.316  1.00  0.00     0.103 A 
HETATM    9  C9  UNL     1      25.085   3.129  50.819  1.00  0.00     0.012 A 
HETATM   10  C10 UNL     1      25.699   3.957  49.963  1.00  0.00     0.039 C 
HETATM   11  N1  UNL     1      25.928   2.148  51.412  1.00  0.00    -0.368 N 
HETATM   12  C11 UNL     1      25.151   1.317  52.240  1.00  0.00     0.096 A 
HETATM   13  C12 UNL     1      23.868   1.735  52.200  1.00  0.00    -0.022 A 
HETATM   14  C13 UNL     1      22.877   0.970  53.000  1.00  0.00    -0.049 C 
HETATM   15  C14 UNL     1      22.987  -0.376  53.153  1.00  0.00    -0.016 C 
HETATM   16  C15 UNL     1      22.353  -1.251  54.183  1.00  0.00     0.067 C 
HETATM   17  C16 UNL     1      20.904  -0.885  54.461  1.00  0.00     0.250 C 
HETATM   18  C17 UNL     1      20.648   0.243  53.464  1.00  0.00    -0.038 C 
HETATM   19  C18 UNL     1      19.706   0.297  52.524  1.00  0.00     0.081 C 
HETATM   20  C19 UNL     1      18.749   0.541  51.440  1.00  0.00     0.265 C 
HETATM   21  O1  UNL     1      17.760  -0.111  51.031  1.00  0.00    -0.266 OA
HETATM   22  N3  UNL     1      18.966   1.723  50.672  1.00  0.00    -0.225 N 
HETATM   23  O2  UNL     1      19.193   2.972  49.859  1.00  0.00    -0.235 OA
HETATM   24  C20 UNL     1      21.677   1.288  53.773  1.00  0.00     0.075 C 
HETATM   25  H10 UNL     1      26.964   2.006  51.298  1.00  0.00     0.165 HD
HETATM   26  H19 UNL     1      18.311   1.828  49.854  1.00  0.00     0.198 HD
ENDROOT
BRANCH  17  27
HETATM   27  N2  UNL     1      20.069  -2.017  54.207  1.00  0.00     0.087 N 
HETATM   28  H16 UNL     1      20.138  -2.745  54.973  1.00  0.00     0.313 HD
HETATM   29  H17 UNL     1      20.509  -2.504  53.369  1.00  0.00     0.313 HD
ENDBRANCH  17  27
TORSDOF 1
ENDMDL
MODEL 7
REMARK VINA RESULT:      -8.0      2.197      5.322
REMARK  1 active torsions:
REMARK  status: ('A' for Active; 'I' for Inactive)
REMARK    1  A    between atoms: C16_17  and  N2_18 
ROOT
HETATM    1  C1  UNL     1      23.944   3.091  49.081  1.00  0.00     0.052 C 
HETATM    2  C2  UNL     1      23.773   4.301  49.970  1.00  0.00    -0.019 A 
HETATM    3  C3  UNL     1      24.903   5.131  50.145  1.00  0.00     0.105 A 
HETATM    4  C4  UNL     1      24.803   6.362  50.742  1.00  0.00     0.040 A 
HETATM    5  C5  UNL     1      23.539   6.707  51.155  1.00  0.00     0.003 A 
HETATM    6  C6  UNL     1      22.462   5.867  50.978  1.00  0.00     0.009 A 
HETATM    7  C7  UNL     1      22.491   4.623  50.387  1.00  0.00    -0.035 A 
HETATM    8  C8  UNL     1      21.346   3.740  50.308  1.00  0.00     0.103 A 
HETATM    9  C9  UNL     1      20.082   4.509  50.394  1.00  0.00     0.012 A 
HETATM   10  C10 UNL     1      19.534   5.556  49.762  1.00  0.00     0.039 C 
HETATM   11  N1  UNL     1      19.298   3.974  51.455  1.00  0.00    -0.368 N 
HETATM   12  C11 UNL     1      20.009   2.923  52.064  1.00  0.00     0.096 A 
HETATM   13  C12 UNL     1      21.191   2.770  51.431  1.00  0.00    -0.022 A 
HETATM   14  C13 UNL     1      22.103   1.714  51.939  1.00  0.00    -0.049 C 
HETATM   15  C14 UNL     1      22.176   1.427  53.266  1.00  0.00    -0.016 C 
HETATM   16  C15 UNL     1      22.714   0.202  53.926  1.00  0.00     0.067 C 
HETATM   17  C16 UNL     1      23.999  -0.300  53.289  1.00  0.00     0.250 C 
HETATM   18  C17 UNL     1      24.275   0.756  52.221  1.00  0.00    -0.038 C 
HETATM   19  C18 UNL     1      25.371   1.502  52.080  1.00  0.00     0.081 C 
HETATM   20  C19 UNL     1      26.479   2.407  51.764  1.00  0.00     0.265 C 
HETATM   21  O1  UNL     1      27.620   2.543  52.263  1.00  0.00    -0.266 OA
HETATM   22  N3  UNL     1      26.243   3.335  50.706  1.00  0.00    -0.225 N 
HETATM   23  O2  UNL     1      25.995   4.316  49.590  1.00  0.00    -0.235 OA
HETATM   24  C20 UNL     1      23.054   0.771  51.352  1.00  0.00     0.075 C 
HETATM   25  H10 UNL     1      18.343   4.264  51.787  1.00  0.00     0.165 HD
HETATM   26  H19 UNL     1      27.027   4.021  50.556  1.00  0.00     0.198 HD
ENDROOT
BRANCH  17  27
HETATM   27  N2  UNL     1      25.035  -0.342  54.274  1.00  0.00     0.087 N 
HETATM   28  H16 UNL     1      24.676  -0.110  55.241  1.00  0.00     0.313 HD
HETATM   29  H17 UNL     1      25.669   0.482  54.046  1.00  0.00     0.313 HD
ENDBRANCH  17  27
TORSDOF 1
ENDMDL
MODEL 8
REMARK VINA RESULT:      -7.8      3.048      6.801
REMARK  1 active torsions:
REMARK  status: ('A' for Active; 'I' for Inactive)
REMARK    1  A    between atoms: C16_17  and  N2_18 
ROOT
HETATM    1  C1  UNL     1      22.615   6.034  51.587  1.00  0.00     0.052 C 
HETATM    2  C2  UNL     1      22.586   5.619  50.134  1.00  0.00    -0.019 A 
HETATM    3  C3  UNL     1      21.329   5.635  49.489  1.00  0.00     0.105 A 
HETATM    4  C4  UNL     1      21.219   5.495  48.129  1.00  0.00     0.040 A 
HETATM    5  C5  UNL     1      22.409   5.330  47.464  1.00  0.00     0.003 A 
HETATM    6  C6  UNL     1      23.616   5.307  48.127  1.00  0.00     0.009 A 
HETATM    7  C7  UNL     1      23.798   5.444  49.486  1.00  0.00    -0.035 A 
HETATM    8  C8  UNL     1      25.082   5.320  50.145  1.00  0.00     0.103 A 
HETATM    9  C9  UNL     1      26.188   5.604  49.199  1.00  0.00     0.012 A 
HETATM   10  C10 UNL     1      26.521   6.594  48.360  1.00  0.00     0.039 C 
HETATM   11  N1  UNL     1      27.081   4.496  49.203  1.00  0.00    -0.368 N 
HETATM   12  C11 UNL     1      26.587   3.512  50.080  1.00  0.00     0.096 A 
HETATM   13  C12 UNL     1      25.437   3.954  50.631  1.00  0.00    -0.022 A 
HETATM   14  C13 UNL     1      24.744   3.047  51.580  1.00  0.00    -0.049 C 
HETATM   15  C14 UNL     1      24.757   1.700  51.400  1.00  0.00    -0.016 C 
HETATM   16  C15 UNL     1      24.466   0.625  52.394  1.00  0.00     0.067 C 
HETATM   17  C16 UNL     1      23.278   0.946  53.285  1.00  0.00     0.250 C 
HETATM   18  C17 UNL     1      22.789   2.278  52.720  1.00  0.00    -0.038 C 
HETATM   19  C18 UNL     1      21.574   2.566  52.256  1.00  0.00     0.081 C 
HETATM   20  C19 UNL     1      20.312   3.072  51.707  1.00  0.00     0.265 C 
HETATM   21  O1  UNL     1      19.178   2.552  51.594  1.00  0.00    -0.266 OA
HETATM   22  N3  UNL     1      20.350   4.395  51.174  1.00  0.00    -0.225 N 
HETATM   23  O2  UNL     1      20.389   5.791  50.611  1.00  0.00    -0.235 OA
HETATM   24  C20 UNL     1      23.965   3.203  52.808  1.00  0.00     0.075 C 
HETATM   25  H10 UNL     1      27.976   4.362  48.665  1.00  0.00     0.165 HD
HETATM   26  H19 UNL     1      19.451   4.698  50.718  1.00  0.00     0.198 HD
ENDROOT
BRANCH  17  27
HETATM   27  N2  UNL     1      22.291  -0.081  53.153  1.00  0.00     0.087 N 
HETATM   28  H16 UNL     1      22.167  -0.633  54.047  1.00  0.00     0.313 HD
HETATM   29  H17 UNL     1      22.718  -0.792  52.486  1.00  0.00     0.313 HD
ENDBRANCH  17  27
TORSDOF 1
ENDMDL
MODEL 9
REMARK VINA RESULT:      -7.7     10.604     12.677
REMARK  1 active torsions:
REMARK  status: ('A' for Active; 'I' for Inactive)
REMARK    1  A    between atoms: C16_17  and  N2_18 
ROOT
HETATM    1  C1  UNL     1      31.141   7.688  44.835  1.00  0.00     0.052 C 
HETATM    2  C2  UNL     1      32.097   8.665  45.481  1.00  0.00    -0.019 A 
HETATM    3  C3  UNL     1      32.898   9.443  44.615  1.00  0.00     0.105 A 
HETATM    4  C4  UNL     1      33.630  10.507  45.079  1.00  0.00     0.040 A 
HETATM    5  C5  UNL     1      33.528  10.738  46.429  1.00  0.00     0.003 A 
HETATM    6  C6  UNL     1      32.746   9.951  47.245  1.00  0.00     0.009 A 
HETATM    7  C7  UNL     1      31.986   8.873  46.847  1.00  0.00    -0.035 A 
HETATM    8  C8  UNL     1      31.253   8.020  47.760  1.00  0.00     0.103 A 
HETATM    9  C9  UNL     1      30.948   8.739  49.020  1.00  0.00     0.012 A 
HETATM   10  C10 UNL     1      30.368   9.896  49.364  1.00  0.00     0.039 C 
HETATM   11  N1  UNL     1      31.446   7.971  50.110  1.00  0.00    -0.368 N 
HETATM   12  C11 UNL     1      32.074   6.816  49.608  1.00  0.00     0.096 A 
HETATM   13  C12 UNL     1      31.985   6.820  48.262  1.00  0.00    -0.022 A 
HETATM   14  C13 UNL     1      32.608   5.685  47.535  1.00  0.00    -0.049 C 
HETATM   15  C14 UNL     1      33.753   5.106  47.985  1.00  0.00    -0.016 C 
HETATM   16  C15 UNL     1      34.318   3.768  47.642  1.00  0.00     0.067 C 
HETATM   17  C16 UNL     1      34.199   3.435  46.164  1.00  0.00     0.250 C 
HETATM   18  C17 UNL     1      33.585   4.707  45.584  1.00  0.00    -0.038 C 
HETATM   19  C18 UNL     1      34.075   5.475  44.611  1.00  0.00     0.081 C 
HETATM   20  C19 UNL     1      34.447   6.438  43.571  1.00  0.00     0.265 C 
HETATM   21  O1  UNL     1      35.399   6.468  42.757  1.00  0.00    -0.266 OA
HETATM   22  N3  UNL     1      33.600   7.580  43.447  1.00  0.00    -0.225 N 
HETATM   23  O2  UNL     1      32.706   8.785  43.314  1.00  0.00    -0.235 OA
HETATM   24  C20 UNL     1      32.303   4.908  46.334  1.00  0.00     0.075 C 
HETATM   25  H10 UNL     1      31.392   8.170  51.142  1.00  0.00     0.165 HD
HETATM   26  H19 UNL     1      33.938   8.289  42.745  1.00  0.00     0.198 HD
ENDROOT
BRANCH  17  27
HETATM   27  N2  UNL     1      35.499   3.180  45.626  1.00  0.00     0.087 N 
HETATM   28  H16 UNL     1      36.223   3.859  45.993  1.00  0.00     0.313 HD
HETATM   29  H17 UNL     1      35.428   3.435  44.595  1.00  0.00     0.313 HD
ENDBRANCH  17  27
TORSDOF 1
ENDMDL
