MODEL 1
REMARK VINA RESULT:      -8.4      0.000      0.000
REMARK  3 active torsions:
REMARK  status: ('A' for Active; 'I' for Inactive)
REMARK    1  A    between atoms: C2_2  and  C4_5 
REMARK    2  A    between atoms: C12_16  and  N3_17 
REMARK    3  A    between atoms: N3_17  and  C13_18 
ROOT
HETATM    1  C4  UNL     1      22.569   0.236  53.494  1.00  0.00     0.016 C 
HETATM    2  C5  UNL     1      23.525  -0.609  53.993  1.00  0.00     0.089 C 
HETATM    3  C6  UNL     1      25.004  -0.289  54.036  1.00  0.00    -0.034 C 
HETATM    4  C7  UNL     1      25.923   0.361  54.838  1.00  0.00     0.141 C 
HETATM    5  O2  UNL     1      26.510   1.609  54.488  1.00  0.00    -0.346 OA
HETATM    6  C8  UNL     1      26.304   2.416  53.327  1.00  0.00     0.220 C 
HETATM    7  C9  UNL     1      24.909   2.985  53.315  1.00  0.00     0.152 C 
HETATM    8  N1  UNL     1      24.021   2.263  52.781  1.00  0.00    -0.164 NA
HETATM    9  N2  UNL     1      22.694   2.367  52.562  1.00  0.00    -0.167 NA
HETATM   10  C10 UNL     1      21.831   1.407  52.877  1.00  0.00     0.124 C 
HETATM   11  C11 UNL     1      26.431   1.508  52.165  1.00  0.00     0.055 C 
HETATM   12  C12 UNL     1      26.630   2.104  51.000  1.00  0.00     0.111 C 
HETATM   13  N4  UNL     1      26.386   0.070  52.039  1.00  0.00    -0.386 N 
HETATM   14  C17 UNL     1      25.644  -0.849  52.832  1.00  0.00     0.156 C 
HETATM   15  H17 UNL     1      26.948  -0.391  51.288  1.00  0.00     0.159 HD
ENDROOT
BRANCH  12  16
HETATM   16  N3  UNL     1      26.748   3.469  50.638  1.00  0.00    -0.389 N 
HETATM   17  H12 UNL     1      27.098   4.071  51.429  1.00  0.00     0.159 HD
BRANCH  16  18
HETATM   18  C13 UNL     1      26.448   4.090  49.355  1.00  0.00     0.113 A 
HETATM   19  C14 UNL     1      27.547   4.773  48.706  1.00  0.00     0.036 A 
HETATM   20  C15 UNL     1      27.029   5.952  48.868  1.00  0.00     0.094 A 
HETATM   21  F1  UNL     1      27.201   7.287  48.648  1.00  0.00    -0.211 F 
HETATM   22  C16 UNL     1      25.852   5.443  49.542  1.00  0.00     0.099 A 
ENDBRANCH  16  18
ENDBRANCH  12  16
BRANCH   1  23
HETATM   23  C2  UNL     1      21.656  -0.876  53.876  1.00  0.00    -0.066 A 
HETATM   24  C1  UNL     1      21.853  -1.809  54.821  1.00  0.00     0.039 A 
HETATM   25  O1  UNL     1      20.614  -1.741  53.956  1.00  0.00     0.000 OA
HETATM   26  C3  UNL     1      19.267  -1.408  53.672  1.00  0.00     0.000 C 
ENDBRANCH   1  23
TORSDOF 3
ENDMDL
MODEL 2
REMARK VINA RESULT:      -8.1      3.268      4.794
REMARK  3 active torsions:
REMARK  status: ('A' for Active; 'I' for Inactive)
REMARK    1  A    between atoms: C2_2  and  C4_5 
REMARK    2  A    between atoms: C12_16  and  N3_17 
REMARK    3  A    between atoms: N3_17  and  C13_18 
ROOT
HETATM    1  C4  UNL     1      23.100   0.071  53.151  1.00  0.00     0.016 C 
HETATM    2  C5  UNL     1      22.739   1.328  52.743  1.00  0.00     0.089 C 
HETATM    3  C6  UNL     1      23.702   2.342  52.163  1.00  0.00    -0.034 C 
HETATM    4  C7  UNL     1      24.269   2.691  50.951  1.00  0.00     0.141 C 
HETATM    5  O2  UNL     1      25.635   2.449  50.637  1.00  0.00    -0.346 OA
HETATM    6  C8  UNL     1      26.656   1.840  51.431  1.00  0.00     0.220 C 
HETATM    7  C9  UNL     1      26.367   0.376  51.636  1.00  0.00     0.152 C 
HETATM    8  N1  UNL     1      25.639   0.087  52.627  1.00  0.00    -0.164 NA
HETATM    9  N2  UNL     1      25.143  -1.046  53.165  1.00  0.00    -0.167 NA
HETATM   10  C10 UNL     1      23.863  -1.196  53.483  1.00  0.00     0.124 C 
HETATM   11  C11 UNL     1      26.598   2.500  52.755  1.00  0.00     0.055 C 
HETATM   12  C12 UNL     1      27.672   2.343  53.513  1.00  0.00     0.111 C 
HETATM   13  N4  UNL     1      25.589   3.304  53.404  1.00  0.00    -0.386 N 
HETATM   14  C17 UNL     1      24.178   3.217  53.249  1.00  0.00     0.156 C 
HETATM   15  H17 UNL     1      25.887   4.047  54.076  1.00  0.00     0.159 HD
ENDROOT
BRANCH  12  16
HETATM   16  N3  UNL     1      28.892   1.652  53.302  1.00  0.00    -0.389 N 
HETATM   17  H12 UNL     1      29.394   1.968  52.430  1.00  0.00     0.159 HD
BRANCH  16  18
HETATM   18  C13 UNL     1      29.488   0.606  54.121  1.00  0.00     0.113 A 
HETATM   19  C14 UNL     1      30.306  -0.362  53.422  1.00  0.00     0.036 A 
HETATM   20  C15 UNL     1      29.473  -1.339  53.610  1.00  0.00     0.094 A 
HETATM   21  F1  UNL     1      29.235  -2.663  53.385  1.00  0.00    -0.211 F 
HETATM   22  C16 UNL     1      28.529  -0.514  54.338  1.00  0.00     0.099 A 
ENDBRANCH  16  18
ENDBRANCH  12  16
BRANCH   1  23
HETATM   23  C2  UNL     1      21.651  -0.033  53.481  1.00  0.00    -0.066 A 
HETATM   24  C1  UNL     1      21.064   0.192  54.666  1.00  0.00     0.039 A 
HETATM   25  O1  UNL     1      20.310  -0.222  53.422  1.00  0.00     0.000 OA
HETATM   26  C3  UNL     1      19.514   0.004  52.273  1.00  0.00     0.000 C 
ENDBRANCH   1  23
TORSDOF 3
ENDMDL
MODEL 3
REMARK VINA RESULT:      -7.6      2.624      4.851
REMARK  3 active torsions:
REMARK  status: ('A' for Active; 'I' for Inactive)
REMARK    1  A    between atoms: C2_2  and  C4_5 
REMARK    2  A    between atoms: C12_16  and  N3_17 
REMARK    3  A    between atoms: N3_17  and  C13_18 
ROOT
HETATM    1  C4  UNL     1      25.482   2.196  52.156  1.00  0.00     0.016 C 
HETATM    2  C5  UNL     1      24.229   2.483  52.629  1.00  0.00     0.089 C 
HETATM    3  C6  UNL     1      23.342   3.579  52.077  1.00  0.00    -0.034 C 
HETATM    4  C7  UNL     1      22.426   3.790  51.064  1.00  0.00     0.141 C 
HETATM    5  O2  UNL     1      22.709   4.583  49.917  1.00  0.00    -0.346 OA
HETATM    6  C8  UNL     1      23.904   5.288  49.572  1.00  0.00     0.220 C 
HETATM    7  C9  UNL     1      25.021   4.324  49.272  1.00  0.00     0.152 C 
HETATM    8  N1  UNL     1      25.712   3.950  50.260  1.00  0.00    -0.164 NA
HETATM    9  N2  UNL     1      26.764   3.127  50.450  1.00  0.00    -0.167 NA
HETATM   10  C10 UNL     1      26.785   2.182  51.383  1.00  0.00     0.124 C 
HETATM   11  C11 UNL     1      24.287   6.064  50.773  1.00  0.00     0.055 C 
HETATM   12  C12 UNL     1      25.146   7.048  50.561  1.00  0.00     0.111 C 
HETATM   13  N4  UNL     1      23.904   5.968  52.162  1.00  0.00    -0.386 N 
HETATM   14  C17 UNL     1      23.538   4.798  52.883  1.00  0.00     0.156 C 
HETATM   15  H17 UNL     1      23.881   6.837  52.743  1.00  0.00     0.159 HD
ENDROOT
BRANCH  12  16
HETATM   16  N3  UNL     1      25.785   7.516  49.384  1.00  0.00    -0.389 N 
HETATM   17  H12 UNL     1      25.102   7.748  48.615  1.00  0.00     0.159 HD
BRANCH  16  18
HETATM   18  C13 UNL     1      27.209   7.695  49.144  1.00  0.00     0.113 A 
HETATM   19  C14 UNL     1      27.567   8.654  48.120  1.00  0.00     0.036 A 
HETATM   20  C15 UNL     1      28.020   7.752  47.305  1.00  0.00     0.094 A 
HETATM   21  F1  UNL     1      28.584   7.534  46.082  1.00  0.00    -0.211 F 
HETATM   22  C16 UNL     1      27.729   6.657  48.209  1.00  0.00     0.099 A 
ENDBRANCH  16  18
ENDBRANCH  12  16
BRANCH   1  23
HETATM   23  C2  UNL     1      25.438   1.154  53.219  1.00  0.00    -0.066 A 
HETATM   24  C1  UNL     1      24.561   0.145  53.340  1.00  0.00     0.039 A 
HETATM   25  O1  UNL     1      25.694   0.392  54.311  1.00  0.00     0.000 OA
HETATM   26  C3  UNL     1      26.982   0.174  54.857  1.00  0.00     0.000 C 
ENDBRANCH   1  23
TORSDOF 3
ENDMDL
MODEL 4
REMARK VINA RESULT:      -7.6      5.091      8.466
REMARK  3 active torsions:
REMARK  status: ('A' for Active; 'I' for Inactive)
REMARK    1  A    between atoms: C2_2  and  C4_5 
REMARK    2  A    between atoms: C12_16  and  N3_17 
REMARK    3  A    between atoms: N3_17  and  C13_18 
ROOT
HETATM    1  C4  UNL     1      26.584   5.815  49.030  1.00  0.00     0.016 C 
HETATM    2  C5  UNL     1      25.969   7.030  49.179  1.00  0.00     0.089 C 
HETATM    3  C6  UNL     1      26.616   8.357  48.845  1.00  0.00    -0.034 C 
HETATM    4  C7  UNL     1      26.820   9.193  47.763  1.00  0.00     0.141 C 
HETATM    5  O2  UNL     1      28.090   9.361  47.143  1.00  0.00    -0.346 OA
HETATM    6  C8  UNL     1      29.345   8.757  47.464  1.00  0.00     0.220 C 
HETATM    7  C9  UNL     1      29.315   7.280  47.170  1.00  0.00     0.152 C 
HETATM    8  N1  UNL     1      28.895   6.537  48.101  1.00  0.00    -0.164 NA
HETATM    9  N2  UNL     1      28.701   5.213  48.270  1.00  0.00    -0.167 NA
HETATM   10  C10 UNL     1      27.568   4.700  48.736  1.00  0.00     0.124 C 
HETATM   11  C11 UNL     1      29.521   8.923  48.924  1.00  0.00     0.055 C 
HETATM   12  C12 UNL     1      30.758   8.758  49.368  1.00  0.00     0.111 C 
HETATM   13  N4  UNL     1      28.600   9.239  49.991  1.00  0.00    -0.386 N 
HETATM   14  C17 UNL     1      27.219   8.911  50.071  1.00  0.00     0.156 C 
HETATM   15  H17 UNL     1      28.949   9.769  50.822  1.00  0.00     0.159 HD
ENDROOT
BRANCH  12  16
HETATM   16  N3  UNL     1      31.972   8.448  48.705  1.00  0.00    -0.389 N 
HETATM   17  H12 UNL     1      32.239   9.170  47.984  1.00  0.00     0.159 HD
BRANCH  16  18
HETATM   18  C13 UNL     1      32.839   7.296  48.906  1.00  0.00     0.113 A 
HETATM   19  C14 UNL     1      33.025   6.431  47.760  1.00  0.00     0.036 A 
HETATM   20  C15 UNL     1      32.371   5.442  48.285  1.00  0.00     0.094 A 
HETATM   21  F1  UNL     1      31.937   4.163  48.093  1.00  0.00    -0.211 F 
HETATM   22  C16 UNL     1      32.086   6.160  49.511  1.00  0.00     0.099 A 
ENDBRANCH  16  18
ENDBRANCH  12  16
BRANCH   1  23
HETATM   23  C2  UNL     1      25.286   5.306  49.554  1.00  0.00    -0.066 A 
HETATM   24  C1  UNL     1      24.089   5.340  48.947  1.00  0.00     0.039 A 
HETATM   25  O1  UNL     1      24.315   4.753  50.322  1.00  0.00     0.000 OA
HETATM   26  C3  UNL     1      24.522   3.699  51.246  1.00  0.00     0.000 C 
ENDBRANCH   1  23
TORSDOF 3
ENDMDL
MODEL 5
REMARK VINA RESULT:      -7.3      2.555      4.644
REMARK  3 active torsions:
REMARK  status: ('A' for Active; 'I' for Inactive)
REMARK    1  A    between atoms: C2_2  and  C4_5 
REMARK    2  A    between atoms: C12_16  and  N3_17 
REMARK    3  A    between atoms: N3_17  and  C13_18 
ROOT
HETATM    1  C4  UNL     1      25.680   1.436  52.024  1.00  0.00     0.016 C 
HETATM    2  C5  UNL     1      24.453   0.945  52.384  1.00  0.00     0.089 C 
HETATM    3  C6  UNL     1      23.141   1.422  51.798  1.00  0.00    -0.034 C 
HETATM    4  C7  UNL     1      22.321   1.188  50.710  1.00  0.00     0.141 C 
HETATM    5  O2  UNL     1      22.182   2.107  49.633  1.00  0.00    -0.346 OA
HETATM    6  C8  UNL     1      22.805   3.379  49.438  1.00  0.00     0.220 C 
HETATM    7  C9  UNL     1      24.284   3.217  49.206  1.00  0.00     0.152 C 
HETATM    8  N1  UNL     1      25.009   3.194  50.240  1.00  0.00    -0.164 NA
HETATM    9  N2  UNL     1      26.328   3.068  50.494  1.00  0.00    -0.167 NA
HETATM   10  C10 UNL     1      26.815   2.208  51.381  1.00  0.00     0.124 C 
HETATM   11  C11 UNL     1      22.626   4.124  50.704  1.00  0.00     0.055 C 
HETATM   12  C12 UNL     1      22.807   5.433  50.621  1.00  0.00     0.111 C 
HETATM   13  N4  UNL     1      22.282   3.708  52.044  1.00  0.00    -0.386 N 
HETATM   14  C17 UNL     1      22.585   2.469  52.673  1.00  0.00     0.156 C 
HETATM   15  H17 UNL     1      21.750   4.366  52.658  1.00  0.00     0.159 HD
ENDROOT
BRANCH  12  16
HETATM   16  N3  UNL     1      23.146   6.279  49.535  1.00  0.00    -0.389 N 
HETATM   17  H12 UNL     1      22.433   6.251  48.760  1.00  0.00     0.159 HD
BRANCH  16  18
HETATM   18  C13 UNL     1      24.316   7.134  49.390  1.00  0.00     0.113 A 
HETATM   19  C14 UNL     1      25.156   6.874  48.240  1.00  0.00     0.036 A 
HETATM   20  C15 UNL     1      26.148   6.431  48.949  1.00  0.00     0.094 A 
HETATM   21  F1  UNL     1      27.415   5.928  48.905  1.00  0.00    -0.211 F 
HETATM   22  C16 UNL     1      25.454   6.624  50.207  1.00  0.00     0.099 A 
ENDBRANCH  16  18
ENDBRANCH  12  16
BRANCH   1  23
HETATM   23  C2  UNL     1      26.161   0.448  53.029  1.00  0.00    -0.066 A 
HETATM   24  C1  UNL     1      25.895  -0.867  53.076  1.00  0.00     0.039 A 
HETATM   25  O1  UNL     1      26.763  -0.151  54.086  1.00  0.00     0.000 OA
HETATM   26  C3  UNL     1      27.994   0.262  54.651  1.00  0.00     0.000 C 
ENDBRANCH   1  23
TORSDOF 3
ENDMDL
MODEL 6
REMARK VINA RESULT:      -7.2      4.229      7.114
REMARK  3 active torsions:
REMARK  status: ('A' for Active; 'I' for Inactive)
REMARK    1  A    between atoms: C2_2  and  C4_5 
REMARK    2  A    between atoms: C12_16  and  N3_17 
REMARK    3  A    between atoms: N3_17  and  C13_18 
ROOT
HETATM    1  C4  UNL     1      24.040   0.229  53.034  1.00  0.00     0.016 C 
HETATM    2  C5  UNL     1      24.560   1.366  52.473  1.00  0.00     0.089 C 
HETATM    3  C6  UNL     1      23.724   2.492  51.905  1.00  0.00    -0.034 C 
HETATM    4  C7  UNL     1      23.070   3.638  52.318  1.00  0.00     0.141 C 
HETATM    5  O2  UNL     1      21.652   3.735  52.393  1.00  0.00    -0.346 OA
HETATM    6  C8  UNL     1      20.657   2.756  52.087  1.00  0.00     0.220 C 
HETATM    7  C9  UNL     1      20.704   1.621  53.075  1.00  0.00     0.152 C 
HETATM    8  N1  UNL     1      21.496   0.677  52.799  1.00  0.00    -0.164 NA
HETATM    9  N2  UNL     1      21.851  -0.489  53.377  1.00  0.00    -0.167 NA
HETATM   10  C10 UNL     1      23.116  -0.850  53.562  1.00  0.00     0.124 C 
HETATM   11  C11 UNL     1      21.009   2.211  50.756  1.00  0.00     0.055 C 
HETATM   12  C12 UNL     1      20.038   1.562  50.134  1.00  0.00     0.111 C 
HETATM   13  N4  UNL     1      22.225   2.246  49.976  1.00  0.00    -0.386 N 
HETATM   14  C17 UNL     1      23.563   2.277  50.455  1.00  0.00     0.156 C 
HETATM   15  H17 UNL     1      22.157   2.248  48.933  1.00  0.00     0.159 HD
ENDROOT
BRANCH  12  16
HETATM   16  N3  UNL     1      18.697   1.280  50.499  1.00  0.00    -0.389 N 
HETATM   17  H12 UNL     1      18.140   2.151  50.707  1.00  0.00     0.159 HD
BRANCH  16  18
HETATM   18  C13 UNL     1      18.049  -0.019  50.613  1.00  0.00     0.113 A 
HETATM   19  C14 UNL     1      16.603  -0.005  50.676  1.00  0.00     0.036 A 
HETATM   20  C15 UNL     1      16.562  -0.400  51.911  1.00  0.00     0.094 A 
HETATM   21  F1  UNL     1      15.744  -0.717  52.956  1.00  0.00    -0.211 F 
HETATM   22  C16 UNL     1      18.004  -0.472  52.032  1.00  0.00     0.099 A 
ENDBRANCH  16  18
ENDBRANCH  12  16
BRANCH   1  23
HETATM   23  C2  UNL     1      25.478  -0.112  53.217  1.00  0.00    -0.066 A 
HETATM   24  C1  UNL     1      26.357  -0.484  52.273  1.00  0.00     0.039 A 
HETATM   25  O1  UNL     1      26.707  -0.349  53.738  1.00  0.00     0.000 OA
HETATM   26  C3  UNL     1      27.242   0.311  54.871  1.00  0.00     0.000 C 
ENDBRANCH   1  23
TORSDOF 3
ENDMDL
MODEL 7
REMARK VINA RESULT:      -7.0      2.495      4.889
REMARK  3 active torsions:
REMARK  status: ('A' for Active; 'I' for Inactive)
REMARK    1  A    between atoms: C2_2  and  C4_5 
REMARK    2  A    between atoms: C12_16  and  N3_17 
REMARK    3  A    between atoms: N3_17  and  C13_18 
ROOT
HETATM    1  C4  UNL     1      24.783   0.932  53.123  1.00  0.00     0.016 C 
HETATM    2  C5  UNL     1      23.849  -0.002  53.486  1.00  0.00     0.089 C 
HETATM    3  C6  UNL     1      22.443  -0.060  52.927  1.00  0.00    -0.034 C 
HETATM    4  C7  UNL     1      21.756  -0.575  51.843  1.00  0.00     0.141 C 
HETATM    5  O2  UNL     1      21.251   0.238  50.790  1.00  0.00    -0.346 OA
HETATM    6  C8  UNL     1      21.330   1.654  50.618  1.00  0.00     0.220 C 
HETATM    7  C9  UNL     1      22.751   2.082  50.364  1.00  0.00     0.152 C 
HETATM    8  N1  UNL     1      23.449   2.323  51.389  1.00  0.00    -0.164 NA
HETATM    9  N2  UNL     1      24.719   2.713  51.624  1.00  0.00    -0.167 NA
HETATM   10  C10 UNL     1      25.518   2.094  52.486  1.00  0.00     0.124 C 
HETATM   11  C11 UNL     1      20.901   2.251  51.903  1.00  0.00     0.055 C 
HETATM   12  C12 UNL     1      20.561   3.529  51.849  1.00  0.00     0.111 C 
HETATM   13  N4  UNL     1      20.772   1.711  53.237  1.00  0.00    -0.386 N 
HETATM   14  C17 UNL     1      21.543   0.675  53.833  1.00  0.00     0.156 C 
HETATM   15  H17 UNL     1      20.039   2.101  53.872  1.00  0.00     0.159 HD
ENDROOT
BRANCH  12  16
HETATM   16  N3  UNL     1      20.524   4.459  50.779  1.00  0.00    -0.389 N 
HETATM   17  H12 UNL     1      19.869   4.166  50.007  1.00  0.00     0.159 HD
BRANCH  16  18
HETATM   18  C13 UNL     1      21.262   5.707  50.645  1.00  0.00     0.113 A 
HETATM   19  C14 UNL     1      22.259   5.748  49.596  1.00  0.00     0.036 A 
HETATM   20  C15 UNL     1      23.259   5.790  50.422  1.00  0.00     0.094 A 
HETATM   21  F1  UNL     1      24.617   5.847  50.529  1.00  0.00    -0.211 F 
HETATM   22  C16 UNL     1      22.409   5.754  51.596  1.00  0.00     0.099 A 
ENDBRANCH  16  18
ENDBRANCH  12  16
BRANCH   1  23
HETATM   23  C2  UNL     1      25.628   0.189  54.099  1.00  0.00    -0.066 A 
HETATM   24  C1  UNL     1      25.290  -0.892  54.818  1.00  0.00     0.039 A 
HETATM   25  O1  UNL     1      26.646  -0.227  54.893  1.00  0.00     0.000 OA
HETATM   26  C3  UNL     1      28.020  -0.084  54.582  1.00  0.00     0.000 C 
ENDBRANCH   1  23
TORSDOF 3
ENDMDL
MODEL 8
REMARK VINA RESULT:      -6.9      2.308      3.623
REMARK  3 active torsions:
REMARK  status: ('A' for Active; 'I' for Inactive)
REMARK    1  A    between atoms: C2_2  and  C4_5 
REMARK    2  A    between atoms: C12_16  and  N3_17 
REMARK    3  A    between atoms: N3_17  and  C13_18 
ROOT
HETATM    1  C4  UNL     1      23.797   0.626  53.107  1.00  0.00     0.016 C 
HETATM    2  C5  UNL     1      22.589   0.586  52.462  1.00  0.00     0.089 C 
HETATM    3  C6  UNL     1      22.198   1.512  51.331  1.00  0.00    -0.034 C 
HETATM    4  C7  UNL     1      22.323   1.617  49.958  1.00  0.00     0.141 C 
HETATM    5  O2  UNL     1      23.181   2.563  49.329  1.00  0.00    -0.346 OA
HETATM    6  C8  UNL     1      24.042   3.540  49.917  1.00  0.00     0.220 C 
HETATM    7  C9  UNL     1      25.183   2.877  50.643  1.00  0.00     0.152 C 
HETATM    8  N1  UNL     1      24.969   2.566  51.848  1.00  0.00    -0.164 NA
HETATM    9  N2  UNL     1      25.674   1.977  52.835  1.00  0.00    -0.167 NA
HETATM   10  C10 UNL     1      25.200   0.972  53.563  1.00  0.00     0.124 C 
HETATM   11  C11 UNL     1      23.225   4.258  50.922  1.00  0.00     0.055 C 
HETATM   12  C12 UNL     1      23.714   5.422  51.322  1.00  0.00     0.111 C 
HETATM   13  N4  UNL     1      21.972   3.945  51.569  1.00  0.00    -0.386 N 
HETATM   14  C17 UNL     1      21.460   2.658  51.891  1.00  0.00     0.156 C 
HETATM   15  H17 UNL     1      21.338   4.726  51.851  1.00  0.00     0.159 HD
ENDROOT
BRANCH  12  16
HETATM   16  N3  UNL     1      24.890   6.131  50.969  1.00  0.00    -0.389 N 
HETATM   17  H12 UNL     1      25.760   5.713  51.394  1.00  0.00     0.159 HD
BRANCH  16  18
HETATM   18  C13 UNL     1      25.011   7.314  50.129  1.00  0.00     0.113 A 
HETATM   19  C14 UNL     1      24.714   7.130  48.725  1.00  0.00     0.036 A 
HETATM   20  C15 UNL     1      25.943   7.312  48.348  1.00  0.00     0.094 A 
HETATM   21  F1  UNL     1      26.787   7.361  47.278  1.00  0.00    -0.211 F 
HETATM   22  C16 UNL     1      26.422   7.522  49.699  1.00  0.00     0.099 A 
ENDBRANCH  16  18
ENDBRANCH  12  16
BRANCH   1  23
HETATM   23  C2  UNL     1      23.207  -0.501  53.882  1.00  0.00    -0.066 A 
HETATM   24  C1  UNL     1      23.738  -1.132  54.941  1.00  0.00     0.039 A 
HETATM   25  O1  UNL     1      22.396  -1.486  54.341  1.00  0.00     0.000 OA
HETATM   26  C3  UNL     1      20.982  -1.464  54.266  1.00  0.00     0.000 C 
ENDBRANCH   1  23
TORSDOF 3
ENDMDL
MODEL 9
REMARK VINA RESULT:      -6.8      2.509      3.205
REMARK  3 active torsions:
REMARK  status: ('A' for Active; 'I' for Inactive)
REMARK    1  A    between atoms: C2_2  and  C4_5 
REMARK    2  A    between atoms: C12_16  and  N3_17 
REMARK    3  A    between atoms: N3_17  and  C13_18 
ROOT
HETATM    1  C4  UNL     1      20.687   1.583  52.694  1.00  0.00     0.016 C 
HETATM    2  C5  UNL     1      21.937   1.053  52.877  1.00  0.00     0.089 C 
HETATM    3  C6  UNL     1      23.226   1.800  52.605  1.00  0.00    -0.034 C 
HETATM    4  C7  UNL     1      24.091   2.679  53.228  1.00  0.00     0.141 C 
HETATM    5  O2  UNL     1      24.191   4.053  52.869  1.00  0.00    -0.346 OA
HETATM    6  C8  UNL     1      23.480   4.784  51.867  1.00  0.00     0.220 C 
HETATM    7  C9  UNL     1      22.024   4.909  52.231  1.00  0.00     0.152 C 
HETATM    8  N1  UNL     1      21.275   3.965  51.855  1.00  0.00    -0.164 NA
HETATM    9  N2  UNL     1      19.962   3.670  51.960  1.00  0.00    -0.167 NA
HETATM   10  C10 UNL     1      19.516   2.491  52.376  1.00  0.00     0.124 C 
HETATM   11  C11 UNL     1      23.567   3.978  50.628  1.00  0.00     0.055 C 
HETATM   12  C12 UNL     1      23.291   4.628  49.508  1.00  0.00     0.111 C 
HETATM   13  N4  UNL     1      23.904   2.595  50.383  1.00  0.00    -0.386 N 
HETATM   14  C17 UNL     1      23.678   1.481  51.238  1.00  0.00     0.156 C 
HETATM   15  H17 UNL     1      24.368   2.338  49.482  1.00  0.00     0.159 HD
ENDROOT
BRANCH  12  16
HETATM   16  N3  UNL     1      22.920   5.974  49.257  1.00  0.00    -0.389 N 
HETATM   17  H12 UNL     1      21.886   6.140  49.377  1.00  0.00     0.159 HD
BRANCH  16  18
HETATM   18  C13 UNL     1      23.775   7.086  48.870  1.00  0.00     0.113 A 
HETATM   19  C14 UNL     1      25.191   6.799  48.779  1.00  0.00     0.036 A 
HETATM   20  C15 UNL     1      25.499   7.530  49.805  1.00  0.00     0.094 A 
HETATM   21  F1  UNL     1      26.518   7.973  50.596  1.00  0.00    -0.211 F 
HETATM   22  C16 UNL     1      24.126   7.927  50.050  1.00  0.00     0.099 A 
ENDBRANCH  16  18
ENDBRANCH  12  16
BRANCH   1  23
HETATM   23  C2  UNL     1      20.255   0.241  53.173  1.00  0.00    -0.066 A 
HETATM   24  C1  UNL     1      20.824  -0.510  54.129  1.00  0.00     0.039 A 
HETATM   25  O1  UNL     1      19.597  -0.932  53.352  1.00  0.00     0.000 OA
HETATM   26  C3  UNL     1      18.207  -1.114  53.155  1.00  0.00     0.000 C 
ENDBRANCH   1  23
TORSDOF 3
ENDMDL
