MODEL 1
REMARK VINA RESULT:      -8.5      0.000      0.000
REMARK  2 active torsions:
REMARK  status: ('A' for Active; 'I' for Inactive)
REMARK    1  A    between atoms: C2_4  and  N3_5 
REMARK    2  A    between atoms: N3_5  and  C3_6 
ROOT
HETATM    1  C1  UNL     1      24.895  -0.837  54.503  1.00  0.00     0.180 C 
HETATM    2  N1  UNL     1      25.214   0.284  53.643  1.00  0.00    -0.273 N 
HETATM    3  N2  UNL     1      24.850   1.617  53.638  1.00  0.00    -0.157 NA
HETATM    4  C2  UNL     1      25.283   2.395  52.709  1.00  0.00     0.141 C 
HETATM    5  C9  UNL     1      26.583   2.004  51.995  1.00  0.00     0.056 C 
HETATM    6  C10 UNL     1      26.585   2.812  50.721  1.00  0.00     0.032 C 
HETATM    7  C11 UNL     1      27.721   2.353  52.824  1.00  0.00    -0.000 C 
HETATM    8  C12 UNL     1      28.733   2.037  53.618  1.00  0.00     0.072 C 
HETATM    9  C13 UNL     1      29.055   0.625  53.976  1.00  0.00     0.244 C 
HETATM   10  O1  UNL     1      29.664  -0.276  54.595  1.00  0.00    -0.268 OA
HETATM   11  N4  UNL     1      28.471  -0.536  53.419  1.00  0.00    -0.334 N 
HETATM   12  C14 UNL     1      27.891  -1.687  52.867  1.00  0.00     0.093 C 
HETATM   13  C15 UNL     1      26.603  -1.660  52.458  1.00  0.00     0.048 C 
HETATM   14  C16 UNL     1      26.048  -0.317  52.678  1.00  0.00     0.051 C 
HETATM   15  C17 UNL     1      26.478   0.540  51.700  1.00  0.00     0.025 C 
HETATM   16  H14 UNL     1      28.162  -0.006  52.619  1.00  0.00     0.168 HD
ENDROOT
BRANCH   4  17
HETATM   17  N3  UNL     1      24.573   3.560  52.383  1.00  0.00    -0.342 N 
HETATM   18  H4  UNL     1      25.026   4.494  52.546  1.00  0.00     0.167 HD
BRANCH  17  19
HETATM   19  C3  UNL     1      23.268   3.547  51.851  1.00  0.00     0.034 A 
HETATM   20  C4  UNL     1      22.205   4.357  52.171  1.00  0.00     0.029 A 
HETATM   21  C5  UNL     1      20.956   4.306  51.637  1.00  0.00     0.004 A 
HETATM   22  C6  UNL     1      20.688   3.354  50.669  1.00  0.00     0.019 A 
HETATM   23  C7  UNL     1      21.679   2.500  50.281  1.00  0.00     0.013 A 
HETATM   24 BR1  UNL     1      21.328   1.184  48.951  1.00  0.00    -0.051 Br
HETATM   25  C8  UNL     1      22.921   2.622  50.876  1.00  0.00     0.048 A 
ENDBRANCH  17  19
ENDBRANCH   4  17
TORSDOF 2
ENDMDL
MODEL 2
REMARK VINA RESULT:      -8.0      4.146      6.273
REMARK  2 active torsions:
REMARK  status: ('A' for Active; 'I' for Inactive)
REMARK    1  A    between atoms: C2_4  and  N3_5 
REMARK    2  A    between atoms: N3_5  and  C3_6 
ROOT
HETATM    1  C1  UNL     1      21.539   1.335  48.655  1.00  0.00     0.180 C 
HETATM    2  N1  UNL     1      22.562   1.772  49.584  1.00  0.00    -0.273 N 
HETATM    3  N2  UNL     1      23.684   2.568  49.463  1.00  0.00    -0.157 NA
HETATM    4  C2  UNL     1      24.440   2.768  50.484  1.00  0.00     0.141 C 
HETATM    5  C9  UNL     1      23.817   2.615  51.877  1.00  0.00     0.056 C 
HETATM    6  C10 UNL     1      24.990   2.463  52.813  1.00  0.00     0.032 C 
HETATM    7  C11 UNL     1      23.052   3.803  52.205  1.00  0.00    -0.000 C 
HETATM    8  C12 UNL     1      21.909   4.446  52.391  1.00  0.00     0.072 C 
HETATM    9  C13 UNL     1      20.584   3.778  52.238  1.00  0.00     0.244 C 
HETATM   10  O1  UNL     1      19.334   3.741  52.179  1.00  0.00    -0.268 OA
HETATM   11  N4  UNL     1      20.358   2.395  52.051  1.00  0.00    -0.334 N 
HETATM   12  C14 UNL     1      20.135   1.024  51.865  1.00  0.00     0.093 C 
HETATM   13  C15 UNL     1      21.039   0.282  51.188  1.00  0.00     0.048 C 
HETATM   14  C16 UNL     1      22.162   1.135  50.776  1.00  0.00     0.051 C 
HETATM   15  C17 UNL     1      22.999   1.362  51.837  1.00  0.00     0.025 C 
HETATM   16  H14 UNL     1      21.276   2.188  52.411  1.00  0.00     0.168 HD
ENDROOT
BRANCH   4  17
HETATM   17  N3  UNL     1      25.786   3.119  50.302  1.00  0.00    -0.342 N 
HETATM   18  H4  UNL     1      26.533   2.445  50.606  1.00  0.00     0.167 HD
BRANCH  17  19
HETATM   19  C3  UNL     1      26.196   4.343  49.737  1.00  0.00     0.034 A 
HETATM   20  C4  UNL     1      27.272   4.589  48.916  1.00  0.00     0.029 A 
HETATM   21  C5  UNL     1      27.638   5.790  48.397  1.00  0.00     0.004 A 
HETATM   22  C6  UNL     1      26.876   6.905  48.703  1.00  0.00     0.019 A 
HETATM   23  C7  UNL     1      25.786   6.764  49.512  1.00  0.00     0.013 A 
HETATM   24 BR1  UNL     1      24.726   8.287  49.943  1.00  0.00    -0.051 Br
HETATM   25  C8  UNL     1      25.485   5.506  49.997  1.00  0.00     0.048 A 
ENDBRANCH  17  19
ENDBRANCH   4  17
TORSDOF 2
ENDMDL
MODEL 3
REMARK VINA RESULT:      -7.8      3.838      7.157
REMARK  2 active torsions:
REMARK  status: ('A' for Active; 'I' for Inactive)
REMARK    1  A    between atoms: C2_4  and  N3_5 
REMARK    2  A    between atoms: N3_5  and  C3_6 
ROOT
HETATM    1  C1  UNL     1      23.733   3.318  49.157  1.00  0.00     0.180 C 
HETATM    2  N1  UNL     1      23.351   2.462  50.262  1.00  0.00    -0.273 N 
HETATM    3  N2  UNL     1      23.796   2.327  51.563  1.00  0.00    -0.157 NA
HETATM    4  C2  UNL     1      23.268   1.440  52.331  1.00  0.00     0.141 C 
HETATM    5  C9  UNL     1      21.845   0.968  52.008  1.00  0.00     0.056 C 
HETATM    6  C10 UNL     1      21.685  -0.330  52.759  1.00  0.00     0.032 C 
HETATM    7  C11 UNL     1      20.885   1.951  52.474  1.00  0.00    -0.000 C 
HETATM    8  C12 UNL     1      19.999   2.914  52.267  1.00  0.00     0.072 C 
HETATM    9  C13 UNL     1      19.649   3.394  50.899  1.00  0.00     0.244 C 
HETATM   10  O1  UNL     1      19.092   4.152  50.072  1.00  0.00    -0.268 OA
HETATM   11  N4  UNL     1      20.055   2.813  49.676  1.00  0.00    -0.334 N 
HETATM   12  C14 UNL     1      20.458   2.237  48.463  1.00  0.00     0.093 C 
HETATM   13  C15 UNL     1      21.660   1.624  48.378  1.00  0.00     0.048 C 
HETATM   14  C16 UNL     1      22.331   1.679  49.684  1.00  0.00     0.051 C 
HETATM   15  C17 UNL     1      21.803   0.739  50.529  1.00  0.00     0.025 C 
HETATM   16  H14 UNL     1      20.262   1.947  50.147  1.00  0.00     0.168 HD
ENDROOT
BRANCH   4  17
HETATM   17  N3  UNL     1      23.990   0.941  53.426  1.00  0.00    -0.342 N 
HETATM   18  H4  UNL     1      23.545   0.958  54.378  1.00  0.00     0.167 HD
BRANCH  17  19
HETATM   19  C3  UNL     1      25.294   0.420  53.318  1.00  0.00     0.034 A 
HETATM   20  C4  UNL     1      25.685  -0.831  52.903  1.00  0.00     0.029 A 
HETATM   21  C5  UNL     1      26.958  -1.298  52.820  1.00  0.00     0.004 A 
HETATM   22  C6  UNL     1      27.997  -0.458  53.184  1.00  0.00     0.019 A 
HETATM   23  C7  UNL     1      27.712   0.807  53.612  1.00  0.00     0.013 A 
HETATM   24 BR1  UNL     1      29.129   1.975  54.116  1.00  0.00    -0.051 Br
HETATM   25  C8  UNL     1      26.388   1.200  53.665  1.00  0.00     0.048 A 
ENDBRANCH  17  19
ENDBRANCH   4  17
TORSDOF 2
ENDMDL
MODEL 4
REMARK VINA RESULT:      -7.6      3.941      6.929
REMARK  2 active torsions:
REMARK  status: ('A' for Active; 'I' for Inactive)
REMARK    1  A    between atoms: C2_4  and  N3_5 
REMARK    2  A    between atoms: N3_5  and  C3_6 
ROOT
HETATM    1  C1  UNL     1      21.824   6.805  50.503  1.00  0.00     0.180 C 
HETATM    2  N1  UNL     1      22.874   5.806  50.476  1.00  0.00    -0.273 N 
HETATM    3  N2  UNL     1      23.291   4.835  51.366  1.00  0.00    -0.157 NA
HETATM    4  C2  UNL     1      24.296   4.088  51.073  1.00  0.00     0.141 C 
HETATM    5  C9  UNL     1      24.638   3.895  49.590  1.00  0.00     0.056 C 
HETATM    6  C10 UNL     1      26.055   3.381  49.581  1.00  0.00     0.032 C 
HETATM    7  C11 UNL     1      23.736   2.923  49.002  1.00  0.00    -0.000 C 
HETATM    8  C12 UNL     1      22.719   2.589  48.223  1.00  0.00     0.072 C 
HETATM    9  C13 UNL     1      21.955   3.598  47.434  1.00  0.00     0.244 C 
HETATM   10  O1  UNL     1      21.023   3.990  46.695  1.00  0.00    -0.268 OA
HETATM   11  N4  UNL     1      22.287   4.963  47.271  1.00  0.00    -0.334 N 
HETATM   12  C14 UNL     1      22.616   6.316  47.111  1.00  0.00     0.093 C 
HETATM   13  C15 UNL     1      23.242   6.977  48.109  1.00  0.00     0.048 C 
HETATM   14  C16 UNL     1      23.482   6.058  49.230  1.00  0.00     0.051 C 
HETATM   15  C17 UNL     1      24.556   5.251  48.960  1.00  0.00     0.025 C 
HETATM   16  H14 UNL     1      23.238   4.771  47.541  1.00  0.00     0.168 HD
ENDROOT
BRANCH   4  17
HETATM   17  N3  UNL     1      25.036   3.476  52.096  1.00  0.00    -0.342 N 
HETATM   18  H4  UNL     1      25.790   4.027  52.577  1.00  0.00     0.167 HD
BRANCH  17  19
HETATM   19  C3  UNL     1      24.828   2.145  52.510  1.00  0.00     0.034 A 
HETATM   20  C4  UNL     1      25.734   1.112  52.556  1.00  0.00     0.029 A 
HETATM   21  C5  UNL     1      25.490  -0.163  52.958  1.00  0.00     0.004 A 
HETATM   22  C6  UNL     1      24.210  -0.496  53.369  1.00  0.00     0.019 A 
HETATM   23  C7  UNL     1      23.238   0.462  53.359  1.00  0.00     0.013 A 
HETATM   24 BR1  UNL     1      21.472   0.023  53.922  1.00  0.00    -0.051 Br
HETATM   25  C8  UNL     1      23.573   1.734  52.936  1.00  0.00     0.048 A 
ENDBRANCH  17  19
ENDBRANCH   4  17
TORSDOF 2
ENDMDL
MODEL 5
REMARK VINA RESULT:      -7.5      3.107      4.202
REMARK  2 active torsions:
REMARK  status: ('A' for Active; 'I' for Inactive)
REMARK    1  A    between atoms: C2_4  and  N3_5 
REMARK    2  A    between atoms: N3_5  and  C3_6 
ROOT
HETATM    1  C1  UNL     1      26.921  -0.612  52.106  1.00  0.00     0.180 C 
HETATM    2  N1  UNL     1      26.229   0.658  52.173  1.00  0.00    -0.273 N 
HETATM    3  N2  UNL     1      25.985   1.662  51.256  1.00  0.00    -0.157 NA
HETATM    4  C2  UNL     1      25.344   2.717  51.617  1.00  0.00     0.141 C 
HETATM    5  C9  UNL     1      24.405   2.607  52.825  1.00  0.00     0.056 C 
HETATM    6  C10 UNL     1      24.169   4.029  53.266  1.00  0.00     0.032 C 
HETATM    7  C11 UNL     1      23.160   1.981  52.423  1.00  0.00    -0.000 C 
HETATM    8  C12 UNL     1      22.316   0.961  52.396  1.00  0.00     0.072 C 
HETATM    9  C13 UNL     1      22.601  -0.328  53.091  1.00  0.00     0.244 C 
HETATM   10  O1  UNL     1      22.385  -1.523  53.395  1.00  0.00    -0.268 OA
HETATM   11  N4  UNL     1      23.673  -0.585  53.976  1.00  0.00    -0.334 N 
HETATM   12  C14 UNL     1      24.736  -0.839  54.853  1.00  0.00     0.093 C 
HETATM   13  C15 UNL     1      25.918  -0.209  54.676  1.00  0.00     0.048 C 
HETATM   14  C16 UNL     1      25.822   0.696  53.522  1.00  0.00     0.051 C 
HETATM   15  C17 UNL     1      25.154   1.840  53.871  1.00  0.00     0.025 C 
HETATM   16  H14 UNL     1      23.794   0.404  54.129  1.00  0.00     0.168 HD
ENDROOT
BRANCH   4  17
HETATM   17  N3  UNL     1      25.511   3.917  50.909  1.00  0.00    -0.342 N 
HETATM   18  H4  UNL     1      26.314   4.547  51.159  1.00  0.00     0.167 HD
BRANCH  17  19
HETATM   19  C3  UNL     1      24.648   4.331  49.875  1.00  0.00     0.034 A 
HETATM   20  C4  UNL     1      23.622   3.630  49.284  1.00  0.00     0.029 A 
HETATM   21  C5  UNL     1      22.815   4.065  48.282  1.00  0.00     0.004 A 
HETATM   22  C6  UNL     1      23.014   5.338  47.775  1.00  0.00     0.019 A 
HETATM   23  C7  UNL     1      24.009   6.114  48.296  1.00  0.00     0.013 A 
HETATM   24 BR1  UNL     1      24.296   7.868  47.612  1.00  0.00    -0.051 Br
HETATM   25  C8  UNL     1      24.784   5.593  49.315  1.00  0.00     0.048 A 
ENDBRANCH  17  19
ENDBRANCH   4  17
TORSDOF 2
ENDMDL
MODEL 6
REMARK VINA RESULT:      -7.4      3.513      6.763
REMARK  2 active torsions:
REMARK  status: ('A' for Active; 'I' for Inactive)
REMARK    1  A    between atoms: C2_4  and  N3_5 
REMARK    2  A    between atoms: N3_5  and  C3_6 
ROOT
HETATM    1  C1  UNL     1      26.336   4.080  49.627  1.00  0.00     0.180 C 
HETATM    2  N1  UNL     1      25.586   3.295  50.587  1.00  0.00    -0.273 N 
HETATM    3  N2  UNL     1      25.868   2.805  51.847  1.00  0.00    -0.157 NA
HETATM    4  C2  UNL     1      24.992   2.099  52.470  1.00  0.00     0.141 C 
HETATM    5  C9  UNL     1      23.518   2.283  52.085  1.00  0.00     0.056 C 
HETATM    6  C10 UNL     1      22.819   1.060  52.625  1.00  0.00     0.032 C 
HETATM    7  C11 UNL     1      22.996   3.486  52.705  1.00  0.00    -0.000 C 
HETATM    8  C12 UNL     1      22.573   4.740  52.658  1.00  0.00     0.072 C 
HETATM    9  C13 UNL     1      22.518   5.514  51.384  1.00  0.00     0.244 C 
HETATM   10  O1  UNL     1      22.351   6.543  50.689  1.00  0.00    -0.268 OA
HETATM   11  N4  UNL     1      22.732   5.006  50.082  1.00  0.00    -0.334 N 
HETATM   12  C14 UNL     1      22.945   4.501  48.792  1.00  0.00     0.093 C 
HETATM   13  C15 UNL     1      23.812   3.482  48.604  1.00  0.00     0.048 C 
HETATM   14  C16 UNL     1      24.376   3.074  49.899  1.00  0.00     0.051 C 
HETATM   15  C17 UNL     1      23.474   2.308  50.589  1.00  0.00     0.025 C 
HETATM   16  H14 UNL     1      22.555   4.070  50.411  1.00  0.00     0.168 HD
ENDROOT
BRANCH   4  17
HETATM   17  N3  UNL     1      25.396   1.200  53.469  1.00  0.00    -0.342 N 
HETATM   18  H4  UNL     1      25.054   1.346  54.452  1.00  0.00     0.167 HD
BRANCH  17  19
HETATM   19  C3  UNL     1      26.250   0.107  53.225  1.00  0.00     0.034 A 
HETATM   20  C4  UNL     1      25.937  -1.122  52.692  1.00  0.00     0.029 A 
HETATM   21  C5  UNL     1      26.792  -2.155  52.479  1.00  0.00     0.004 A 
HETATM   22  C6  UNL     1      28.125  -1.995  52.820  1.00  0.00     0.019 A 
HETATM   23  C7  UNL     1      28.536  -0.809  53.357  1.00  0.00     0.013 A 
HETATM   24 BR1  UNL     1      30.365  -0.571  53.832  1.00  0.00    -0.051 Br
HETATM   25  C8  UNL     1      27.599   0.190  53.540  1.00  0.00     0.048 A 
ENDBRANCH  17  19
ENDBRANCH   4  17
TORSDOF 2
ENDMDL
MODEL 7
REMARK VINA RESULT:      -7.3      3.579      5.501
REMARK  2 active torsions:
REMARK  status: ('A' for Active; 'I' for Inactive)
REMARK    1  A    between atoms: C2_4  and  N3_5 
REMARK    2  A    between atoms: N3_5  and  C3_6 
ROOT
HETATM    1  C1  UNL     1      22.016   5.178  49.328  1.00  0.00     0.180 C 
HETATM    2  N1  UNL     1      22.663   4.147  50.114  1.00  0.00    -0.273 N 
HETATM    3  N2  UNL     1      22.636   2.767  50.086  1.00  0.00    -0.157 NA
HETATM    4  C2  UNL     1      23.315   2.095  50.947  1.00  0.00     0.141 C 
HETATM    5  C9  UNL     1      24.532   2.775  51.588  1.00  0.00     0.056 C 
HETATM    6  C10 UNL     1      24.829   1.960  52.821  1.00  0.00     0.032 C 
HETATM    7  C11 UNL     1      25.654   2.738  50.668  1.00  0.00    -0.000 C 
HETATM    8  C12 UNL     1      26.494   3.314  49.822  1.00  0.00     0.072 C 
HETATM    9  C13 UNL     1      26.434   4.771  49.506  1.00  0.00     0.244 C 
HETATM   10  O1  UNL     1      26.756   5.810  48.886  1.00  0.00    -0.268 OA
HETATM   11  N4  UNL     1      25.630   5.737  50.152  1.00  0.00    -0.334 N 
HETATM   12  C14 UNL     1      24.832   6.695  50.792  1.00  0.00     0.093 C 
HETATM   13  C15 UNL     1      23.624   6.342  51.286  1.00  0.00     0.048 C 
HETATM   14  C16 UNL     1      23.397   4.910  51.045  1.00  0.00     0.051 C 
HETATM   15  C17 UNL     1      24.097   4.159  51.953  1.00  0.00     0.025 C 
HETATM   16  H14 UNL     1      25.521   5.127  50.946  1.00  0.00     0.168 HD
ENDROOT
BRANCH   4  17
HETATM   17  N3  UNL     1      22.937   0.783  51.270  1.00  0.00    -0.342 N 
HETATM   18  H4  UNL     1      23.600  -0.004  51.056  1.00  0.00     0.167 HD
BRANCH  17  19
HETATM   19  C3  UNL     1      21.702   0.458  51.864  1.00  0.00     0.034 A 
HETATM   20  C4  UNL     1      21.445   0.105  53.167  1.00  0.00     0.029 A 
HETATM   21  C5  UNL     1      20.235  -0.208  53.700  1.00  0.00     0.004 A 
HETATM   22  C6  UNL     1      19.122  -0.182  52.877  1.00  0.00     0.019 A 
HETATM   23  C7  UNL     1      19.272   0.157  51.564  1.00  0.00     0.013 A 
HETATM   24 BR1  UNL     1      17.752   0.198  50.418  1.00  0.00    -0.051 Br
HETATM   25  C8  UNL     1      20.540   0.461  51.105  1.00  0.00     0.048 A 
ENDBRANCH  17  19
ENDBRANCH   4  17
TORSDOF 2
ENDMDL
MODEL 8
REMARK VINA RESULT:      -7.2      8.899     10.511
REMARK  2 active torsions:
REMARK  status: ('A' for Active; 'I' for Inactive)
REMARK    1  A    between atoms: C2_4  and  N3_5 
REMARK    2  A    between atoms: N3_5  and  C3_6 
ROOT
HETATM    1  C1  UNL     1      35.527   6.747  48.647  1.00  0.00     0.180 C 
HETATM    2  N1  UNL     1      34.078   6.721  48.619  1.00  0.00    -0.273 N 
HETATM    3  N2  UNL     1      33.101   7.615  49.011  1.00  0.00    -0.157 NA
HETATM    4  C2  UNL     1      31.860   7.302  48.883  1.00  0.00     0.141 C 
HETATM    5  C9  UNL     1      31.490   6.252  47.828  1.00  0.00     0.056 C 
HETATM    6  C10 UNL     1      30.109   5.783  48.212  1.00  0.00     0.032 C 
HETATM    7  C11 UNL     1      31.476   6.864  46.513  1.00  0.00    -0.000 C 
HETATM    8  C12 UNL     1      31.988   7.064  45.308  1.00  0.00     0.072 C 
HETATM    9  C13 UNL     1      33.243   6.397  44.855  1.00  0.00     0.244 C 
HETATM   10  O1  UNL     1      34.193   6.187  44.067  1.00  0.00    -0.268 OA
HETATM   11  N4  UNL     1      33.945   5.377  45.537  1.00  0.00    -0.334 N 
HETATM   12  C14 UNL     1      34.641   4.366  46.213  1.00  0.00     0.093 C 
HETATM   13  C15 UNL     1      34.637   4.336  47.564  1.00  0.00     0.048 C 
HETATM   14  C16 UNL     1      33.821   5.447  48.075  1.00  0.00     0.051 C 
HETATM   15  C17 UNL     1      32.489   5.146  47.967  1.00  0.00     0.025 C 
HETATM   16  H14 UNL     1      33.122   5.161  46.076  1.00  0.00     0.168 HD
ENDROOT
BRANCH   4  17
HETATM   17  N3  UNL     1      30.894   7.919  49.693  1.00  0.00    -0.342 N 
HETATM   18  H4  UNL     1      30.617   7.458  50.595  1.00  0.00     0.167 HD
BRANCH  17  19
HETATM   19  C3  UNL     1      30.262   9.132  49.354  1.00  0.00     0.034 A 
HETATM   20  C4  UNL     1      30.833  10.368  49.154  1.00  0.00     0.029 A 
HETATM   21  C5  UNL     1      30.186  11.518  48.835  1.00  0.00     0.004 A 
HETATM   22  C6  UNL     1      28.809  11.485  48.687  1.00  0.00     0.019 A 
HETATM   23  C7  UNL     1      28.149  10.305  48.865  1.00  0.00     0.013 A 
HETATM   24 BR1  UNL     1      26.256  10.241  48.665  1.00  0.00    -0.051 Br
HETATM   25  C8  UNL     1      28.886   9.181  49.189  1.00  0.00     0.048 A 
ENDBRANCH  17  19
ENDBRANCH   4  17
TORSDOF 2
ENDMDL
MODEL 9
REMARK VINA RESULT:      -7.0      5.968      7.514
REMARK  2 active torsions:
REMARK  status: ('A' for Active; 'I' for Inactive)
REMARK    1  A    between atoms: C2_4  and  N3_5 
REMARK    2  A    between atoms: N3_5  and  C3_6 
ROOT
HETATM    1  C1  UNL     1      27.287   9.220  46.418  1.00  0.00     0.180 C 
HETATM    2  N1  UNL     1      26.494   8.422  47.332  1.00  0.00    -0.273 N 
HETATM    3  N2  UNL     1      25.318   7.710  47.203  1.00  0.00    -0.157 NA
HETATM    4  C2  UNL     1      24.823   7.101  48.222  1.00  0.00     0.141 C 
HETATM    5  C9  UNL     1      25.780   6.706  49.355  1.00  0.00     0.056 C 
HETATM    6  C10 UNL     1      24.889   6.443  50.543  1.00  0.00     0.032 C 
HETATM    7  C11 UNL     1      26.508   5.507  48.985  1.00  0.00    -0.000 C 
HETATM    8  C12 UNL     1      27.607   4.874  48.606  1.00  0.00     0.072 C 
HETATM    9  C13 UNL     1      28.902   5.584  48.391  1.00  0.00     0.244 C 
HETATM   10  O1  UNL     1      30.098   5.675  48.032  1.00  0.00    -0.268 OA
HETATM   11  N4  UNL     1      29.182   6.933  48.706  1.00  0.00    -0.334 N 
HETATM   12  C14 UNL     1      29.459   8.271  49.018  1.00  0.00     0.093 C 
HETATM   13  C15 UNL     1      28.476   9.196  48.940  1.00  0.00     0.048 C 
HETATM   14  C16 UNL     1      27.223   8.545  48.532  1.00  0.00     0.051 C 
HETATM   15  C17 UNL     1      26.658   7.894  49.597  1.00  0.00     0.025 C 
HETATM   16  H14 UNL     1      28.400   6.955  49.341  1.00  0.00     0.168 HD
ENDROOT
BRANCH   4  17
HETATM   17  N3  UNL     1      23.451   6.814  48.270  1.00  0.00    -0.342 N 
HETATM   18  H4  UNL     1      22.836   7.380  48.908  1.00  0.00     0.167 HD
BRANCH  17  19
HETATM   19  C3  UNL     1      22.847   5.794  47.509  1.00  0.00     0.034 A 
HETATM   20  C4  UNL     1      22.346   5.862  46.231  1.00  0.00     0.029 A 
HETATM   21  C5  UNL     1      21.763   4.853  45.533  1.00  0.00     0.004 A 
HETATM   22  C6  UNL     1      21.643   3.613  46.136  1.00  0.00     0.019 A 
HETATM   23  C7  UNL     1      22.111   3.442  47.407  1.00  0.00     0.013 A 
HETATM   24 BR1  UNL     1      21.953   1.743  48.252  1.00  0.00    -0.051 Br
HETATM   25  C8  UNL     1      22.690   4.523  48.044  1.00  0.00     0.048 A 
ENDBRANCH  17  19
ENDBRANCH   4  17
TORSDOF 2
ENDMDL
