MODEL 1
REMARK VINA RESULT:      -7.8      0.000      0.000
REMARK  3 active torsions:
REMARK  status: ('A' for Active; 'I' for Inactive)
REMARK    1  A    between atoms: O1_2  and  C2_3 
REMARK    2  A    between atoms: C5_6  and  C6_7 
REMARK    3  A    between atoms: C8_10  and  C9_11 
ROOT
HETATM    1  C6  UNL     1      21.995  -0.530  52.859  1.00  0.00     0.044 C 
HETATM    2  C7  UNL     1      22.054  -0.744  54.344  1.00  0.00     0.158 C 
HETATM    3  N1  UNL     1      23.462  -0.894  54.610  1.00  0.00    -0.293 NA
HETATM    4  C8  UNL     1      24.224  -0.459  53.696  1.00  0.00     0.039 C 
HETATM    5  C15 UNL     1      23.379   0.086  52.592  1.00  0.00     0.070 C 
ENDROOT
BRANCH   1   6
HETATM    6  C5  UNL     1      20.974   0.505  52.539  1.00  0.00    -0.052 A 
HETATM    7  C4  UNL     1      21.393   1.816  52.721  1.00  0.00     0.010 A 
HETATM    8  C3  UNL     1      20.556   2.895  52.467  1.00  0.00     0.037 A 
HETATM    9  C2  UNL     1      19.263   2.641  52.017  1.00  0.00     0.068 A 
HETATM   10  C17 UNL     1      18.865   1.327  51.841  1.00  0.00     0.037 A 
HETATM   11  C16 UNL     1      19.692   0.254  52.093  1.00  0.00     0.010 A 
BRANCH   9  12
HETATM   12  O1  UNL     1      18.433   3.722  51.764  1.00  0.00    -0.356 OA
HETATM   13  C1  UNL     1      17.050   3.452  51.590  1.00  0.00     0.210 C 
ENDBRANCH   9  12
ENDBRANCH   1   6
BRANCH   4  14
HETATM   14  C9  UNL     1      25.684  -0.492  53.720  1.00  0.00    -0.012 A 
HETATM   15  C10 UNL     1      26.348   0.242  54.686  1.00  0.00     0.015 A 
HETATM   16  C11 UNL     1      27.730   0.230  54.733  1.00  0.00     0.024 A 
HETATM   17  C12 UNL     1      28.425  -0.534  53.789  1.00  0.00     0.034 A 
HETATM   18 CL1  UNL     1      30.180  -0.615  53.766  1.00  0.00    -0.084 Cl
HETATM   19  C13 UNL     1      27.765  -1.280  52.809  1.00  0.00     0.024 A 
HETATM   20  C14 UNL     1      26.369  -1.245  52.790  1.00  0.00     0.015 A 
ENDBRANCH   4  14
TORSDOF 3
ENDMDL
MODEL 2
REMARK VINA RESULT:      -7.7      4.463      7.947
REMARK  3 active torsions:
REMARK  status: ('A' for Active; 'I' for Inactive)
REMARK    1  A    between atoms: O1_2  and  C2_3 
REMARK    2  A    between atoms: C5_6  and  C6_7 
REMARK    3  A    between atoms: C8_10  and  C9_11 
ROOT
HETATM    1  C6  UNL     1      22.887   1.005  51.946  1.00  0.00     0.044 C 
HETATM    2  C7  UNL     1      22.151   2.255  52.336  1.00  0.00     0.158 C 
HETATM    3  N1  UNL     1      20.767   1.856  52.309  1.00  0.00    -0.293 NA
HETATM    4  C8  UNL     1      20.574   0.604  52.351  1.00  0.00     0.039 C 
HETATM    5  C15 UNL     1      21.900  -0.079  52.412  1.00  0.00     0.070 C 
ENDROOT
BRANCH   1   6
HETATM    6  C5  UNL     1      24.122   0.871  52.767  1.00  0.00    -0.052 A 
HETATM    7  C4  UNL     1      24.772   2.064  53.046  1.00  0.00     0.010 A 
HETATM    8  C3  UNL     1      25.938   2.106  53.800  1.00  0.00     0.037 A 
HETATM    9  C2  UNL     1      26.458   0.908  54.284  1.00  0.00     0.068 A 
HETATM   10  C17 UNL     1      25.794  -0.272  53.995  1.00  0.00     0.037 A 
HETATM   11  C16 UNL     1      24.638  -0.316  53.248  1.00  0.00     0.010 A 
BRANCH   9  12
HETATM   12  O1  UNL     1      27.621   0.955  55.037  1.00  0.00    -0.356 OA
HETATM   13  C1  UNL     1      28.636   0.014  54.724  1.00  0.00     0.210 C 
ENDBRANCH   9  12
ENDBRANCH   1   6
BRANCH   4  14
HETATM   14  C9  UNL     1      19.271  -0.055  52.337  1.00  0.00    -0.012 A 
HETATM   15  C10 UNL     1      18.961  -0.935  53.358  1.00  0.00     0.015 A 
HETATM   16  C11 UNL     1      17.735  -1.573  53.370  1.00  0.00     0.024 A 
HETATM   17  C12 UNL     1      16.831  -1.307  52.335  1.00  0.00     0.034 A 
HETATM   18 CL1  UNL     1      15.249  -2.067  52.262  1.00  0.00    -0.084 Cl
HETATM   19  C13 UNL     1      17.133  -0.420  51.299  1.00  0.00     0.024 A 
HETATM   20  C14 UNL     1      18.380   0.208  51.317  1.00  0.00     0.015 A 
ENDBRANCH   4  14
TORSDOF 3
ENDMDL
MODEL 3
REMARK VINA RESULT:      -7.7      2.067      2.779
REMARK  3 active torsions:
REMARK  status: ('A' for Active; 'I' for Inactive)
REMARK    1  A    between atoms: O1_2  and  C2_3 
REMARK    2  A    between atoms: C5_6  and  C6_7 
REMARK    3  A    between atoms: C8_10  and  C9_11 
ROOT
HETATM    1  C6  UNL     1      22.478   1.426  52.859  1.00  0.00     0.044 C 
HETATM    2  C7  UNL     1      22.981   1.746  51.480  1.00  0.00     0.158 C 
HETATM    3  N1  UNL     1      24.393   1.474  51.561  1.00  0.00    -0.293 NA
HETATM    4  C8  UNL     1      24.738   0.742  52.536  1.00  0.00     0.039 C 
HETATM    5  C15 UNL     1      23.517   0.389  53.320  1.00  0.00     0.070 C 
ENDROOT
BRANCH   1   6
HETATM    6  C5  UNL     1      21.163   0.735  52.768  1.00  0.00    -0.052 A 
HETATM    7  C4  UNL     1      20.966  -0.272  53.702  1.00  0.00     0.010 A 
HETATM    8  C3  UNL     1      19.790  -1.011  53.747  1.00  0.00     0.037 A 
HETATM    9  C2  UNL     1      18.790  -0.723  52.823  1.00  0.00     0.068 A 
HETATM   10  C17 UNL     1      19.006   0.286  51.900  1.00  0.00     0.037 A 
HETATM   11  C16 UNL     1      20.170   1.021  51.852  1.00  0.00     0.010 A 
BRANCH   9  12
HETATM   12  O1  UNL     1      17.618  -1.462  52.873  1.00  0.00    -0.356 OA
HETATM   13  C1  UNL     1      17.654  -2.688  53.588  1.00  0.00     0.210 C 
ENDBRANCH   9  12
ENDBRANCH   1   6
BRANCH   4  14
HETATM   14  C9  UNL     1      26.103   0.321  52.841  1.00  0.00    -0.012 A 
HETATM   15  C10 UNL     1      27.003   1.266  53.298  1.00  0.00     0.015 A 
HETATM   16  C11 UNL     1      28.301   0.896  53.595  1.00  0.00     0.024 A 
HETATM   17  C12 UNL     1      28.672  -0.442  53.422  1.00  0.00     0.034 A 
HETATM   18 CL1  UNL     1      30.296  -1.012  53.772  1.00  0.00    -0.084 Cl
HETATM   19  C13 UNL     1      27.771  -1.407  52.962  1.00  0.00     0.024 A 
HETATM   20  C14 UNL     1      26.467  -0.999  52.671  1.00  0.00     0.015 A 
ENDBRANCH   4  14
TORSDOF 3
ENDMDL
MODEL 4
REMARK VINA RESULT:      -7.3      6.374      7.860
REMARK  3 active torsions:
REMARK  status: ('A' for Active; 'I' for Inactive)
REMARK    1  A    between atoms: O1_2  and  C2_3 
REMARK    2  A    between atoms: C5_6  and  C6_7 
REMARK    3  A    between atoms: C8_10  and  C9_11 
ROOT
HETATM    1  C6  UNL     1      24.693   4.647  49.519  1.00  0.00     0.044 C 
HETATM    2  C7  UNL     1      24.232   5.475  50.684  1.00  0.00     0.158 C 
HETATM    3  N1  UNL     1      23.664   4.506  51.585  1.00  0.00    -0.293 NA
HETATM    4  C8  UNL     1      24.018   3.308  51.371  1.00  0.00     0.039 C 
HETATM    5  C15 UNL     1      24.944   3.290  50.199  1.00  0.00     0.070 C 
ENDROOT
BRANCH   1   6
HETATM    6  C5  UNL     1      26.005   5.153  49.029  1.00  0.00    -0.052 A 
HETATM    7  C4  UNL     1      26.000   6.471  48.597  1.00  0.00     0.010 A 
HETATM    8  C3  UNL     1      27.146   7.089  48.111  1.00  0.00     0.037 A 
HETATM    9  C2  UNL     1      28.326   6.352  48.061  1.00  0.00     0.068 A 
HETATM   10  C17 UNL     1      28.310   5.038  48.497  1.00  0.00     0.037 A 
HETATM   11  C16 UNL     1      27.176   4.423  48.980  1.00  0.00     0.010 A 
BRANCH   9  12
HETATM   12  O1  UNL     1      29.466   6.974  47.576  1.00  0.00    -0.356 OA
HETATM   13  C1  UNL     1      30.200   7.783  48.482  1.00  0.00     0.210 C 
ENDBRANCH   9  12
ENDBRANCH   1   6
BRANCH   4  14
HETATM   14  C9  UNL     1      23.587   2.143  52.138  1.00  0.00    -0.012 A 
HETATM   15  C10 UNL     1      22.242   1.999  52.426  1.00  0.00     0.015 A 
HETATM   16  C11 UNL     1      21.805   0.906  53.151  1.00  0.00     0.024 A 
HETATM   17  C12 UNL     1      22.749  -0.035  53.579  1.00  0.00     0.034 A 
HETATM   18 CL1  UNL     1      22.294  -1.456  54.505  1.00  0.00    -0.084 Cl
HETATM   19  C13 UNL     1      24.110   0.100  53.294  1.00  0.00     0.024 A 
HETATM   20  C14 UNL     1      24.518   1.216  52.560  1.00  0.00     0.015 A 
ENDBRANCH   4  14
TORSDOF 3
ENDMDL
MODEL 5
REMARK VINA RESULT:      -7.3      6.243      7.916
REMARK  3 active torsions:
REMARK  status: ('A' for Active; 'I' for Inactive)
REMARK    1  A    between atoms: O1_2  and  C2_3 
REMARK    2  A    between atoms: C5_6  and  C6_7 
REMARK    3  A    between atoms: C8_10  and  C9_11 
ROOT
HETATM    1  C6  UNL     1      24.847   2.773  51.514  1.00  0.00     0.044 C 
HETATM    2  C7  UNL     1      24.042   2.584  50.260  1.00  0.00     0.158 C 
HETATM    3  N1  UNL     1      24.522   3.625  49.388  1.00  0.00    -0.293 NA
HETATM    4  C8  UNL     1      25.643   4.118  49.715  1.00  0.00     0.039 C 
HETATM    5  C15 UNL     1      26.119   3.433  50.953  1.00  0.00     0.070 C 
ENDROOT
BRANCH   1   6
HETATM    6  C5  UNL     1      25.236   1.447  52.067  1.00  0.00    -0.052 A 
HETATM    7  C4  UNL     1      26.519   1.030  51.742  1.00  0.00     0.010 A 
HETATM    8  C3  UNL     1      27.030  -0.185  52.182  1.00  0.00     0.037 A 
HETATM    9  C2  UNL     1      26.221  -0.997  52.971  1.00  0.00     0.068 A 
HETATM   10  C17 UNL     1      24.944  -0.563  53.285  1.00  0.00     0.037 A 
HETATM   11  C16 UNL     1      24.435   0.641  52.851  1.00  0.00     0.010 A 
BRANCH   9  12
HETATM   12  O1  UNL     1      26.736  -2.208  53.408  1.00  0.00    -0.356 OA
HETATM   13  C1  UNL     1      27.977  -2.623  52.858  1.00  0.00     0.210 C 
ENDBRANCH   9  12
ENDBRANCH   1   6
BRANCH   4  14
HETATM   14  C9  UNL     1      26.345   5.181  49.001  1.00  0.00    -0.012 A 
HETATM   15  C10 UNL     1      27.692   5.022  48.731  1.00  0.00     0.015 A 
HETATM   16  C11 UNL     1      28.382   6.012  48.056  1.00  0.00     0.024 A 
HETATM   17  C12 UNL     1      27.688   7.160  47.660  1.00  0.00     0.034 A 
HETATM   18 CL1  UNL     1      28.475   8.473  46.798  1.00  0.00    -0.084 Cl
HETATM   19  C13 UNL     1      26.327   7.332  47.926  1.00  0.00     0.024 A 
HETATM   20  C14 UNL     1      25.660   6.313  48.610  1.00  0.00     0.015 A 
ENDBRANCH   4  14
TORSDOF 3
ENDMDL
MODEL 6
REMARK VINA RESULT:      -7.2      4.547      8.111
REMARK  3 active torsions:
REMARK  status: ('A' for Active; 'I' for Inactive)
REMARK    1  A    between atoms: O1_2  and  C2_3 
REMARK    2  A    between atoms: C5_6  and  C6_7 
REMARK    3  A    between atoms: C8_10  and  C9_11 
ROOT
HETATM    1  C6  UNL     1      22.071   0.254  53.945  1.00  0.00     0.044 C 
HETATM    2  C7  UNL     1      21.721  -1.078  54.544  1.00  0.00     0.158 C 
HETATM    3  N1  UNL     1      20.371  -1.306  54.099  1.00  0.00    -0.293 NA
HETATM    4  C8  UNL     1      20.011  -0.603  53.108  1.00  0.00     0.039 C 
HETATM    5  C15 UNL     1      21.152   0.275  52.711  1.00  0.00     0.070 C 
ENDROOT
BRANCH   1   6
HETATM    6  C5  UNL     1      23.477   0.232  53.456  1.00  0.00    -0.052 A 
HETATM    7  C4  UNL     1      24.315  -0.651  54.122  1.00  0.00     0.010 A 
HETATM    8  C3  UNL     1      25.656  -0.787  53.784  1.00  0.00     0.037 A 
HETATM    9  C2  UNL     1      26.160  -0.008  52.745  1.00  0.00     0.068 A 
HETATM   10  C17 UNL     1      25.308   0.867  52.094  1.00  0.00     0.037 A 
HETATM   11  C16 UNL     1      23.978   1.004  52.426  1.00  0.00     0.010 A 
BRANCH   9  12
HETATM   12  O1  UNL     1      27.499  -0.148  52.411  1.00  0.00    -0.356 OA
HETATM   13  C1  UNL     1      28.416  -0.350  53.476  1.00  0.00     0.210 C 
ENDBRANCH   9  12
ENDBRANCH   1   6
BRANCH   4  14
HETATM   14  C9  UNL     1      18.699  -0.643  52.469  1.00  0.00    -0.012 A 
HETATM   15  C10 UNL     1      17.667  -1.302  53.111  1.00  0.00     0.015 A 
HETATM   16  C11 UNL     1      16.414  -1.356  52.529  1.00  0.00     0.024 A 
HETATM   17  C12 UNL     1      16.225  -0.734  51.290  1.00  0.00     0.034 A 
HETATM   18 CL1  UNL     1      14.672  -0.747  50.469  1.00  0.00    -0.084 Cl
HETATM   19  C13 UNL     1      17.260  -0.065  50.631  1.00  0.00     0.024 A 
HETATM   20  C14 UNL     1      18.513  -0.030  51.247  1.00  0.00     0.015 A 
ENDBRANCH   4  14
TORSDOF 3
ENDMDL
MODEL 7
REMARK VINA RESULT:      -7.2      6.977      8.570
REMARK  3 active torsions:
REMARK  status: ('A' for Active; 'I' for Inactive)
REMARK    1  A    between atoms: O1_2  and  C2_3 
REMARK    2  A    between atoms: C5_6  and  C6_7 
REMARK    3  A    between atoms: C8_10  and  C9_11 
ROOT
HETATM    1  C6  UNL     1      25.509   5.283  49.015  1.00  0.00     0.044 C 
HETATM    2  C7  UNL     1      24.891   6.083  50.125  1.00  0.00     0.158 C 
HETATM    3  N1  UNL     1      24.287   5.084  50.968  1.00  0.00    -0.293 NA
HETATM    4  C8  UNL     1      24.724   3.907  50.794  1.00  0.00     0.039 C 
HETATM    5  C15 UNL     1      25.762   3.940  49.722  1.00  0.00     0.070 C 
ENDROOT
BRANCH   1   6
HETATM    6  C5  UNL     1      26.835   5.858  48.657  1.00  0.00    -0.052 A 
HETATM    7  C4  UNL     1      27.867   4.936  48.562  1.00  0.00     0.010 A 
HETATM    8  C3  UNL     1      29.164   5.316  48.238  1.00  0.00     0.037 A 
HETATM    9  C2  UNL     1      29.420   6.664  48.003  1.00  0.00     0.068 A 
HETATM   10  C17 UNL     1      28.376   7.568  48.102  1.00  0.00     0.037 A 
HETATM   11  C16 UNL     1      27.090   7.195  48.423  1.00  0.00     0.010 A 
BRANCH   9  12
HETATM   12  O1  UNL     1      30.715   7.038  47.678  1.00  0.00    -0.356 OA
HETATM   13  C1  UNL     1      31.626   7.225  48.751  1.00  0.00     0.210 C 
ENDBRANCH   9  12
ENDBRANCH   1   6
BRANCH   4  14
HETATM   14  C9  UNL     1      24.279   2.720  51.519  1.00  0.00    -0.012 A 
HETATM   15  C10 UNL     1      25.058   2.247  52.559  1.00  0.00     0.015 A 
HETATM   16  C11 UNL     1      24.662   1.125  53.264  1.00  0.00     0.024 A 
HETATM   17  C12 UNL     1      23.469   0.493  52.899  1.00  0.00     0.034 A 
HETATM   18 CL1  UNL     1      22.880  -0.938  53.731  1.00  0.00    -0.084 Cl
HETATM   19  C13 UNL     1      22.672   0.962  51.850  1.00  0.00     0.024 A 
HETATM   20  C14 UNL     1      23.102   2.097  51.159  1.00  0.00     0.015 A 
ENDBRANCH   4  14
TORSDOF 3
ENDMDL
MODEL 8
REMARK VINA RESULT:      -7.1      5.699      6.631
REMARK  3 active torsions:
REMARK  status: ('A' for Active; 'I' for Inactive)
REMARK    1  A    between atoms: O1_2  and  C2_3 
REMARK    2  A    between atoms: C5_6  and  C6_7 
REMARK    3  A    between atoms: C8_10  and  C9_11 
ROOT
HETATM    1  C6  UNL     1      23.269   3.313  51.080  1.00  0.00     0.044 C 
HETATM    2  C7  UNL     1      22.924   3.011  49.650  1.00  0.00     0.158 C 
HETATM    3  N1  UNL     1      23.867   3.797  48.899  1.00  0.00    -0.293 NA
HETATM    4  C8  UNL     1      24.881   4.182  49.555  1.00  0.00     0.039 C 
HETATM    5  C15 UNL     1      24.759   3.676  50.955  1.00  0.00     0.070 C 
ENDROOT
BRANCH   1   6
HETATM    6  C5  UNL     1      23.177   2.070  51.895  1.00  0.00    -0.052 A 
HETATM    7  C4  UNL     1      21.894   1.564  52.047  1.00  0.00     0.010 A 
HETATM    8  C3  UNL     1      21.643   0.411  52.780  1.00  0.00     0.037 A 
HETATM    9  C2  UNL     1      22.718  -0.246  53.372  1.00  0.00     0.068 A 
HETATM   10  C17 UNL     1      23.990   0.275  53.208  1.00  0.00     0.037 A 
HETATM   11  C16 UNL     1      24.243   1.418  52.482  1.00  0.00     0.010 A 
BRANCH   9  12
HETATM   12  O1  UNL     1      22.461  -1.397  54.102  1.00  0.00    -0.356 OA
HETATM   13  C1  UNL     1      21.105  -1.684  54.408  1.00  0.00     0.210 C 
ENDBRANCH   9  12
ENDBRANCH   1   6
BRANCH   4  14
HETATM   14  C9  UNL     1      25.979   4.987  49.029  1.00  0.00    -0.012 A 
HETATM   15  C10 UNL     1      27.240   4.424  48.956  1.00  0.00     0.015 A 
HETATM   16  C11 UNL     1      28.299   5.164  48.462  1.00  0.00     0.024 A 
HETATM   17  C12 UNL     1      28.060   6.478  48.044  1.00  0.00     0.034 A 
HETATM   18 CL1  UNL     1      29.338   7.497  47.401  1.00  0.00    -0.084 Cl
HETATM   19  C13 UNL     1      26.790   7.057  48.112  1.00  0.00     0.024 A 
HETATM   20  C14 UNL     1      25.743   6.282  48.617  1.00  0.00     0.015 A 
ENDBRANCH   4  14
TORSDOF 3
ENDMDL
MODEL 9
REMARK VINA RESULT:      -7.1      5.133      8.232
REMARK  3 active torsions:
REMARK  status: ('A' for Active; 'I' for Inactive)
REMARK    1  A    between atoms: O1_2  and  C2_3 
REMARK    2  A    between atoms: C5_6  and  C6_7 
REMARK    3  A    between atoms: C8_10  and  C9_11 
ROOT
HETATM    1  C6  UNL     1      24.512   1.984  52.547  1.00  0.00     0.044 C 
HETATM    2  C7  UNL     1      23.346   1.072  52.293  1.00  0.00     0.158 C 
HETATM    3  N1  UNL     1      22.716   1.641  51.130  1.00  0.00    -0.293 NA
HETATM    4  C8  UNL     1      23.448   2.432  50.462  1.00  0.00     0.039 C 
HETATM    5  C15 UNL     1      24.780   2.523  51.131  1.00  0.00     0.070 C 
ENDROOT
BRANCH   1   6
HETATM    6  C5  UNL     1      25.699   1.182  52.954  1.00  0.00    -0.052 A 
HETATM    7  C4  UNL     1      25.753  -0.097  52.419  1.00  0.00     0.010 A 
HETATM    8  C3  UNL     1      26.797  -0.968  52.704  1.00  0.00     0.037 A 
HETATM    9  C2  UNL     1      27.811  -0.532  53.552  1.00  0.00     0.068 A 
HETATM   10  C17 UNL     1      27.739   0.748  54.075  1.00  0.00     0.037 A 
HETATM   11  C16 UNL     1      26.705   1.614  53.795  1.00  0.00     0.010 A 
BRANCH   9  12
HETATM   12  O1  UNL     1      28.852  -1.405  53.833  1.00  0.00    -0.356 OA
HETATM   13  C1  UNL     1      30.166  -0.870  53.832  1.00  0.00     0.210 C 
ENDBRANCH   9  12
ENDBRANCH   1   6
BRANCH   4  14
HETATM   14  C9  UNL     1      23.051   3.136  49.246  1.00  0.00    -0.012 A 
HETATM   15  C10 UNL     1      22.386   2.433  48.259  1.00  0.00     0.015 A 
HETATM   16  C11 UNL     1      21.997   3.074  47.097  1.00  0.00     0.024 A 
HETATM   17  C12 UNL     1      22.292   4.434  46.953  1.00  0.00     0.034 A 
HETATM   18 CL1  UNL     1      21.841   5.338  45.516  1.00  0.00    -0.084 Cl
HETATM   19  C13 UNL     1      22.964   5.156  47.944  1.00  0.00     0.024 A 
HETATM   20  C14 UNL     1      23.342   4.477  49.105  1.00  0.00     0.015 A 
ENDBRANCH   4  14
TORSDOF 3
ENDMDL
