MODEL 1
REMARK VINA RESULT:      -8.8      0.000      0.000
REMARK  1 active torsions:
REMARK  status: ('A' for Active; 'I' for Inactive)
REMARK    1  A    between atoms: C7_8  and  N1_9 
ROOT
HETATM    1  N1  UNL     1      22.719   0.773  52.733  1.00  0.00    -0.352 N 
HETATM    2  C8  UNL     1      23.217   2.091  53.084  1.00  0.00     0.117 C 
HETATM    3  C9  UNL     1      24.559   2.226  53.105  1.00  0.00     0.035 C 
HETATM    4  N2  UNL     1      25.790   2.911  53.281  1.00  0.00    -0.357 N 
HETATM    5  C10 UNL     1      26.793   1.912  53.233  1.00  0.00     0.039 A 
HETATM    6  C11 UNL     1      28.136   2.196  53.510  1.00  0.00     0.031 A 
HETATM    7  C12 UNL     1      29.004   1.100  53.573  1.00  0.00     0.021 A 
HETATM    8  C13 UNL     1      28.521  -0.197  53.365  1.00  0.00     0.011 A 
HETATM    9 BR1  UNL     1      29.713  -1.695  53.454  1.00  0.00    -0.051 Br
HETATM   10  C14 UNL     1      27.188  -0.451  53.090  1.00  0.00     0.029 A 
HETATM   11  C15 UNL     1      26.347   0.631  53.028  1.00  0.00    -0.019 A 
HETATM   12  C16 UNL     1      24.967   0.842  52.666  1.00  0.00     0.090 C 
HETATM   13  C17 UNL     1      23.894   0.031  53.302  1.00  0.00     0.144 C 
HETATM   14  H8  UNL     1      25.776   3.936  53.405  1.00  0.00     0.166 HD
ENDROOT
BRANCH   1  15
HETATM   15  C7  UNL     1      21.468   0.655  52.067  1.00  0.00     0.062 A 
HETATM   16  C2  UNL     1      21.186   0.972  50.755  1.00  0.00    -0.033 A 
HETATM   17  C1  UNL     1      22.327   1.494  49.959  1.00  0.00     0.050 C 
HETATM   18  C3  UNL     1      19.911   0.800  50.255  1.00  0.00     0.009 A 
HETATM   19  C4  UNL     1      18.963   0.309  51.116  1.00  0.00     0.002 A 
HETATM   20  C5  UNL     1      19.184  -0.023  52.425  1.00  0.00     0.026 A 
HETATM   21  C6  UNL     1      20.476   0.161  52.897  1.00  0.00     0.061 A 
HETATM   22 CL1  UNL     1      20.728  -0.276  54.593  1.00  0.00    -0.082 Cl
ENDBRANCH   1  15
TORSDOF 1
ENDMDL
MODEL 2
REMARK VINA RESULT:      -8.5      3.548      7.068
REMARK  1 active torsions:
REMARK  status: ('A' for Active; 'I' for Inactive)
REMARK    1  A    between atoms: C7_8  and  N1_9 
ROOT
HETATM    1  N1  UNL     1      26.598   1.035  52.722  1.00  0.00    -0.352 N 
HETATM    2  C8  UNL     1      25.475   1.088  53.641  1.00  0.00     0.117 C 
HETATM    3  C9  UNL     1      24.276   1.361  53.086  1.00  0.00     0.035 C 
HETATM    4  N2  UNL     1      22.875   1.595  53.078  1.00  0.00    -0.357 N 
HETATM    5  C10 UNL     1      22.574   2.058  51.773  1.00  0.00     0.039 A 
HETATM    6  C11 UNL     1      21.300   2.527  51.429  1.00  0.00     0.031 A 
HETATM    7  C12 UNL     1      21.168   3.092  50.155  1.00  0.00     0.021 A 
HETATM    8  C13 UNL     1      22.271   3.169  49.298  1.00  0.00     0.011 A 
HETATM    9 BR1  UNL     1      22.086   3.946  47.557  1.00  0.00    -0.051 Br
HETATM   10  C14 UNL     1      23.520   2.695  49.662  1.00  0.00     0.029 A 
HETATM   11  C15 UNL     1      23.638   2.142  50.911  1.00  0.00    -0.019 A 
HETATM   12  C16 UNL     1      24.672   1.442  51.634  1.00  0.00     0.090 C 
HETATM   13  C17 UNL     1      26.030   2.036  51.758  1.00  0.00     0.144 C 
HETATM   14  H8  UNL     1      22.334   1.410  53.937  1.00  0.00     0.166 HD
ENDROOT
BRANCH   1  15
HETATM   15  C7  UNL     1      27.694   0.175  53.011  1.00  0.00     0.062 A 
HETATM   16  C2  UNL     1      27.746  -1.195  52.859  1.00  0.00    -0.033 A 
HETATM   17  C1  UNL     1      26.511  -1.831  52.332  1.00  0.00     0.050 C 
HETATM   18  C3  UNL     1      28.892  -1.889  53.188  1.00  0.00     0.009 A 
HETATM   19  C4  UNL     1      29.951  -1.159  53.664  1.00  0.00     0.002 A 
HETATM   20  C5  UNL     1      29.957   0.198  53.836  1.00  0.00     0.026 A 
HETATM   21  C6  UNL     1      28.791   0.868  53.497  1.00  0.00     0.061 A 
HETATM   22 CL1  UNL     1      28.832   2.621  53.731  1.00  0.00    -0.082 Cl
ENDBRANCH   1  15
TORSDOF 1
ENDMDL
MODEL 3
REMARK VINA RESULT:      -8.5      1.302      1.945
REMARK  1 active torsions:
REMARK  status: ('A' for Active; 'I' for Inactive)
REMARK    1  A    between atoms: C7_8  and  N1_9 
ROOT
HETATM    1  N1  UNL     1      22.634   0.818  52.564  1.00  0.00    -0.352 N 
HETATM    2  C8  UNL     1      23.119   2.127  52.960  1.00  0.00     0.117 C 
HETATM    3  C9  UNL     1      24.460   2.264  53.017  1.00  0.00     0.035 C 
HETATM    4  N2  UNL     1      25.685   2.947  53.240  1.00  0.00    -0.357 N 
HETATM    5  C10 UNL     1      26.691   1.951  53.189  1.00  0.00     0.039 A 
HETATM    6  C11 UNL     1      28.026   2.231  53.505  1.00  0.00     0.031 A 
HETATM    7  C12 UNL     1      28.896   1.136  53.559  1.00  0.00     0.021 A 
HETATM    8  C13 UNL     1      28.422  -0.156  53.307  1.00  0.00     0.011 A 
HETATM    9 BR1  UNL     1      29.615  -1.654  53.386  1.00  0.00    -0.051 Br
HETATM   10  C14 UNL     1      27.096  -0.406  52.994  1.00  0.00     0.029 A 
HETATM   11  C15 UNL     1      26.254   0.675  52.941  1.00  0.00    -0.019 A 
HETATM   12  C16 UNL     1      24.882   0.893  52.552  1.00  0.00     0.090 C 
HETATM   13  C17 UNL     1      23.796   0.064  53.141  1.00  0.00     0.144 C 
HETATM   14  H8  UNL     1      25.665   3.968  53.390  1.00  0.00     0.166 HD
ENDROOT
BRANCH   1  15
HETATM   15  C7  UNL     1      21.399   0.715  51.865  1.00  0.00     0.062 A 
HETATM   16  C2  UNL     1      20.212   0.193  52.335  1.00  0.00    -0.033 A 
HETATM   17  C1  UNL     1      20.241  -0.315  53.730  1.00  0.00     0.050 C 
HETATM   18  C3  UNL     1      19.094   0.165  51.526  1.00  0.00     0.009 A 
HETATM   19  C4  UNL     1      19.227   0.673  50.259  1.00  0.00     0.002 A 
HETATM   20  C5  UNL     1      20.376   1.203  49.739  1.00  0.00     0.026 A 
HETATM   21  C6  UNL     1      21.482   1.217  50.576  1.00  0.00     0.061 A 
HETATM   22 CL1  UNL     1      22.951   1.907  49.873  1.00  0.00    -0.082 Cl
ENDBRANCH   1  15
TORSDOF 1
ENDMDL
MODEL 4
REMARK VINA RESULT:      -8.4      3.228      7.187
REMARK  1 active torsions:
REMARK  status: ('A' for Active; 'I' for Inactive)
REMARK    1  A    between atoms: C7_8  and  N1_9 
ROOT
HETATM    1  N1  UNL     1      26.000   0.137  53.431  1.00  0.00    -0.352 N 
HETATM    2  C8  UNL     1      25.192  -0.330  54.544  1.00  0.00     0.117 C 
HETATM    3  C9  UNL     1      23.882  -0.516  54.281  1.00  0.00     0.035 C 
HETATM    4  N2  UNL     1      22.537  -0.860  54.578  1.00  0.00    -0.357 N 
HETATM    5  C10 UNL     1      21.783  -0.459  53.448  1.00  0.00     0.039 A 
HETATM    6  C11 UNL     1      20.384  -0.513  53.435  1.00  0.00     0.031 A 
HETATM    7  C12 UNL     1      19.750   0.046  52.318  1.00  0.00     0.021 A 
HETATM    8  C13 UNL     1      20.506   0.619  51.290  1.00  0.00     0.011 A 
HETATM    9 BR1  UNL     1      19.634   1.386  49.765  1.00  0.00    -0.051 Br
HETATM   10  C14 UNL     1      21.890   0.657  51.326  1.00  0.00     0.029 A 
HETATM   11  C15 UNL     1      22.499   0.104  52.424  1.00  0.00    -0.019 A 
HETATM   12  C16 UNL     1      23.860  -0.176  52.812  1.00  0.00     0.090 C 
HETATM   13  C17 UNL     1      24.888   0.898  52.769  1.00  0.00     0.144 C 
HETATM   14  H8  UNL     1      22.326  -1.308  55.484  1.00  0.00     0.166 HD
ENDROOT
BRANCH   1  15
HETATM   15  C7  UNL     1      27.371  -0.234  53.363  1.00  0.00     0.062 A 
HETATM   16  C2  UNL     1      27.890  -1.453  52.979  1.00  0.00    -0.033 A 
HETATM   17  C1  UNL     1      26.893  -2.485  52.596  1.00  0.00     0.050 C 
HETATM   18  C3  UNL     1      29.255  -1.656  52.966  1.00  0.00     0.009 A 
HETATM   19  C4  UNL     1      30.047  -0.604  53.348  1.00  0.00     0.002 A 
HETATM   20  C5  UNL     1      29.590   0.625  53.738  1.00  0.00     0.026 A 
HETATM   21  C6  UNL     1      28.214   0.798  53.740  1.00  0.00     0.061 A 
HETATM   22 CL1  UNL     1      27.656   2.399  54.249  1.00  0.00    -0.082 Cl
ENDBRANCH   1  15
TORSDOF 1
ENDMDL
MODEL 5
REMARK VINA RESULT:      -8.1      4.708      5.253
REMARK  1 active torsions:
REMARK  status: ('A' for Active; 'I' for Inactive)
REMARK    1  A    between atoms: C7_8  and  N1_9 
ROOT
HETATM    1  N1  UNL     1      24.112   3.213  50.405  1.00  0.00    -0.352 N 
HETATM    2  C8  UNL     1      23.771   4.620  50.523  1.00  0.00     0.117 C 
HETATM    3  C9  UNL     1      24.613   5.481  49.916  1.00  0.00     0.035 C 
HETATM    4  N2  UNL     1      25.098   6.754  49.515  1.00  0.00    -0.357 N 
HETATM    5  C10 UNL     1      26.384   6.517  48.969  1.00  0.00     0.039 A 
HETATM    6  C11 UNL     1      27.233   7.565  48.593  1.00  0.00     0.031 A 
HETATM    7  C12 UNL     1      28.529   7.207  48.206  1.00  0.00     0.021 A 
HETATM    8  C13 UNL     1      28.922   5.864  48.208  1.00  0.00     0.011 A 
HETATM    9 BR1  UNL     1      30.700   5.379  47.680  1.00  0.00    -0.051 Br
HETATM   10  C14 UNL     1      28.062   4.846  48.582  1.00  0.00     0.029 A 
HETATM   11  C15 UNL     1      26.794   5.208  48.958  1.00  0.00    -0.019 A 
HETATM   12  C16 UNL     1      25.580   4.505  49.293  1.00  0.00     0.090 C 
HETATM   13  C17 UNL     1      25.594   3.441  50.332  1.00  0.00     0.144 C 
HETATM   14  H8  UNL     1      24.502   7.583  49.663  1.00  0.00     0.166 HD
ENDROOT
BRANCH   1  15
HETATM   15  C7  UNL     1      23.072   2.243  50.401  1.00  0.00     0.062 A 
HETATM   16  C2  UNL     1      22.291   1.857  49.331  1.00  0.00    -0.033 A 
HETATM   17  C1  UNL     1      22.581   2.540  48.044  1.00  0.00     0.050 C 
HETATM   18  C3  UNL     1      21.315   0.894  49.492  1.00  0.00     0.009 A 
HETATM   19  C4  UNL     1      21.169   0.356  50.745  1.00  0.00     0.002 A 
HETATM   20  C5  UNL     1      21.912   0.699  51.841  1.00  0.00     0.026 A 
HETATM   21  C6  UNL     1      22.884   1.669  51.647  1.00  0.00     0.061 A 
HETATM   22 CL1  UNL     1      23.827   2.088  53.085  1.00  0.00    -0.082 Cl
ENDBRANCH   1  15
TORSDOF 1
ENDMDL
MODEL 6
REMARK VINA RESULT:      -7.6      4.246      5.788
REMARK  1 active torsions:
REMARK  status: ('A' for Active; 'I' for Inactive)
REMARK    1  A    between atoms: C7_8  and  N1_9 
ROOT
HETATM    1  N1  UNL     1      23.263   2.112  52.325  1.00  0.00    -0.352 N 
HETATM    2  C8  UNL     1      23.839   3.217  53.070  1.00  0.00     0.117 C 
HETATM    3  C9  UNL     1      23.756   4.428  52.482  1.00  0.00     0.035 C 
HETATM    4  N2  UNL     1      23.953   5.830  52.369  1.00  0.00    -0.357 N 
HETATM    5  C10 UNL     1      23.589   6.159  51.040  1.00  0.00     0.039 A 
HETATM    6  C11 UNL     1      23.786   7.442  50.515  1.00  0.00     0.031 A 
HETATM    7  C12 UNL     1      23.523   7.603  49.149  1.00  0.00     0.021 A 
HETATM    8  C13 UNL     1      23.088   6.518  48.381  1.00  0.00     0.011 A 
HETATM    9 BR1  UNL     1      22.732   6.741  46.511  1.00  0.00    -0.051 Br
HETATM   10  C14 UNL     1      22.899   5.259  48.925  1.00  0.00     0.029 A 
HETATM   11  C15 UNL     1      23.157   5.114  50.264  1.00  0.00    -0.019 A 
HETATM   12  C16 UNL     1      22.989   4.061  51.237  1.00  0.00     0.090 C 
HETATM   13  C17 UNL     1      23.538   2.704  50.974  1.00  0.00     0.144 C 
HETATM   14  H8  UNL     1      24.296   6.352  53.190  1.00  0.00     0.166 HD
ENDROOT
BRANCH   1  15
HETATM   15  C7  UNL     1      22.715   1.006  53.033  1.00  0.00     0.062 A 
HETATM   16  C2  UNL     1      23.384  -0.109  53.491  1.00  0.00    -0.033 A 
HETATM   17  C1  UNL     1      24.841  -0.147  53.206  1.00  0.00     0.050 C 
HETATM   18  C3  UNL     1      22.703  -1.102  54.165  1.00  0.00     0.009 A 
HETATM   19  C4  UNL     1      21.356  -0.922  54.349  1.00  0.00     0.002 A 
HETATM   20  C5  UNL     1      20.640   0.161  53.919  1.00  0.00     0.026 A 
HETATM   21  C6  UNL     1      21.353   1.142  53.245  1.00  0.00     0.061 A 
HETATM   22 CL1  UNL     1      20.397   2.529  52.701  1.00  0.00    -0.082 Cl
ENDBRANCH   1  15
TORSDOF 1
ENDMDL
MODEL 7
REMARK VINA RESULT:      -7.6      2.268      2.991
REMARK  1 active torsions:
REMARK  status: ('A' for Active; 'I' for Inactive)
REMARK    1  A    between atoms: C7_8  and  N1_9 
ROOT
HETATM    1  N1  UNL     1      23.481   2.205  51.846  1.00  0.00    -0.352 N 
HETATM    2  C8  UNL     1      24.162   3.069  52.793  1.00  0.00     0.117 C 
HETATM    3  C9  UNL     1      25.397   2.673  53.165  1.00  0.00     0.035 C 
HETATM    4  N2  UNL     1      26.627   2.757  53.869  1.00  0.00    -0.357 N 
HETATM    5  C10 UNL     1      27.275   1.515  53.653  1.00  0.00     0.039 A 
HETATM    6  C11 UNL     1      28.462   1.175  54.313  1.00  0.00     0.031 A 
HETATM    7  C12 UNL     1      28.924  -0.133  54.127  1.00  0.00     0.021 A 
HETATM    8  C13 UNL     1      28.212  -1.026  53.319  1.00  0.00     0.011 A 
HETATM    9 BR1  UNL     1      28.847  -2.817  53.070  1.00  0.00    -0.051 Br
HETATM   10  C14 UNL     1      27.041  -0.664  52.675  1.00  0.00     0.029 A 
HETATM   11  C15 UNL     1      26.599   0.621  52.863  1.00  0.00    -0.019 A 
HETATM   12  C16 UNL     1      25.541   1.436  52.316  1.00  0.00     0.090 C 
HETATM   13  C17 UNL     1      24.138   0.942  52.320  1.00  0.00     0.144 C 
HETATM   14  H8  UNL     1      26.849   3.624  54.384  1.00  0.00     0.166 HD
ENDROOT
BRANCH   1  15
HETATM   15  C7  UNL     1      22.556   2.773  50.927  1.00  0.00     0.062 A 
HETATM   16  C2  UNL     1      21.186   2.855  51.060  1.00  0.00    -0.033 A 
HETATM   17  C1  UNL     1      20.626   2.282  52.311  1.00  0.00     0.050 C 
HETATM   18  C3  UNL     1      20.422   3.440  50.071  1.00  0.00     0.009 A 
HETATM   19  C4  UNL     1      21.087   3.924  48.973  1.00  0.00     0.002 A 
HETATM   20  C5  UNL     1      22.441   3.871  48.785  1.00  0.00     0.026 A 
HETATM   21  C6  UNL     1      23.180   3.277  49.797  1.00  0.00     0.061 A 
HETATM   22 CL1  UNL     1      24.928   3.225  49.523  1.00  0.00    -0.082 Cl
ENDBRANCH   1  15
TORSDOF 1
ENDMDL
MODEL 8
REMARK VINA RESULT:      -7.6      5.234      5.976
REMARK  1 active torsions:
REMARK  status: ('A' for Active; 'I' for Inactive)
REMARK    1  A    between atoms: C7_8  and  N1_9 
ROOT
HETATM    1  N1  UNL     1      24.077   3.470  50.300  1.00  0.00    -0.352 N 
HETATM    2  C8  UNL     1      23.872   4.600  51.189  1.00  0.00     0.117 C 
HETATM    3  C9  UNL     1      24.534   5.730  50.865  1.00  0.00     0.035 C 
HETATM    4  N2  UNL     1      24.945   7.080  51.019  1.00  0.00    -0.357 N 
HETATM    5  C10 UNL     1      25.983   7.273  50.073  1.00  0.00     0.039 A 
HETATM    6  C11 UNL     1      26.733   8.454  50.028  1.00  0.00     0.031 A 
HETATM    7  C12 UNL     1      27.823   8.466  49.149  1.00  0.00     0.021 A 
HETATM    8  C13 UNL     1      28.118   7.339  48.374  1.00  0.00     0.011 A 
HETATM    9 BR1  UNL     1      29.613   7.358  47.175  1.00  0.00    -0.051 Br
HETATM   10  C14 UNL     1      27.358   6.183  48.436  1.00  0.00     0.029 A 
HETATM   11  C15 UNL     1      26.291   6.184  49.299  1.00  0.00    -0.019 A 
HETATM   12  C16 UNL     1      25.202   5.284  49.589  1.00  0.00     0.090 C 
HETATM   13  C17 UNL     1      25.475   3.858  49.912  1.00  0.00     0.144 C 
HETATM   14  H8  UNL     1      24.473   7.667  51.725  1.00  0.00     0.166 HD
ENDROOT
BRANCH   1  15
HETATM   15  C7  UNL     1      23.032   2.521  50.129  1.00  0.00     0.062 A 
HETATM   16  C2  UNL     1      22.716   1.465  50.958  1.00  0.00    -0.033 A 
HETATM   17  C1  UNL     1      23.572   1.315  52.162  1.00  0.00     0.050 C 
HETATM   18  C3  UNL     1      21.664   0.627  50.649  1.00  0.00     0.009 A 
HETATM   19  C4  UNL     1      20.967   0.897  49.499  1.00  0.00     0.002 A 
HETATM   20  C5  UNL     1      21.234   1.927  48.640  1.00  0.00     0.026 A 
HETATM   21  C6  UNL     1      22.297   2.752  48.977  1.00  0.00     0.061 A 
HETATM   22 CL1  UNL     1      22.615   4.074  47.845  1.00  0.00    -0.082 Cl
ENDBRANCH   1  15
TORSDOF 1
ENDMDL
MODEL 9
REMARK VINA RESULT:      -7.5      4.508      5.911
REMARK  1 active torsions:
REMARK  status: ('A' for Active; 'I' for Inactive)
REMARK    1  A    between atoms: C7_8  and  N1_9 
ROOT
HETATM    1  N1  UNL     1      23.162   2.416  52.117  1.00  0.00    -0.352 N 
HETATM    2  C8  UNL     1      23.741   3.464  52.938  1.00  0.00     0.117 C 
HETATM    3  C9  UNL     1      23.742   4.700  52.397  1.00  0.00     0.035 C 
HETATM    4  N2  UNL     1      24.004   6.095  52.353  1.00  0.00    -0.357 N 
HETATM    5  C10 UNL     1      23.732   6.491  51.020  1.00  0.00     0.039 A 
HETATM    6  C11 UNL     1      24.013   7.784  50.560  1.00  0.00     0.031 A 
HETATM    7  C12 UNL     1      23.837   8.009  49.190  1.00  0.00     0.021 A 
HETATM    8  C13 UNL     1      23.402   6.975  48.354  1.00  0.00     0.011 A 
HETATM    9 BR1  UNL     1      23.164   7.286  46.478  1.00  0.00    -0.051 Br
HETATM   10  C14 UNL     1      23.128   5.705  48.835  1.00  0.00     0.029 A 
HETATM   11  C15 UNL     1      23.302   5.497  50.179  1.00  0.00    -0.019 A 
HETATM   12  C16 UNL     1      23.034   4.416  51.096  1.00  0.00     0.090 C 
HETATM   13  C17 UNL     1      23.539   3.047  50.808  1.00  0.00     0.144 C 
HETATM   14  H8  UNL     1      24.322   6.569  53.213  1.00  0.00     0.166 HD
ENDROOT
BRANCH   1  15
HETATM   15  C7  UNL     1      22.528   1.309  52.746  1.00  0.00     0.062 A 
HETATM   16  C2  UNL     1      21.189   1.172  53.049  1.00  0.00    -0.033 A 
HETATM   17  C1  UNL     1      20.323   2.317  52.668  1.00  0.00     0.050 C 
HETATM   18  C3  UNL     1      20.728   0.027  53.666  1.00  0.00     0.009 A 
HETATM   19  C4  UNL     1      21.653  -0.943  53.955  1.00  0.00     0.002 A 
HETATM   20  C5  UNL     1      22.991  -0.863  53.680  1.00  0.00     0.026 A 
HETATM   21  C6  UNL     1      23.423   0.300  53.059  1.00  0.00     0.061 A 
HETATM   22 CL1  UNL     1      25.158   0.371  52.717  1.00  0.00    -0.082 Cl
ENDBRANCH   1  15
TORSDOF 1
ENDMDL
