MODEL 1
REMARK VINA RESULT:      -8.4      0.000      0.000
REMARK  6 active torsions:
REMARK  status: ('A' for Active; 'I' for Inactive)
REMARK    1  A    between atoms: C3_3  and  C4_5 
REMARK    2  A    between atoms: C5_6  and  P1_7 
REMARK    3  A    between atoms: N3_17  and  N4_18 
REMARK    4  A    between atoms: N4_18  and  C13_19 
REMARK    5  A    between atoms: C13_19  and  C14_20 
REMARK    6  A    between atoms: C14_20  and  N5_21 
ROOT
HETATM    1  P1  UNL     1      21.514   0.629  52.860  1.00  0.00     0.070 P 
HETATM    2  N1  UNL     1      20.532  -0.637  53.717  1.00  0.00    -0.247 NA
HETATM    3  C6  UNL     1      21.183  -1.433  54.474  1.00  0.00     0.207 A 
HETATM    4  N2  UNL     1      22.540  -1.551  54.803  1.00  0.00    -0.350 N 
HETATM    5  C7  UNL     1      23.574  -0.712  54.301  1.00  0.00     0.049 A 
HETATM    6  C8  UNL     1      24.898  -0.904  54.685  1.00  0.00     0.069 A 
HETATM    7  C9  UNL     1      25.897  -0.099  54.206  1.00  0.00     0.100 A 
HETATM    8  C10 UNL     1      25.554   0.911  53.330  1.00  0.00     0.088 A 
HETATM    9  C11 UNL     1      24.249   1.124  52.934  1.00  0.00     0.050 A 
HETATM   10  C12 UNL     1      23.252   0.308  53.420  1.00  0.00     0.024 A 
HETATM   11  N3  UNL     1      26.513   1.800  52.778  1.00  0.00    -0.241 N 
HETATM   12  C19 UNL     1      27.887   1.605  53.174  1.00  0.00     0.263 C 
HETATM   13  O2  UNL     1      28.771   2.513  53.002  1.00  0.00    -0.269 OA
HETATM   14  C20 UNL     1      28.292   0.300  53.804  1.00  0.00     0.280 C 
HETATM   15  O3  UNL     1      27.230  -0.247  54.556  1.00  0.00    -0.340 OA
HETATM   16  H8  UNL     1      22.861  -2.297  55.461  1.00  0.00     0.166 HD
ENDROOT
BRANCH  11  17
HETATM   17  N4  UNL     1      26.312   2.840  51.905  1.00  0.00    -0.229 NA
HETATM   18  H11 UNL     1      25.412   3.338  52.070  1.00  0.00     0.147 HD
BRANCH  17  19
HETATM   19  C13 UNL     1      26.408   2.527  50.514  1.00  0.00     0.141 C 
BRANCH  19  20
HETATM   20  C14 UNL     1      25.854   3.614  49.622  1.00  0.00     0.288 C 
BRANCH  20  21
HETATM   21  N5  UNL     1      26.420   4.929  49.915  1.00  0.00     0.093 N 
HETATM   22  C15 UNL     1      25.240   5.781  50.132  1.00  0.00     0.298 C 
HETATM   23  C16 UNL     1      25.609   7.237  50.223  1.00  0.00     0.198 C 
HETATM   24  O1  UNL     1      26.504   7.623  49.228  1.00  0.00    -0.388 OA
HETATM   25  C17 UNL     1      26.450   6.701  48.199  1.00  0.00     0.198 C 
HETATM   26  C18 UNL     1      27.102   5.420  48.732  1.00  0.00     0.298 C 
ENDBRANCH  20  21
ENDBRANCH  19  20
ENDBRANCH  17  19
ENDBRANCH  11  17
BRANCH   1  27
HETATM   27  C5  UNL     1      21.363   0.267  51.076  1.00  0.00     0.038 C 
HETATM   28  C4  UNL     1      21.427   1.166  50.109  1.00  0.00     0.045 C 
BRANCH  28  29
HETATM   29  C3  UNL     1      21.632   2.573  50.426  1.00  0.00     0.112 C 
HETATM   30  C2  UNL     1      20.583   3.364  50.418  1.00  0.00     0.011 C 
HETATM   31  C1  UNL     1      20.540   4.804  50.700  1.00  0.00     0.039 C 
HETATM   32  F1  UNL     1      22.853   3.043  50.714  1.00  0.00    -0.206 F 
ENDBRANCH  28  29
ENDBRANCH   1  27
TORSDOF 6
ENDMDL
MODEL 2
REMARK VINA RESULT:      -8.3      1.768      2.281
REMARK  6 active torsions:
REMARK  status: ('A' for Active; 'I' for Inactive)
REMARK    1  A    between atoms: C3_3  and  C4_5 
REMARK    2  A    between atoms: C5_6  and  P1_7 
REMARK    3  A    between atoms: N3_17  and  N4_18 
REMARK    4  A    between atoms: N4_18  and  C13_19 
REMARK    5  A    between atoms: C13_19  and  C14_20 
REMARK    6  A    between atoms: C14_20  and  N5_21 
ROOT
HETATM    1  P1  UNL     1      21.594   0.705  52.848  1.00  0.00     0.070 P 
HETATM    2  N1  UNL     1      20.580  -0.584  53.630  1.00  0.00    -0.247 NA
HETATM    3  C6  UNL     1      21.204  -1.409  54.380  1.00  0.00     0.207 A 
HETATM    4  N2  UNL     1      22.548  -1.546  54.747  1.00  0.00    -0.350 N 
HETATM    5  C7  UNL     1      23.601  -0.695  54.306  1.00  0.00     0.049 A 
HETATM    6  C8  UNL     1      24.912  -0.907  54.725  1.00  0.00     0.069 A 
HETATM    7  C9  UNL     1      25.929  -0.092  54.305  1.00  0.00     0.100 A 
HETATM    8  C10 UNL     1      25.618   0.949  53.452  1.00  0.00     0.088 A 
HETATM    9  C11 UNL     1      24.327   1.182  53.023  1.00  0.00     0.050 A 
HETATM   10  C12 UNL     1      23.312   0.355  53.451  1.00  0.00     0.024 A 
HETATM   11  N3  UNL     1      26.598   1.851  52.962  1.00  0.00    -0.241 N 
HETATM   12  C19 UNL     1      27.958   1.635  53.394  1.00  0.00     0.263 C 
HETATM   13  O2  UNL     1      28.851   2.544  53.280  1.00  0.00    -0.269 OA
HETATM   14  C20 UNL     1      28.337   0.307  53.992  1.00  0.00     0.280 C 
HETATM   15  O3  UNL     1      27.250  -0.259  54.691  1.00  0.00    -0.340 OA
HETATM   16  H8  UNL     1      22.845  -2.315  55.389  1.00  0.00     0.166 HD
ENDROOT
BRANCH  11  17
HETATM   17  N4  UNL     1      26.429   2.921  52.119  1.00  0.00    -0.229 NA
HETATM   18  H11 UNL     1      25.551   3.450  52.307  1.00  0.00     0.147 HD
BRANCH  17  19
HETATM   19  C13 UNL     1      26.495   2.641  50.718  1.00  0.00     0.141 C 
BRANCH  19  20
HETATM   20  C14 UNL     1      25.489   3.425  49.909  1.00  0.00     0.288 C 
BRANCH  20  21
HETATM   21  N5  UNL     1      24.489   4.090  50.741  1.00  0.00     0.093 N 
HETATM   22  C15 UNL     1      23.212   3.528  50.274  1.00  0.00     0.298 C 
HETATM   23  C16 UNL     1      22.031   4.259  50.855  1.00  0.00     0.198 C 
HETATM   24  O1  UNL     1      22.181   5.642  50.799  1.00  0.00    -0.388 OA
HETATM   25  C17 UNL     1      23.136   5.948  49.846  1.00  0.00     0.198 C 
HETATM   26  C18 UNL     1      24.483   5.507  50.427  1.00  0.00     0.298 C 
ENDBRANCH  20  21
ENDBRANCH  19  20
ENDBRANCH  17  19
ENDBRANCH  11  17
BRANCH   1  27
HETATM   27  C5  UNL     1      21.498   0.403  51.048  1.00  0.00     0.038 C 
HETATM   28  C4  UNL     1      20.438   0.639  50.294  1.00  0.00     0.045 C 
BRANCH  28  29
HETATM   29  C3  UNL     1      19.222   1.182  50.883  1.00  0.00     0.112 C 
HETATM   30  C2  UNL     1      18.203   0.369  51.048  1.00  0.00     0.011 C 
HETATM   31  C1  UNL     1      16.886   0.682  51.613  1.00  0.00     0.039 C 
HETATM   32  F1  UNL     1      19.147   2.471  51.242  1.00  0.00    -0.206 F 
ENDBRANCH  28  29
ENDBRANCH   1  27
TORSDOF 6
ENDMDL
MODEL 3
REMARK VINA RESULT:      -8.2      3.167      5.747
REMARK  6 active torsions:
REMARK  status: ('A' for Active; 'I' for Inactive)
REMARK    1  A    between atoms: C3_3  and  C4_5 
REMARK    2  A    between atoms: C5_6  and  P1_7 
REMARK    3  A    between atoms: N3_17  and  N4_18 
REMARK    4  A    between atoms: N4_18  and  C13_19 
REMARK    5  A    between atoms: C13_19  and  C14_20 
REMARK    6  A    between atoms: C14_20  and  N5_21 
ROOT
HETATM    1  P1  UNL     1      25.191  -0.236  53.793  1.00  0.00     0.070 P 
HETATM    2  N1  UNL     1      25.508  -1.055  55.385  1.00  0.00    -0.247 NA
HETATM    3  C6  UNL     1      24.479  -1.490  56.004  1.00  0.00     0.207 A 
HETATM    4  N2  UNL     1      23.108  -1.477  55.718  1.00  0.00    -0.350 N 
HETATM    5  C7  UNL     1      22.528  -0.911  54.548  1.00  0.00     0.049 A 
HETATM    6  C8  UNL     1      21.150  -0.943  54.347  1.00  0.00     0.069 A 
HETATM    7  C9  UNL     1      20.586  -0.401  53.224  1.00  0.00     0.100 A 
HETATM    8  C10 UNL     1      21.424   0.181  52.292  1.00  0.00     0.088 A 
HETATM    9  C11 UNL     1      22.792   0.227  52.467  1.00  0.00     0.050 A 
HETATM   10  C12 UNL     1      23.349  -0.321  53.601  1.00  0.00     0.024 A 
HETATM   11  N3  UNL     1      20.940   0.769  51.095  1.00  0.00    -0.241 N 
HETATM   12  C19 UNL     1      19.512   0.737  50.882  1.00  0.00     0.263 C 
HETATM   13  O2  UNL     1      19.001   0.941  49.728  1.00  0.00    -0.269 OA
HETATM   14  C20 UNL     1      18.602   0.457  52.048  1.00  0.00     0.280 C 
HETATM   15  O3  UNL     1      19.223  -0.407  52.975  1.00  0.00    -0.340 OA
HETATM   16  H8  UNL     1      22.425  -1.901  56.385  1.00  0.00     0.166 HD
ENDROOT
BRANCH  11  17
HETATM   17  N4  UNL     1      21.654   1.375  50.091  1.00  0.00    -0.229 NA
HETATM   18  H11 UNL     1      22.647   1.062  50.055  1.00  0.00     0.147 HD
BRANCH  17  19
HETATM   19  C13 UNL     1      21.629   2.804  50.068  1.00  0.00     0.141 C 
BRANCH  19  20
HETATM   20  C14 UNL     1      22.878   3.428  50.644  1.00  0.00     0.288 C 
BRANCH  20  21
HETATM   21  N5  UNL     1      24.023   3.338  49.741  1.00  0.00     0.093 N 
HETATM   22  C15 UNL     1      25.151   3.022  50.630  1.00  0.00     0.298 C 
HETATM   23  C16 UNL     1      26.472   3.114  49.915  1.00  0.00     0.198 C 
HETATM   24  O1  UNL     1      26.576   4.262  49.134  1.00  0.00    -0.388 OA
HETATM   25  C17 UNL     1      25.648   5.187  49.576  1.00  0.00     0.198 C 
HETATM   26  C18 UNL     1      24.272   4.649  49.168  1.00  0.00     0.298 C 
ENDBRANCH  20  21
ENDBRANCH  19  20
ENDBRANCH  17  19
ENDBRANCH  11  17
BRANCH   1  27
HETATM   27  C5  UNL     1      25.711   1.503  54.005  1.00  0.00     0.038 C 
HETATM   28  C4  UNL     1      26.900   1.985  53.688  1.00  0.00     0.045 C 
BRANCH  28  29
HETATM   29  C3  UNL     1      27.919   1.113  53.120  1.00  0.00     0.112 C 
HETATM   30  C2  UNL     1      28.909   0.737  53.898  1.00  0.00     0.011 C 
HETATM   31  C1  UNL     1      30.043  -0.128  53.554  1.00  0.00     0.039 C 
HETATM   32  F1  UNL     1      27.847   0.711  51.843  1.00  0.00    -0.206 F 
ENDBRANCH  28  29
ENDBRANCH   1  27
TORSDOF 6
ENDMDL
MODEL 4
REMARK VINA RESULT:      -7.6      3.048      5.000
REMARK  6 active torsions:
REMARK  status: ('A' for Active; 'I' for Inactive)
REMARK    1  A    between atoms: C3_3  and  C4_5 
REMARK    2  A    between atoms: C5_6  and  P1_7 
REMARK    3  A    between atoms: N3_17  and  N4_18 
REMARK    4  A    between atoms: N4_18  and  C13_19 
REMARK    5  A    between atoms: C13_19  and  C14_20 
REMARK    6  A    between atoms: C14_20  and  N5_21 
ROOT
HETATM    1  P1  UNL     1      25.234  -0.196  53.639  1.00  0.00     0.070 P 
HETATM    2  N1  UNL     1      25.135  -1.224  55.135  1.00  0.00    -0.247 NA
HETATM    3  C6  UNL     1      23.962  -1.431  55.595  1.00  0.00     0.207 A 
HETATM    4  N2  UNL     1      22.685  -1.026  55.187  1.00  0.00    -0.350 N 
HETATM    5  C7  UNL     1      22.415  -0.212  54.050  1.00  0.00     0.049 A 
HETATM    6  C8  UNL     1      21.110   0.141  53.719  1.00  0.00     0.069 A 
HETATM    7  C9  UNL     1      20.844   0.923  52.627  1.00  0.00     0.100 A 
HETATM    8  C10 UNL     1      21.909   1.352  51.860  1.00  0.00     0.088 A 
HETATM    9  C11 UNL     1      23.212   1.016  52.166  1.00  0.00     0.050 A 
HETATM   10  C12 UNL     1      23.469   0.230  53.267  1.00  0.00     0.024 A 
HETATM   11  N3  UNL     1      21.741   2.164  50.708  1.00  0.00    -0.241 N 
HETATM   12  C19 UNL     1      20.389   2.532  50.361  1.00  0.00     0.263 C 
HETATM   13  O2  UNL     1      20.092   2.978  49.200  1.00  0.00    -0.269 OA
HETATM   14  C20 UNL     1      19.301   2.389  51.391  1.00  0.00     0.280 C 
HETATM   15  O3  UNL     1      19.564   1.303  52.254  1.00  0.00    -0.340 OA
HETATM   16  H8  UNL     1      21.840  -1.318  55.727  1.00  0.00     0.166 HD
ENDROOT
BRANCH  11  17
HETATM   17  N4  UNL     1      22.703   2.655  49.861  1.00  0.00    -0.229 NA
HETATM   18  H11 UNL     1      23.574   2.085  49.864  1.00  0.00     0.147 HD
BRANCH  17  19
HETATM   19  C13 UNL     1      23.061   4.028  50.037  1.00  0.00     0.141 C 
BRANCH  19  20
HETATM   20  C14 UNL     1      23.228   4.769  48.731  1.00  0.00     0.288 C 
BRANCH  20  21
HETATM   21  N5  UNL     1      23.875   6.068  48.897  1.00  0.00     0.093 N 
HETATM   22  C15 UNL     1      24.599   5.942  50.171  1.00  0.00     0.298 C 
HETATM   23  C16 UNL     1      25.150   7.263  50.637  1.00  0.00     0.198 C 
HETATM   24  O1  UNL     1      24.221   8.295  50.529  1.00  0.00    -0.388 OA
HETATM   25  C17 UNL     1      22.954   7.747  50.454  1.00  0.00     0.198 C 
HETATM   26  C18 UNL     1      22.852   7.083  49.076  1.00  0.00     0.298 C 
ENDBRANCH  20  21
ENDBRANCH  19  20
ENDBRANCH  17  19
ENDBRANCH  11  17
BRANCH   1  27
HETATM   27  C5  UNL     1      26.146   1.313  54.120  1.00  0.00     0.038 C 
HETATM   28  C4  UNL     1      26.764   2.127  53.282  1.00  0.00     0.045 C 
BRANCH  28  29
HETATM   29  C3  UNL     1      26.754   1.856  51.851  1.00  0.00     0.112 C 
HETATM   30  C2  UNL     1      26.550   2.866  51.036  1.00  0.00     0.011 C 
HETATM   31  C1  UNL     1      26.496   2.841  49.570  1.00  0.00     0.039 C 
HETATM   32  F1  UNL     1      26.946   0.615  51.384  1.00  0.00    -0.206 F 
ENDBRANCH  28  29
ENDBRANCH   1  27
TORSDOF 6
ENDMDL
MODEL 5
REMARK VINA RESULT:      -7.5      1.586      2.107
REMARK  6 active torsions:
REMARK  status: ('A' for Active; 'I' for Inactive)
REMARK    1  A    between atoms: C3_3  and  C4_5 
REMARK    2  A    between atoms: C5_6  and  P1_7 
REMARK    3  A    between atoms: N3_17  and  N4_18 
REMARK    4  A    between atoms: N4_18  and  C13_19 
REMARK    5  A    between atoms: C13_19  and  C14_20 
REMARK    6  A    between atoms: C14_20  and  N5_21 
ROOT
HETATM    1  P1  UNL     1      20.090   1.605  52.004  1.00  0.00     0.070 P 
HETATM    2  N1  UNL     1      18.751   0.417  52.316  1.00  0.00    -0.247 NA
HETATM    3  C6  UNL     1      19.072  -0.628  52.977  1.00  0.00     0.207 A 
HETATM    4  N2  UNL     1      20.275  -1.078  53.537  1.00  0.00    -0.350 N 
HETATM    5  C7  UNL     1      21.513  -0.380  53.471  1.00  0.00     0.049 A 
HETATM    6  C8  UNL     1      22.661  -0.905  54.059  1.00  0.00     0.069 A 
HETATM    7  C9  UNL     1      23.855  -0.238  54.000  1.00  0.00     0.100 A 
HETATM    8  C10 UNL     1      23.890   0.974  53.339  1.00  0.00     0.088 A 
HETATM    9  C11 UNL     1      22.768   1.518  52.748  1.00  0.00     0.050 A 
HETATM   10  C12 UNL     1      21.571   0.838  52.813  1.00  0.00     0.024 A 
HETATM   11  N3  UNL     1      25.076   1.745  53.223  1.00  0.00    -0.241 N 
HETATM   12  C19 UNL     1      26.268   1.204  53.832  1.00  0.00     0.263 C 
HETATM   13  O2  UNL     1      27.293   1.933  54.065  1.00  0.00    -0.269 OA
HETATM   14  C20 UNL     1      26.307  -0.255  54.201  1.00  0.00     0.280 C 
HETATM   15  O3  UNL     1      25.025  -0.716  54.568  1.00  0.00    -0.340 OA
HETATM   16  H8  UNL     1      20.311  -1.988  54.049  1.00  0.00     0.166 HD
ENDROOT
BRANCH  11  17
HETATM   17  N4  UNL     1      25.251   2.956  52.601  1.00  0.00    -0.229 NA
HETATM   18  H11 UNL     1      24.382   3.530  52.582  1.00  0.00     0.147 HD
BRANCH  17  19
HETATM   19  C13 UNL     1      25.798   2.918  51.281  1.00  0.00     0.141 C 
BRANCH  19  20
HETATM   20  C14 UNL     1      24.793   3.283  50.213  1.00  0.00     0.288 C 
BRANCH  20  21
HETATM   21  N5  UNL     1      25.373   4.091  49.144  1.00  0.00     0.093 N 
HETATM   22  C15 UNL     1      26.814   4.088  49.440  1.00  0.00     0.298 C 
HETATM   23  C16 UNL     1      27.568   5.063  48.576  1.00  0.00     0.198 C 
HETATM   24  O1  UNL     1      26.934   6.300  48.492  1.00  0.00    -0.388 OA
HETATM   25  C17 UNL     1      26.059   6.425  49.556  1.00  0.00     0.198 C 
HETATM   26  C18 UNL     1      24.903   5.458  49.279  1.00  0.00     0.298 C 
ENDBRANCH  20  21
ENDBRANCH  19  20
ENDBRANCH  17  19
ENDBRANCH  11  17
BRANCH   1  27
HETATM   27  C5  UNL     1      20.325   1.642  50.193  1.00  0.00     0.038 C 
HETATM   28  C4  UNL     1      20.395   2.738  49.457  1.00  0.00     0.045 C 
BRANCH  28  29
HETATM   29  C3  UNL     1      20.284   4.050  50.080  1.00  0.00     0.112 C 
HETATM   30  C2  UNL     1      21.392   4.722  50.297  1.00  0.00     0.011 C 
HETATM   31  C1  UNL     1      21.533   6.050  50.906  1.00  0.00     0.039 C 
HETATM   32  F1  UNL     1      19.089   4.552  50.420  1.00  0.00    -0.206 F 
ENDBRANCH  28  29
ENDBRANCH   1  27
TORSDOF 6
ENDMDL
MODEL 6
REMARK VINA RESULT:      -7.5      3.946      6.637
REMARK  6 active torsions:
REMARK  status: ('A' for Active; 'I' for Inactive)
REMARK    1  A    between atoms: C3_3  and  C4_5 
REMARK    2  A    between atoms: C5_6  and  P1_7 
REMARK    3  A    between atoms: N3_17  and  N4_18 
REMARK    4  A    between atoms: N4_18  and  C13_19 
REMARK    5  A    between atoms: C13_19  and  C14_20 
REMARK    6  A    between atoms: C14_20  and  N5_21 
ROOT
HETATM    1  P1  UNL     1      23.053   0.028  52.815  1.00  0.00     0.070 P 
HETATM    2  N1  UNL     1      23.434  -0.771  54.403  1.00  0.00    -0.247 NA
HETATM    3  C6  UNL     1      22.436  -1.245  55.044  1.00  0.00     0.207 A 
HETATM    4  N2  UNL     1      21.061  -1.289  54.785  1.00  0.00    -0.350 N 
HETATM    5  C7  UNL     1      20.435  -0.752  53.625  1.00  0.00     0.049 A 
HETATM    6  C8  UNL     1      19.057  -0.842  53.451  1.00  0.00     0.069 A 
HETATM    7  C9  UNL     1      18.449  -0.328  52.337  1.00  0.00     0.100 A 
HETATM    8  C10 UNL     1      19.243   0.284  51.387  1.00  0.00     0.088 A 
HETATM    9  C11 UNL     1      20.612   0.386  51.534  1.00  0.00     0.050 A 
HETATM   10  C12 UNL     1      21.213  -0.133  52.660  1.00  0.00     0.024 A 
HETATM   11  N3  UNL     1      18.712   0.846  50.197  1.00  0.00    -0.241 N 
HETATM   12  C19 UNL     1      17.284   0.754  50.013  1.00  0.00     0.263 C 
HETATM   13  O2  UNL     1      16.742   0.932  48.868  1.00  0.00    -0.269 OA
HETATM   14  C20 UNL     1      16.409   0.442  51.196  1.00  0.00     0.280 C 
HETATM   15  O3  UNL     1      17.082  -0.392  52.115  1.00  0.00    -0.340 OA
HETATM   16  H8  UNL     1      20.409  -1.738  55.466  1.00  0.00     0.166 HD
ENDROOT
BRANCH  11  17
HETATM   17  N4  UNL     1      19.381   1.476  49.177  1.00  0.00    -0.229 NA
HETATM   18  H11 UNL     1      20.344   1.105  49.034  1.00  0.00     0.147 HD
BRANCH  17  19
HETATM   19  C13 UNL     1      19.454   2.902  49.252  1.00  0.00     0.141 C 
BRANCH  19  20
HETATM   20  C14 UNL     1      20.756   3.458  48.725  1.00  0.00     0.288 C 
BRANCH  20  21
HETATM   21  N5  UNL     1      21.281   4.544  49.550  1.00  0.00     0.093 N 
HETATM   22  C15 UNL     1      22.617   4.072  49.945  1.00  0.00     0.298 C 
HETATM   23  C16 UNL     1      23.237   4.956  50.993  1.00  0.00     0.198 C 
HETATM   24  O1  UNL     1      22.345   5.280  52.013  1.00  0.00    -0.388 OA
HETATM   25  C17 UNL     1      21.313   4.359  52.010  1.00  0.00     0.198 C 
HETATM   26  C18 UNL     1      20.480   4.648  50.756  1.00  0.00     0.298 C 
ENDBRANCH  20  21
ENDBRANCH  19  20
ENDBRANCH  17  19
ENDBRANCH  11  17
BRANCH   1  27
HETATM   27  C5  UNL     1      23.505   1.788  53.011  1.00  0.00     0.038 C 
HETATM   28  C4  UNL     1      24.740   2.251  53.091  1.00  0.00     0.045 C 
BRANCH  28  29
HETATM   29  C3  UNL     1      25.874   1.339  53.024  1.00  0.00     0.112 C 
HETATM   30  C2  UNL     1      26.510   1.067  54.141  1.00  0.00     0.011 C 
HETATM   31  C1  UNL     1      27.671   0.187  54.322  1.00  0.00     0.039 C 
HETATM   32  F1  UNL     1      26.253   0.796  51.859  1.00  0.00    -0.206 F 
ENDBRANCH  28  29
ENDBRANCH   1  27
TORSDOF 6
ENDMDL
MODEL 7
REMARK VINA RESULT:      -7.4      3.224      6.654
REMARK  6 active torsions:
REMARK  status: ('A' for Active; 'I' for Inactive)
REMARK    1  A    between atoms: C3_3  and  C4_5 
REMARK    2  A    between atoms: C5_6  and  P1_7 
REMARK    3  A    between atoms: N3_17  and  N4_18 
REMARK    4  A    between atoms: N4_18  and  C13_19 
REMARK    5  A    between atoms: C13_19  and  C14_20 
REMARK    6  A    between atoms: C14_20  and  N5_21 
ROOT
HETATM    1  P1  UNL     1      23.888   3.555  50.445  1.00  0.00     0.070 P 
HETATM    2  N1  UNL     1      25.436   4.080  49.650  1.00  0.00    -0.247 NA
HETATM    3  C6  UNL     1      26.490   3.455  50.011  1.00  0.00     0.207 A 
HETATM    4  N2  UNL     1      26.727   2.416  50.919  1.00  0.00    -0.350 N 
HETATM    5  C7  UNL     1      25.726   1.779  51.706  1.00  0.00     0.049 A 
HETATM    6  C8  UNL     1      26.055   0.751  52.584  1.00  0.00     0.069 A 
HETATM    7  C9  UNL     1      25.096   0.135  53.343  1.00  0.00     0.100 A 
HETATM    8  C10 UNL     1      23.789   0.563  53.212  1.00  0.00     0.088 A 
HETATM    9  C11 UNL     1      23.436   1.580  52.348  1.00  0.00     0.050 A 
HETATM   10  C12 UNL     1      24.409   2.194  51.590  1.00  0.00     0.024 A 
HETATM   11  N3  UNL     1      22.722  -0.011  53.951  1.00  0.00    -0.241 N 
HETATM   12  C19 UNL     1      23.059  -1.078  54.863  1.00  0.00     0.263 C 
HETATM   13  O2  UNL     1      22.168  -1.866  55.332  1.00  0.00    -0.269 OA
HETATM   14  C20 UNL     1      24.494  -1.268  55.273  1.00  0.00     0.280 C 
HETATM   15  O3  UNL     1      25.370  -0.893  54.232  1.00  0.00    -0.340 OA
HETATM   16  H8  UNL     1      27.695   2.049  51.062  1.00  0.00     0.166 HD
ENDROOT
BRANCH  11  17
HETATM   17  N4  UNL     1      21.389   0.313  53.918  1.00  0.00    -0.229 NA
HETATM   18  H11 UNL     1      20.959   0.358  54.866  1.00  0.00     0.147 HD
BRANCH  17  19
HETATM   19  C13 UNL     1      20.559  -0.499  53.084  1.00  0.00     0.141 C 
BRANCH  19  20
HETATM   20  C14 UNL     1      20.069   0.224  51.851  1.00  0.00     0.288 C 
BRANCH  20  21
HETATM   21  N5  UNL     1      18.659   0.594  51.936  1.00  0.00     0.093 N 
HETATM   22  C15 UNL     1      18.002  -0.628  52.427  1.00  0.00     0.298 C 
HETATM   23  C16 UNL     1      16.502  -0.522  52.364  1.00  0.00     0.198 C 
HETATM   24  O1  UNL     1      16.055   0.002  51.154  1.00  0.00    -0.388 OA
HETATM   25  C17 UNL     1      17.055  -0.141  50.210  1.00  0.00     0.198 C 
HETATM   26  C18 UNL     1      18.159   0.850  50.597  1.00  0.00     0.298 C 
ENDBRANCH  20  21
ENDBRANCH  19  20
ENDBRANCH  17  19
ENDBRANCH  11  17
BRANCH   1  27
HETATM   27  C5  UNL     1      23.304   4.989  51.415  1.00  0.00     0.038 C 
HETATM   28  C4  UNL     1      22.037   5.291  51.637  1.00  0.00     0.045 C 
BRANCH  28  29
HETATM   29  C3  UNL     1      20.975   4.455  51.095  1.00  0.00     0.112 C 
HETATM   30  C2  UNL     1      20.378   4.856  49.996  1.00  0.00     0.011 C 
HETATM   31  C1  UNL     1      19.290   4.190  49.270  1.00  0.00     0.039 C 
HETATM   32  F1  UNL     1      20.621   3.313  51.701  1.00  0.00    -0.206 F 
ENDBRANCH  28  29
ENDBRANCH   1  27
TORSDOF 6
ENDMDL
MODEL 8
REMARK VINA RESULT:      -7.2      2.726      5.985
REMARK  6 active torsions:
REMARK  status: ('A' for Active; 'I' for Inactive)
REMARK    1  A    between atoms: C3_3  and  C4_5 
REMARK    2  A    between atoms: C5_6  and  P1_7 
REMARK    3  A    between atoms: N3_17  and  N4_18 
REMARK    4  A    between atoms: N4_18  and  C13_19 
REMARK    5  A    between atoms: C13_19  and  C14_20 
REMARK    6  A    between atoms: C14_20  and  N5_21 
ROOT
HETATM    1  P1  UNL     1      23.987   3.519  50.430  1.00  0.00     0.070 P 
HETATM    2  N1  UNL     1      25.670   3.956  49.899  1.00  0.00    -0.247 NA
HETATM    3  C6  UNL     1      26.617   3.286  50.435  1.00  0.00     0.207 A 
HETATM    4  N2  UNL     1      26.647   2.250  51.376  1.00  0.00    -0.350 N 
HETATM    5  C7  UNL     1      25.499   1.675  51.990  1.00  0.00     0.049 A 
HETATM    6  C8  UNL     1      25.626   0.644  52.917  1.00  0.00     0.069 A 
HETATM    7  C9  UNL     1      24.525   0.087  53.511  1.00  0.00     0.100 A 
HETATM    8  C10 UNL     1      23.281   0.576  53.162  1.00  0.00     0.088 A 
HETATM    9  C11 UNL     1      23.128   1.596  52.245  1.00  0.00     0.050 A 
HETATM   10  C12 UNL     1      24.242   2.151  51.655  1.00  0.00     0.024 A 
HETATM   11  N3  UNL     1      22.079   0.066  53.717  1.00  0.00    -0.241 N 
HETATM   12  C19 UNL     1      22.206  -1.002  54.679  1.00  0.00     0.263 C 
HETATM   13  O2  UNL     1      21.211  -1.739  54.999  1.00  0.00    -0.269 OA
HETATM   14  C20 UNL     1      23.542  -1.256  55.323  1.00  0.00     0.280 C 
HETATM   15  O3  UNL     1      24.596  -0.939  54.439  1.00  0.00    -0.340 OA
HETATM   16  H8  UNL     1      27.559   1.839  51.680  1.00  0.00     0.166 HD
ENDROOT
BRANCH  11  17
HETATM   17  N4  UNL     1      20.787   0.455  53.461  1.00  0.00    -0.229 NA
HETATM   18  H11 UNL     1      20.125   0.178  54.216  1.00  0.00     0.147 HD
BRANCH  17  19
HETATM   19  C13 UNL     1      20.239   0.046  52.206  1.00  0.00     0.141 C 
BRANCH  19  20
HETATM   20  C14 UNL     1      18.816   0.510  52.001  1.00  0.00     0.288 C 
BRANCH  20  21
HETATM   21  N5  UNL     1      18.704   1.562  50.994  1.00  0.00     0.093 N 
HETATM   22  C15 UNL     1      19.966   1.470  50.245  1.00  0.00     0.298 C 
HETATM   23  C16 UNL     1      20.145   2.629  49.301  1.00  0.00     0.198 C 
HETATM   24  O1  UNL     1      19.840   3.851  49.895  1.00  0.00    -0.388 OA
HETATM   25  C17 UNL     1      19.896   3.705  51.269  1.00  0.00     0.198 C 
HETATM   26  C18 UNL     1      18.685   2.851  51.661  1.00  0.00     0.298 C 
ENDBRANCH  20  21
ENDBRANCH  19  20
ENDBRANCH  17  19
ENDBRANCH  11  17
BRANCH   1  27
HETATM   27  C5  UNL     1      23.325   4.994  51.281  1.00  0.00     0.038 C 
HETATM   28  C4  UNL     1      22.887   6.086  50.678  1.00  0.00     0.045 C 
BRANCH  28  29
HETATM   29  C3  UNL     1      22.908   6.183  49.225  1.00  0.00     0.112 C 
HETATM   30  C2  UNL     1      23.802   6.972  48.674  1.00  0.00     0.011 C 
HETATM   31  C1  UNL     1      24.014   7.232  47.245  1.00  0.00     0.039 C 
HETATM   32  F1  UNL     1      22.040   5.488  48.476  1.00  0.00    -0.206 F 
ENDBRANCH  28  29
ENDBRANCH   1  27
TORSDOF 6
ENDMDL
MODEL 9
REMARK VINA RESULT:      -7.2      3.501      7.805
REMARK  6 active torsions:
REMARK  status: ('A' for Active; 'I' for Inactive)
REMARK    1  A    between atoms: C3_3  and  C4_5 
REMARK    2  A    between atoms: C5_6  and  P1_7 
REMARK    3  A    between atoms: N3_17  and  N4_18 
REMARK    4  A    between atoms: N4_18  and  C13_19 
REMARK    5  A    between atoms: C13_19  and  C14_20 
REMARK    6  A    between atoms: C14_20  and  N5_21 
ROOT
HETATM    1  P1  UNL     1      25.700   6.804  48.979  1.00  0.00     0.070 P 
HETATM    2  N1  UNL     1      24.990   7.612  47.513  1.00  0.00    -0.247 NA
HETATM    3  C6  UNL     1      23.909   7.102  47.062  1.00  0.00     0.207 A 
HETATM    4  N2  UNL     1      23.119   6.017  47.462  1.00  0.00    -0.350 N 
HETATM    5  C7  UNL     1      23.397   5.175  48.575  1.00  0.00     0.049 A 
HETATM    6  C8  UNL     1      22.552   4.117  48.898  1.00  0.00     0.069 A 
HETATM    7  C9  UNL     1      22.814   3.304  49.968  1.00  0.00     0.100 A 
HETATM    8  C10 UNL     1      23.943   3.563  50.720  1.00  0.00     0.088 A 
HETATM    9  C11 UNL     1      24.797   4.605  50.422  1.00  0.00     0.050 A 
HETATM   10  C12 UNL     1      24.524   5.417  49.342  1.00  0.00     0.024 A 
HETATM   11  N3  UNL     1      24.303   2.782  51.849  1.00  0.00    -0.241 N 
HETATM   12  C19 UNL     1      23.429   1.684  52.188  1.00  0.00     0.263 C 
HETATM   13  O2  UNL     1      23.471   1.123  53.337  1.00  0.00    -0.269 OA
HETATM   14  C20 UNL     1      22.444   1.186  51.165  1.00  0.00     0.280 C 
HETATM   15  O3  UNL     1      22.006   2.239  50.333  1.00  0.00    -0.340 OA
HETATM   16  H8  UNL     1      22.252   5.771  46.932  1.00  0.00     0.166 HD
ENDROOT
BRANCH  11  17
HETATM   17  N4  UNL     1      25.386   2.928  52.680  1.00  0.00    -0.229 NA
HETATM   18  H11 UNL     1      25.771   3.896  52.675  1.00  0.00     0.147 HD
BRANCH  17  19
HETATM   19  C13 UNL     1      26.465   2.011  52.482  1.00  0.00     0.141 C 
BRANCH  19  20
HETATM   20  C14 UNL     1      27.539   2.123  53.538  1.00  0.00     0.288 C 
BRANCH  20  21
HETATM   21  N5  UNL     1      27.898   0.831  54.118  1.00  0.00     0.093 N 
HETATM   22  C15 UNL     1      29.197   0.517  53.504  1.00  0.00     0.298 C 
HETATM   23  C16 UNL     1      29.633  -0.893  53.801  1.00  0.00     0.198 C 
HETATM   24  O1  UNL     1      28.603  -1.815  53.629  1.00  0.00    -0.388 OA
HETATM   25  C17 UNL     1      27.631  -1.252  52.823  1.00  0.00     0.198 C 
HETATM   26  C18 UNL     1      26.947  -0.168  53.664  1.00  0.00     0.298 C 
ENDBRANCH  20  21
ENDBRANCH  19  20
ENDBRANCH  17  19
ENDBRANCH  11  17
BRANCH   1  27
HETATM   27  C5  UNL     1      27.313   6.125  48.453  1.00  0.00     0.038 C 
HETATM   28  C4  UNL     1      28.408   6.837  48.254  1.00  0.00     0.045 C 
BRANCH  28  29
HETATM   29  C3  UNL     1      28.394   8.280  48.453  1.00  0.00     0.112 C 
HETATM   30  C2  UNL     1      28.377   9.047  47.387  1.00  0.00     0.011 C 
HETATM   31  C1  UNL     1      28.362  10.514  47.335  1.00  0.00     0.039 C 
HETATM   32  F1  UNL     1      28.400   8.805  49.686  1.00  0.00    -0.206 F 
ENDBRANCH  28  29
ENDBRANCH   1  27
TORSDOF 6
ENDMDL
