MODEL 1
REMARK VINA RESULT:      -8.4      0.000      0.000
REMARK  1 active torsions:
REMARK  status: ('A' for Active; 'I' for Inactive)
REMARK    1  A    between atoms: C2_2  and  N1_3 
ROOT
HETATM    1  N1  UNL     1      26.255   2.023  52.758  1.00  0.00    -0.209 N 
HETATM    2  O1  UNL     1      25.950   1.504  53.948  1.00  0.00    -0.149 OA
HETATM    3  N2  UNL     1      25.417   0.256  53.846  1.00  0.00    -0.233 N 
HETATM    4  C3  UNL     1      24.314  -0.614  54.137  1.00  0.00     0.254 C 
HETATM    5  N3  UNL     1      23.565   0.233  53.516  1.00  0.00    -0.171 NA
HETATM    6  N4  UNL     1      22.198  -0.017  53.404  1.00  0.00    -0.302 N 
HETATM    7  C4  UNL     1      21.223   0.065  54.475  1.00  0.00     0.173 C 
HETATM    8  C5  UNL     1      21.743  -0.386  52.094  1.00  0.00     0.224 C 
HETATM    9  C6  UNL     1      20.900   0.676  51.518  1.00  0.00     0.142 C 
HETATM   10  N5  UNL     1      19.672   0.247  51.435  1.00  0.00    -0.254 NA
HETATM   11  C7  UNL     1      18.407   0.838  51.026  1.00  0.00     0.271 C 
HETATM   12  N6  UNL     1      18.445   1.255  49.625  1.00  0.00    -0.381 N 
HETATM   13  C8  UNL     1      19.143   2.363  49.023  1.00  0.00     0.086 C 
HETATM   14  C9  UNL     1      20.187   3.122  49.407  1.00  0.00     0.046 C 
HETATM   15  C10 UNL     1      21.150   2.988  50.520  1.00  0.00     0.062 C 
HETATM   16  N7  UNL     1      21.534   1.915  51.170  1.00  0.00    -0.234 NA
HETATM   17  C11 UNL     1      21.652   4.336  50.818  1.00  0.00     0.235 C 
HETATM   18  O2  UNL     1      22.910   4.609  50.292  1.00  0.00    -0.345 OA
HETATM   19  C12 UNL     1      24.095   3.980  50.525  1.00  0.00     0.071 A 
HETATM   20  C13 UNL     1      24.989   4.065  49.452  1.00  0.00     0.037 A 
HETATM   21  C14 UNL     1      26.251   3.498  49.467  1.00  0.00     0.005 A 
HETATM   22  C15 UNL     1      26.644   2.817  50.601  1.00  0.00     0.032 A 
HETATM   23  C16 UNL     1      25.757   2.742  51.642  1.00  0.00     0.067 A 
HETATM   24  C17 UNL     1      24.512   3.293  51.644  1.00  0.00     0.068 A 
HETATM   25  H4  UNL     1      26.179  -0.260  53.319  1.00  0.00     0.197 HD
HETATM   26  H13 UNL     1      17.930   0.758  48.840  1.00  0.00     0.160 HD
ENDROOT
BRANCH   1  27
HETATM   27  C2  UNL     1      27.595   1.567  52.869  1.00  0.00     0.115 C 
HETATM   28  C1  UNL     1      28.335   2.395  53.620  1.00  0.00     0.032 C 
ENDBRANCH   1  27
TORSDOF 1
ENDMDL
MODEL 2
REMARK VINA RESULT:      -8.0      1.020      1.056
REMARK  1 active torsions:
REMARK  status: ('A' for Active; 'I' for Inactive)
REMARK    1  A    between atoms: C2_2  and  N1_3 
ROOT
HETATM    1  N1  UNL     1      26.029   1.496  52.742  1.00  0.00    -0.209 N 
HETATM    2  O1  UNL     1      25.657   0.834  53.838  1.00  0.00    -0.149 OA
HETATM    3  N2  UNL     1      24.844  -0.220  53.554  1.00  0.00    -0.233 N 
HETATM    4  C3  UNL     1      23.581  -0.864  53.771  1.00  0.00     0.254 C 
HETATM    5  N3  UNL     1      23.028   0.234  53.379  1.00  0.00    -0.171 NA
HETATM    6  N4  UNL     1      21.636   0.319  53.337  1.00  0.00    -0.302 N 
HETATM    7  C4  UNL     1      20.748   0.403  54.480  1.00  0.00     0.173 C 
HETATM    8  C5  UNL     1      21.058   0.327  52.023  1.00  0.00     0.224 C 
HETATM    9  C6  UNL     1      20.465   1.641  51.722  1.00  0.00     0.142 C 
HETATM   10  N5  UNL     1      19.168   1.520  51.664  1.00  0.00    -0.254 NA
HETATM   11  C7  UNL     1      18.062   2.445  51.476  1.00  0.00     0.271 C 
HETATM   12  N6  UNL     1      18.142   3.111  50.177  1.00  0.00    -0.381 N 
HETATM   13  C8  UNL     1      19.056   4.133  49.732  1.00  0.00     0.086 C 
HETATM   14  C9  UNL     1      20.262   4.551  50.161  1.00  0.00     0.046 C 
HETATM   15  C10 UNL     1      21.209   3.990  51.147  1.00  0.00     0.062 C 
HETATM   16  N7  UNL     1      21.357   2.752  51.556  1.00  0.00    -0.234 NA
HETATM   17  C11 UNL     1      22.023   5.107  51.645  1.00  0.00     0.235 C 
HETATM   18  O2  UNL     1      23.289   5.193  51.075  1.00  0.00    -0.345 OA
HETATM   19  C12 UNL     1      24.302   4.284  51.091  1.00  0.00     0.071 A 
HETATM   20  C13 UNL     1      25.150   4.378  49.982  1.00  0.00     0.037 A 
HETATM   21  C14 UNL     1      26.244   3.554  49.789  1.00  0.00     0.005 A 
HETATM   22  C15 UNL     1      26.511   2.593  50.742  1.00  0.00     0.032 A 
HETATM   23  C16 UNL     1      25.671   2.513  51.821  1.00  0.00     0.067 A 
HETATM   24  C17 UNL     1      24.590   3.314  52.027  1.00  0.00     0.068 A 
HETATM   25  H4  UNL     1      25.445  -0.778  52.880  1.00  0.00     0.197 HD
HETATM   26  H13 UNL     1      17.496   2.905  49.359  1.00  0.00     0.160 HD
ENDROOT
BRANCH   1  27
HETATM   27  C2  UNL     1      27.230   0.741  52.657  1.00  0.00     0.115 C 
HETATM   28  C1  UNL     1      28.123   1.135  53.576  1.00  0.00     0.032 C 
ENDBRANCH   1  27
TORSDOF 1
ENDMDL
MODEL 3
REMARK VINA RESULT:      -7.9      2.302      4.767
REMARK  1 active torsions:
REMARK  status: ('A' for Active; 'I' for Inactive)
REMARK    1  A    between atoms: C2_2  and  N1_3 
ROOT
HETATM    1  N1  UNL     1      24.200   0.427  52.667  1.00  0.00    -0.209 N 
HETATM    2  O1  UNL     1      25.006   0.946  51.740  1.00  0.00    -0.149 OA
HETATM    3  N2  UNL     1      25.089   2.302  51.828  1.00  0.00    -0.233 N 
HETATM    4  C3  UNL     1      24.926   3.568  51.173  1.00  0.00     0.254 C 
HETATM    5  N3  UNL     1      23.706   3.218  50.942  1.00  0.00    -0.171 NA
HETATM    6  N4  UNL     1      22.865   4.092  50.253  1.00  0.00    -0.302 N 
HETATM    7  C4  UNL     1      22.932   4.408  48.840  1.00  0.00     0.173 C 
HETATM    8  C5  UNL     1      21.845   4.719  51.046  1.00  0.00     0.224 C 
HETATM    9  C6  UNL     1      20.511   4.223  50.664  1.00  0.00     0.142 C 
HETATM   10  N5  UNL     1      19.847   5.186  50.089  1.00  0.00    -0.254 NA
HETATM   11  C7  UNL     1      18.543   5.291  49.454  1.00  0.00     0.271 C 
HETATM   12  N6  UNL     1      17.467   5.002  50.401  1.00  0.00    -0.381 N 
HETATM   13  C8  UNL     1      17.072   3.738  50.973  1.00  0.00     0.086 C 
HETATM   14  C9  UNL     1      17.692   2.553  51.122  1.00  0.00     0.046 C 
HETATM   15  C10 UNL     1      19.098   2.140  50.925  1.00  0.00     0.062 C 
HETATM   16  N7  UNL     1      20.196   2.858  50.973  1.00  0.00    -0.234 NA
HETATM   17  C11 UNL     1      19.088   0.699  50.645  1.00  0.00     0.235 C 
HETATM   18  O2  UNL     1      19.424  -0.100  51.732  1.00  0.00    -0.345 OA
HETATM   19  C12 UNL     1      20.576  -0.122  52.459  1.00  0.00     0.071 A 
HETATM   20  C13 UNL     1      20.391  -0.547  53.779  1.00  0.00     0.037 A 
HETATM   21  C14 UNL     1      21.420  -0.646  54.698  1.00  0.00     0.005 A 
HETATM   22  C15 UNL     1      22.694  -0.309  54.286  1.00  0.00     0.032 A 
HETATM   23  C16 UNL     1      22.858   0.105  52.991  1.00  0.00     0.067 A 
HETATM   24  C17 UNL     1      21.857   0.209  52.074  1.00  0.00     0.068 A 
HETATM   25  H4  UNL     1      25.420   2.430  52.828  1.00  0.00     0.197 HD
HETATM   26  H13 UNL     1      16.811   5.734  50.802  1.00  0.00     0.160 HD
ENDROOT
BRANCH   1  27
HETATM   27  C2  UNL     1      25.301   0.187  53.532  1.00  0.00     0.115 C 
HETATM   28  C1  UNL     1      26.059  -0.827  53.092  1.00  0.00     0.032 C 
ENDBRANCH   1  27
TORSDOF 1
ENDMDL
MODEL 4
REMARK VINA RESULT:      -7.5      2.237      4.182
REMARK  1 active torsions:
REMARK  status: ('A' for Active; 'I' for Inactive)
REMARK    1  A    between atoms: C2_2  and  N1_3 
ROOT
HETATM    1  N1  UNL     1      22.572  -0.032  53.800  1.00  0.00    -0.209 N 
HETATM    2  O1  UNL     1      21.310   0.028  54.228  1.00  0.00    -0.149 OA
HETATM    3  N2  UNL     1      20.421  -0.351  53.270  1.00  0.00    -0.233 N 
HETATM    4  C3  UNL     1      19.272  -0.006  52.483  1.00  0.00     0.254 C 
HETATM    5  N3  UNL     1      19.938   1.022  52.079  1.00  0.00    -0.171 NA
HETATM    6  N4  UNL     1      19.347   1.908  51.178  1.00  0.00    -0.302 N 
HETATM    7  C4  UNL     1      18.280   2.845  51.474  1.00  0.00     0.173 C 
HETATM    8  C5  UNL     1      19.866   1.865  49.841  1.00  0.00     0.224 C 
HETATM    9  C6  UNL     1      20.595   3.106  49.526  1.00  0.00     0.142 C 
HETATM   10  N5  UNL     1      19.928   3.776  48.628  1.00  0.00    -0.254 NA
HETATM   11  C7  UNL     1      20.094   5.069  47.984  1.00  0.00     0.271 C 
HETATM   12  N6  UNL     1      21.340   5.125  47.221  1.00  0.00    -0.381 N 
HETATM   13  C8  UNL     1      22.699   5.202  47.699  1.00  0.00     0.086 C 
HETATM   14  C9  UNL     1      23.286   4.918  48.876  1.00  0.00     0.046 C 
HETATM   15  C10 UNL     1      22.791   4.230  50.087  1.00  0.00     0.062 C 
HETATM   16  N7  UNL     1      21.830   3.345  50.214  1.00  0.00    -0.234 NA
HETATM   17  C11 UNL     1      23.592   4.720  51.217  1.00  0.00     0.235 C 
HETATM   18  O2  UNL     1      24.601   3.854  51.623  1.00  0.00    -0.345 OA
HETATM   19  C12 UNL     1      24.504   2.576  52.084  1.00  0.00     0.071 A 
HETATM   20  C13 UNL     1      25.643   1.805  51.827  1.00  0.00     0.037 A 
HETATM   21  C14 UNL     1      25.765   0.479  52.205  1.00  0.00     0.005 A 
HETATM   22  C15 UNL     1      24.708  -0.108  52.869  1.00  0.00     0.032 A 
HETATM   23  C16 UNL     1      23.600   0.661  53.112  1.00  0.00     0.067 A 
HETATM   24  C17 UNL     1      23.463   1.965  52.749  1.00  0.00     0.068 A 
HETATM   25  H4  UNL     1      20.764  -1.327  53.035  1.00  0.00     0.197 HD
HETATM   26  H13 UNL     1      21.392   5.114  46.160  1.00  0.00     0.160 HD
ENDROOT
BRANCH   1  27
HETATM   27  C2  UNL     1      22.724  -1.337  54.339  1.00  0.00     0.115 C 
HETATM   28  C1  UNL     1      23.124  -1.296  55.619  1.00  0.00     0.032 C 
ENDBRANCH   1  27
TORSDOF 1
ENDMDL
MODEL 5
REMARK VINA RESULT:      -7.4      2.344      6.140
REMARK  1 active torsions:
REMARK  status: ('A' for Active; 'I' for Inactive)
REMARK    1  A    between atoms: C2_2  and  N1_3 
ROOT
HETATM    1  N1  UNL     1      18.744  -0.429  52.366  1.00  0.00    -0.209 N 
HETATM    2  O1  UNL     1      19.439  -1.350  53.035  1.00  0.00    -0.149 OA
HETATM    3  N2  UNL     1      20.174  -0.810  54.045  1.00  0.00    -0.233 N 
HETATM    4  C3  UNL     1      21.469  -0.635  54.636  1.00  0.00     0.254 C 
HETATM    5  N3  UNL     1      21.846  -0.139  53.506  1.00  0.00    -0.171 NA
HETATM    6  N4  UNL     1      23.163   0.297  53.358  1.00  0.00    -0.302 N 
HETATM    7  C4  UNL     1      24.338  -0.548  53.260  1.00  0.00     0.173 C 
HETATM    8  C5  UNL     1      23.339   1.720  53.296  1.00  0.00     0.224 C 
HETATM    9  C6  UNL     1      23.773   2.133  51.950  1.00  0.00     0.142 C 
HETATM   10  N5  UNL     1      25.002   2.564  52.012  1.00  0.00    -0.254 NA
HETATM   11  C7  UNL     1      25.973   3.029  51.035  1.00  0.00     0.271 C 
HETATM   12  N6  UNL     1      25.499   4.227  50.345  1.00  0.00    -0.381 N 
HETATM   13  C8  UNL     1      24.459   4.358  49.354  1.00  0.00     0.086 C 
HETATM   14  C9  UNL     1      23.413   3.588  49.000  1.00  0.00     0.046 C 
HETATM   15  C10 UNL     1      22.810   2.391  49.624  1.00  0.00     0.062 C 
HETATM   16  N7  UNL     1      22.831   2.000  50.877  1.00  0.00    -0.234 NA
HETATM   17  C11 UNL     1      22.133   1.644  48.556  1.00  0.00     0.235 C 
HETATM   18  O2  UNL     1      20.755   1.825  48.514  1.00  0.00    -0.345 OA
HETATM   19  C12 UNL     1      19.822   1.551  49.468  1.00  0.00     0.071 A 
HETATM   20  C13 UNL     1      18.689   2.368  49.387  1.00  0.00     0.037 A 
HETATM   21  C14 UNL     1      17.616   2.267  50.254  1.00  0.00     0.005 A 
HETATM   22  C15 UNL     1      17.669   1.311  51.248  1.00  0.00     0.032 A 
HETATM   23  C16 UNL     1      18.786   0.520  51.314  1.00  0.00     0.067 A 
HETATM   24  C17 UNL     1      19.850   0.605  50.469  1.00  0.00     0.068 A 
HETATM   25  H4  UNL     1      19.426  -0.318  54.613  1.00  0.00     0.197 HD
HETATM   26  H13 UNL     1      25.890   5.202  50.503  1.00  0.00     0.160 HD
ENDROOT
BRANCH   1  27
HETATM   27  C2  UNL     1      17.598  -0.665  53.171  1.00  0.00     0.115 C 
HETATM   28  C1  UNL     1      17.069  -1.874  52.929  1.00  0.00     0.032 C 
ENDBRANCH   1  27
TORSDOF 1
ENDMDL
MODEL 6
REMARK VINA RESULT:      -7.3      2.266      5.968
REMARK  1 active torsions:
REMARK  status: ('A' for Active; 'I' for Inactive)
REMARK    1  A    between atoms: C2_2  and  N1_3 
ROOT
HETATM    1  N1  UNL     1      21.338   5.827  49.863  1.00  0.00    -0.209 N 
HETATM    2  O1  UNL     1      20.403   4.913  49.605  1.00  0.00    -0.149 OA
HETATM    3  N2  UNL     1      19.993   4.261  50.727  1.00  0.00    -0.233 N 
HETATM    4  C3  UNL     1      19.822   3.007  51.401  1.00  0.00     0.254 C 
HETATM    5  N3  UNL     1      21.083   2.809  51.216  1.00  0.00    -0.171 NA
HETATM    6  N4  UNL     1      21.665   1.629  51.682  1.00  0.00    -0.302 N 
HETATM    7  C4  UNL     1      21.481   0.305  51.121  1.00  0.00     0.173 C 
HETATM    8  C5  UNL     1      22.523   1.774  52.824  1.00  0.00     0.224 C 
HETATM    9  C6  UNL     1      23.926   1.514  52.457  1.00  0.00     0.142 C 
HETATM   10  N5  UNL     1      24.317   0.408  53.026  1.00  0.00    -0.254 NA
HETATM   11  C7  UNL     1      25.536  -0.383  52.992  1.00  0.00     0.271 C 
HETATM   12  N6  UNL     1      26.677   0.379  53.496  1.00  0.00    -0.381 N 
HETATM   13  C8  UNL     1      27.386   1.474  52.881  1.00  0.00     0.086 C 
HETATM   14  C9  UNL     1      27.080   2.342  51.899  1.00  0.00     0.046 C 
HETATM   15  C10 UNL     1      25.813   2.633  51.196  1.00  0.00     0.062 C 
HETATM   16  N7  UNL     1      24.575   2.460  51.596  1.00  0.00    -0.234 NA
HETATM   17  C11 UNL     1      26.167   3.186  49.882  1.00  0.00     0.235 C 
HETATM   18  O2  UNL     1      26.069   4.570  49.796  1.00  0.00    -0.345 OA
HETATM   19  C12 UNL     1      24.980   5.367  49.977  1.00  0.00     0.071 A 
HETATM   20  C13 UNL     1      25.301   6.655  50.420  1.00  0.00     0.037 A 
HETATM   21  C14 UNL     1      24.354   7.632  50.671  1.00  0.00     0.005 A 
HETATM   22  C15 UNL     1      23.026   7.317  50.471  1.00  0.00     0.032 A 
HETATM   23  C16 UNL     1      22.728   6.052  50.038  1.00  0.00     0.067 A 
HETATM   24  C17 UNL     1      23.646   5.079  49.787  1.00  0.00     0.068 A 
HETATM   25  H4  UNL     1      19.670   5.068  51.336  1.00  0.00     0.197 HD
HETATM   26  H13 UNL     1      27.146   0.203  54.433  1.00  0.00     0.160 HD
ENDROOT
BRANCH   1  27
HETATM   27  C2  UNL     1      20.356   6.849  49.958  1.00  0.00     0.115 C 
HETATM   28  C1  UNL     1      19.878   7.184  48.750  1.00  0.00     0.032 C 
ENDBRANCH   1  27
TORSDOF 1
ENDMDL
MODEL 7
REMARK VINA RESULT:      -7.2      4.672      8.145
REMARK  1 active torsions:
REMARK  status: ('A' for Active; 'I' for Inactive)
REMARK    1  A    between atoms: C2_2  and  N1_3 
ROOT
HETATM    1  N1  UNL     1      19.481   1.087  50.910  1.00  0.00    -0.209 N 
HETATM    2  O1  UNL     1      19.317   2.021  49.972  1.00  0.00    -0.149 OA
HETATM    3  N2  UNL     1      19.045   3.244  50.502  1.00  0.00    -0.233 N 
HETATM    4  C3  UNL     1      18.148   4.362  50.562  1.00  0.00     0.254 C 
HETATM    5  N3  UNL     1      17.228   3.523  50.901  1.00  0.00    -0.171 NA
HETATM    6  N4  UNL     1      15.936   3.989  51.147  1.00  0.00    -0.302 N 
HETATM    7  C4  UNL     1      14.993   4.462  50.153  1.00  0.00     0.173 C 
HETATM    8  C5  UNL     1      15.532   3.984  52.525  1.00  0.00     0.224 C 
HETATM    9  C6  UNL     1      14.477   2.982  52.754  1.00  0.00     0.142 C 
HETATM   10  N5  UNL     1      13.359   3.594  53.027  1.00  0.00    -0.254 NA
HETATM   11  C7  UNL     1      11.991   3.165  53.271  1.00  0.00     0.271 C 
HETATM   12  N6  UNL     1      11.908   2.308  54.453  1.00  0.00    -0.381 N 
HETATM   13  C8  UNL     1      12.353   0.947  54.626  1.00  0.00     0.086 C 
HETATM   14  C9  UNL     1      13.231   0.167  53.968  1.00  0.00     0.046 C 
HETATM   15  C10 UNL     1      14.230   0.469  52.921  1.00  0.00     0.062 C 
HETATM   16  N7  UNL     1      14.839   1.598  52.646  1.00  0.00    -0.234 NA
HETATM   17  C11 UNL     1      14.458  -0.775  52.174  1.00  0.00     0.235 C 
HETATM   18  O2  UNL     1      15.620  -1.451  52.526  1.00  0.00    -0.345 OA
HETATM   19  C12 UNL     1      16.914  -1.029  52.463  1.00  0.00     0.071 A 
HETATM   20  C13 UNL     1      17.744  -1.641  53.408  1.00  0.00     0.037 A 
HETATM   21  C14 UNL     1      19.095  -1.364  53.526  1.00  0.00     0.005 A 
HETATM   22  C15 UNL     1      19.647  -0.438  52.666  1.00  0.00     0.032 A 
HETATM   23  C16 UNL     1      18.820   0.153  51.747  1.00  0.00     0.067 A 
HETATM   24  C17 UNL     1      17.490  -0.107  51.616  1.00  0.00     0.068 A 
HETATM   25  H4  UNL     1      19.882   3.393  51.137  1.00  0.00     0.197 HD
HETATM   26  H13 UNL     1      11.484   2.608  55.380  1.00  0.00     0.160 HD
ENDROOT
BRANCH   1  27
HETATM   27  C2  UNL     1      20.888   1.278  50.898  1.00  0.00     0.115 C 
HETATM   28  C1  UNL     1      21.437   0.815  49.765  1.00  0.00     0.032 C 
ENDBRANCH   1  27
TORSDOF 1
ENDMDL
MODEL 8
REMARK VINA RESULT:      -7.2      2.458      5.368
REMARK  1 active torsions:
REMARK  status: ('A' for Active; 'I' for Inactive)
REMARK    1  A    between atoms: C2_2  and  N1_3 
ROOT
HETATM    1  N1  UNL     1      22.170  -0.232  52.855  1.00  0.00    -0.209 N 
HETATM    2  O1  UNL     1      23.477  -0.396  53.060  1.00  0.00    -0.149 OA
HETATM    3  N2  UNL     1      24.062   0.716  53.582  1.00  0.00    -0.233 N 
HETATM    4  C3  UNL     1      25.076   1.723  53.450  1.00  0.00     0.254 C 
HETATM    5  N3  UNL     1      24.564   1.997  52.298  1.00  0.00    -0.171 NA
HETATM    6  N4  UNL     1      25.129   3.010  51.523  1.00  0.00    -0.302 N 
HETATM    7  C4  UNL     1      26.400   2.946  50.827  1.00  0.00     0.173 C 
HETATM    8  C5  UNL     1      24.355   4.214  51.423  1.00  0.00     0.224 C 
HETATM    9  C6  UNL     1      23.844   4.391  50.053  1.00  0.00     0.142 C 
HETATM   10  N5  UNL     1      24.439   5.413  49.504  1.00  0.00    -0.254 NA
HETATM   11  C7  UNL     1      24.411   6.026  48.186  1.00  0.00     0.271 C 
HETATM   12  N6  UNL     1      23.075   6.523  47.861  1.00  0.00    -0.381 N 
HETATM   13  C8  UNL     1      21.883   5.783  47.528  1.00  0.00     0.086 C 
HETATM   14  C9  UNL     1      21.498   4.508  47.722  1.00  0.00     0.046 C 
HETATM   15  C10 UNL     1      22.076   3.413  48.530  1.00  0.00     0.062 C 
HETATM   16  N7  UNL     1      22.845   3.471  49.592  1.00  0.00    -0.234 NA
HETATM   17  C11 UNL     1      21.632   2.151  47.922  1.00  0.00     0.235 C 
HETATM   18  O2  UNL     1      20.572   1.539  48.580  1.00  0.00    -0.345 OA
HETATM   19  C12 UNL     1      20.500   1.091  49.865  1.00  0.00     0.071 A 
HETATM   20  C13 UNL     1      19.201   1.104  50.385  1.00  0.00     0.037 A 
HETATM   21  C14 UNL     1      18.892   0.693  51.670  1.00  0.00     0.005 A 
HETATM   22  C15 UNL     1      19.920   0.248  52.475  1.00  0.00     0.032 A 
HETATM   23  C16 UNL     1      21.186   0.243  51.951  1.00  0.00     0.067 A 
HETATM   24  C17 UNL     1      21.508   0.643  50.690  1.00  0.00     0.068 A 
HETATM   25  H4  UNL     1      23.489   0.866  54.462  1.00  0.00     0.197 HD
HETATM   26  H13 UNL     1      22.811   7.552  47.830  1.00  0.00     0.160 HD
ENDROOT
BRANCH   1  27
HETATM   27  C2  UNL     1      21.869  -0.807  54.118  1.00  0.00     0.115 C 
HETATM   28  C1  UNL     1      21.935  -2.146  54.076  1.00  0.00     0.032 C 
ENDBRANCH   1  27
TORSDOF 1
ENDMDL
MODEL 9
REMARK VINA RESULT:      -7.0      1.898      2.683
REMARK  1 active torsions:
REMARK  status: ('A' for Active; 'I' for Inactive)
REMARK    1  A    between atoms: C2_2  and  N1_3 
ROOT
HETATM    1  N1  UNL     1      24.934   1.926  52.328  1.00  0.00    -0.209 N 
HETATM    2  O1  UNL     1      24.032   1.445  53.184  1.00  0.00    -0.149 OA
HETATM    3  N2  UNL     1      23.262   0.470  52.629  1.00  0.00    -0.233 N 
HETATM    4  C3  UNL     1      21.942   0.011  52.305  1.00  0.00     0.254 C 
HETATM    5  N3  UNL     1      21.789   1.114  51.654  1.00  0.00    -0.171 NA
HETATM    6  N4  UNL     1      20.580   1.359  51.003  1.00  0.00    -0.302 N 
HETATM    7  C4  UNL     1      19.316   1.680  51.637  1.00  0.00     0.173 C 
HETATM    8  C5  UNL     1      20.624   1.283  49.570  1.00  0.00     0.224 C 
HETATM    9  C6  UNL     1      20.430   2.615  48.972  1.00  0.00     0.142 C 
HETATM   10  N5  UNL     1      19.280   2.643  48.358  1.00  0.00    -0.254 NA
HETATM   11  C7  UNL     1      18.519   3.666  47.657  1.00  0.00     0.271 C 
HETATM   12  N6  UNL     1      19.248   4.162  46.491  1.00  0.00    -0.381 N 
HETATM   13  C8  UNL     1      20.414   5.010  46.438  1.00  0.00     0.086 C 
HETATM   14  C9  UNL     1      21.372   5.328  47.328  1.00  0.00     0.046 C 
HETATM   15  C10 UNL     1      21.708   4.776  48.658  1.00  0.00     0.062 C 
HETATM   16  N7  UNL     1      21.471   3.585  49.154  1.00  0.00    -0.234 NA
HETATM   17  C11 UNL     1      22.399   5.838  49.401  1.00  0.00     0.235 C 
HETATM   18  O2  UNL     1      23.782   5.706  49.439  1.00  0.00    -0.345 OA
HETATM   19  C12 UNL     1      24.536   4.690  49.944  1.00  0.00     0.071 A 
HETATM   20  C13 UNL     1      25.777   4.554  49.314  1.00  0.00     0.037 A 
HETATM   21  C14 UNL     1      26.705   3.589  49.662  1.00  0.00     0.005 A 
HETATM   22  C15 UNL     1      26.386   2.719  50.685  1.00  0.00     0.032 A 
HETATM   23  C16 UNL     1      25.166   2.866  51.291  1.00  0.00     0.067 A 
HETATM   24  C17 UNL     1      24.242   3.809  50.961  1.00  0.00     0.068 A 
HETATM   25  H4  UNL     1      23.996  -0.230  52.316  1.00  0.00     0.197 HD
HETATM   26  H13 UNL     1      18.988   3.942  45.485  1.00  0.00     0.160 HD
ENDROOT
BRANCH   1  27
HETATM   27  C2  UNL     1      25.921   1.029  52.816  1.00  0.00     0.115 C 
HETATM   28  C1  UNL     1      26.361   1.396  54.029  1.00  0.00     0.032 C 
ENDBRANCH   1  27
TORSDOF 1
ENDMDL
