MODEL 1
REMARK VINA RESULT:      -7.9      0.000      0.000
REMARK  4 active torsions:
REMARK  status: ('A' for Active; 'I' for Inactive)
REMARK    1  A    between atoms: N1_2  and  C2_3 
REMARK    2  A    between atoms: C7_10  and  N4_11 
REMARK    3  A    between atoms: N4_11  and  C8_12 
REMARK    4  A    between atoms: C13_18  and  C14_19 
ROOT
HETATM    1  C2  UNL     1      26.667  -0.379  53.288  1.00  0.00     0.027 C 
HETATM    2  C3  UNL     1      25.377  -0.436  53.755  1.00  0.00     0.030 C 
HETATM    3  C4  UNL     1      24.098  -0.574  54.194  1.00  0.00     0.021 C 
HETATM    4  C5  UNL     1      23.001  -0.404  53.361  1.00  0.00     0.118 C 
HETATM    5  N2  UNL     1      22.770   0.478  52.376  1.00  0.00    -0.254 NA
HETATM    6  C6  UNL     1      23.595   1.539  52.266  1.00  0.00     0.234 C 
HETATM    7  N3  UNL     1      24.518   2.524  52.130  1.00  0.00    -0.225 NA
HETATM    8  C7  UNL     1      25.450   2.348  51.185  1.00  0.00     0.129 C 
HETATM    9  C15 UNL     1      26.325   1.418  51.639  1.00  0.00     0.052 C 
HETATM   10  C16 UNL     1      26.805   0.193  52.041  1.00  0.00     0.033 C 
ENDROOT
BRANCH   8  11
HETATM   11  N4  UNL     1      25.531   2.973  49.939  1.00  0.00    -0.340 N 
HETATM   12  H9  UNL     1      25.235   2.312  49.156  1.00  0.00     0.167 HD
BRANCH  11  13
HETATM   13  C8  UNL     1      25.888   4.234  49.397  1.00  0.00     0.048 A 
HETATM   14  C9  UNL     1      27.224   4.353  49.078  1.00  0.00     0.049 A 
HETATM   15  C10 UNL     1      27.644   5.553  48.547  1.00  0.00     0.013 A 
HETATM   16 BR1  UNL     1      29.468   5.770  48.090  1.00  0.00    -0.051 Br
HETATM   17  C11 UNL     1      26.769   6.594  48.340  1.00  0.00     0.020 A 
HETATM   18  C12 UNL     1      25.428   6.515  48.644  1.00  0.00     0.018 A 
HETATM   19  C13 UNL     1      25.056   5.303  49.170  1.00  0.00     0.028 A 
BRANCH  19  20
HETATM   20  C14 UNL     1      23.661   5.153  49.479  1.00  0.00     0.272 C 
HETATM   21  O1  UNL     1      22.605   4.637  49.866  1.00  0.00    -0.301 OA
ENDBRANCH  19  20
ENDBRANCH  11  13
ENDBRANCH   8  11
BRANCH   1  22
HETATM   22  N1  UNL     1      27.767  -0.869  54.042  1.00  0.00    -0.394 N 
HETATM   23  C1  UNL     1      28.649   0.099  54.599  1.00  0.00     0.146 C 
HETATM   24  H4  UNL     1      27.893  -1.894  54.163  1.00  0.00     0.159 HD
ENDBRANCH   1  22
TORSDOF 4
ENDMDL
MODEL 2
REMARK VINA RESULT:      -7.3      2.481      3.889
REMARK  4 active torsions:
REMARK  status: ('A' for Active; 'I' for Inactive)
REMARK    1  A    between atoms: N1_2  and  C2_3 
REMARK    2  A    between atoms: C7_10  and  N4_11 
REMARK    3  A    between atoms: N4_11  and  C8_12 
REMARK    4  A    between atoms: C13_18  and  C14_19 
ROOT
HETATM    1  C2  UNL     1      23.461   0.582  53.055  1.00  0.00     0.027 C 
HETATM    2  C3  UNL     1      24.528   0.040  53.729  1.00  0.00     0.030 C 
HETATM    3  C4  UNL     1      25.547  -0.474  54.467  1.00  0.00     0.021 C 
HETATM    4  C5  UNL     1      26.626   0.294  54.886  1.00  0.00     0.118 C 
HETATM    5  N2  UNL     1      27.312   1.264  54.262  1.00  0.00    -0.254 NA
HETATM    6  C6  UNL     1      27.127   1.422  52.936  1.00  0.00     0.234 C 
HETATM    7  N3  UNL     1      26.821   1.612  51.628  1.00  0.00    -0.225 NA
HETATM    8  C7  UNL     1      25.973   2.611  51.349  1.00  0.00     0.129 C 
HETATM    9  C15 UNL     1      24.731   2.209  51.711  1.00  0.00     0.052 C 
HETATM   10  C16 UNL     1      23.688   1.835  52.527  1.00  0.00     0.033 C 
ENDROOT
BRANCH   8  11
HETATM   11  N4  UNL     1      26.276   3.860  50.802  1.00  0.00    -0.340 N 
HETATM   12  H9  UNL     1      27.299   4.113  50.963  1.00  0.00     0.167 HD
BRANCH  11  13
HETATM   13  C8  UNL     1      25.627   4.900  50.089  1.00  0.00     0.048 A 
HETATM   14  C9  UNL     1      24.369   5.209  50.563  1.00  0.00     0.049 A 
HETATM   15  C10 UNL     1      23.678   6.211  49.918  1.00  0.00     0.013 A 
HETATM   16 BR1  UNL     1      21.947   6.676  50.527  1.00  0.00    -0.051 Br
HETATM   17  C11 UNL     1      24.216   6.881  48.844  1.00  0.00     0.020 A 
HETATM   18  C12 UNL     1      25.468   6.603  48.341  1.00  0.00     0.018 A 
HETATM   19  C13 UNL     1      26.118   5.599  49.015  1.00  0.00     0.028 A 
BRANCH  19  20
HETATM   20  C14 UNL     1      27.442   5.287  48.552  1.00  0.00     0.272 C 
HETATM   21  O1  UNL     1      28.548   4.736  48.478  1.00  0.00    -0.301 OA
ENDBRANCH  19  20
ENDBRANCH  11  13
ENDBRANCH   8  11
BRANCH   1  22
HETATM   22  N1  UNL     1      22.226  -0.107  52.916  1.00  0.00    -0.394 N 
HETATM   23  C1  UNL     1      21.372  -0.136  54.054  1.00  0.00     0.146 C 
HETATM   24  H4  UNL     1      21.988  -0.559  52.010  1.00  0.00     0.159 HD
ENDBRANCH   1  22
TORSDOF 4
ENDMDL
MODEL 3
REMARK VINA RESULT:      -7.3      2.332      2.740
REMARK  4 active torsions:
REMARK  status: ('A' for Active; 'I' for Inactive)
REMARK    1  A    between atoms: N1_2  and  C2_3 
REMARK    2  A    between atoms: C7_10  and  N4_11 
REMARK    3  A    between atoms: N4_11  and  C8_12 
REMARK    4  A    between atoms: C13_18  and  C14_19 
ROOT
HETATM    1  C2  UNL     1      26.890  -0.345  53.262  1.00  0.00     0.027 C 
HETATM    2  C3  UNL     1      25.641  -0.500  53.813  1.00  0.00     0.030 C 
HETATM    3  C4  UNL     1      24.399  -0.726  54.316  1.00  0.00     0.021 C 
HETATM    4  C5  UNL     1      23.242  -0.354  53.644  1.00  0.00     0.118 C 
HETATM    5  N2  UNL     1      22.957   0.737  52.917  1.00  0.00    -0.254 NA
HETATM    6  C6  UNL     1      23.801   1.787  52.988  1.00  0.00     0.234 C 
HETATM    7  N3  UNL     1      24.738   2.768  53.007  1.00  0.00    -0.225 NA
HETATM    8  C7  UNL     1      25.584   2.811  51.970  1.00  0.00     0.129 C 
HETATM    9  C15 UNL     1      26.466   1.793  52.116  1.00  0.00     0.052 C 
HETATM   10  C16 UNL     1      26.941   0.503  52.177  1.00  0.00     0.033 C 
ENDROOT
BRANCH   8  11
HETATM   11  N4  UNL     1      25.580   3.712  50.903  1.00  0.00    -0.340 N 
HETATM   12  H9  UNL     1      26.520   4.208  50.814  1.00  0.00     0.167 HD
BRANCH  11  13
HETATM   13  C8  UNL     1      24.696   4.168  49.893  1.00  0.00     0.048 A 
HETATM   14  C9  UNL     1      23.816   3.209  49.438  1.00  0.00     0.049 A 
HETATM   15  C10 UNL     1      22.925   3.581  48.455  1.00  0.00     0.013 A 
HETATM   16 BR1  UNL     1      21.695   2.304  47.795  1.00  0.00    -0.051 Br
HETATM   17  C11 UNL     1      22.910   4.858  47.943  1.00  0.00     0.020 A 
HETATM   18  C12 UNL     1      23.771   5.845  48.371  1.00  0.00     0.018 A 
HETATM   19  C13 UNL     1      24.638   5.428  49.350  1.00  0.00     0.028 A 
BRANCH  19  20
HETATM   20  C14 UNL     1      25.541   6.425  49.855  1.00  0.00     0.272 C 
HETATM   21  O1  UNL     1      25.942   7.453  50.416  1.00  0.00    -0.301 OA
ENDBRANCH  19  20
ENDBRANCH  11  13
ENDBRANCH   8  11
BRANCH   1  22
HETATM   22  N1  UNL     1      28.033  -1.009  53.783  1.00  0.00    -0.394 N 
HETATM   23  C1  UNL     1      28.995  -0.204  54.455  1.00  0.00     0.146 C 
HETATM   24  H4  UNL     1      28.132  -2.037  53.662  1.00  0.00     0.159 HD
ENDBRANCH   1  22
TORSDOF 4
ENDMDL
MODEL 4
REMARK VINA RESULT:      -7.2      2.395      2.954
REMARK  4 active torsions:
REMARK  status: ('A' for Active; 'I' for Inactive)
REMARK    1  A    between atoms: N1_2  and  C2_3 
REMARK    2  A    between atoms: C7_10  and  N4_11 
REMARK    3  A    between atoms: N4_11  and  C8_12 
REMARK    4  A    between atoms: C13_18  and  C14_19 
ROOT
HETATM    1  C2  UNL     1      24.641  -0.517  54.150  1.00  0.00     0.027 C 
HETATM    2  C3  UNL     1      23.307  -0.668  54.441  1.00  0.00     0.030 C 
HETATM    3  C4  UNL     1      21.995  -0.899  54.712  1.00  0.00     0.021 C 
HETATM    4  C5  UNL     1      21.019  -0.910  53.725  1.00  0.00     0.118 C 
HETATM    5  N2  UNL     1      20.856  -0.140  52.638  1.00  0.00    -0.254 NA
HETATM    6  C6  UNL     1      21.589   0.987  52.541  1.00  0.00     0.234 C 
HETATM    7  N3  UNL     1      22.430   2.046  52.438  1.00  0.00    -0.225 NA
HETATM    8  C7  UNL     1      23.502   1.889  51.650  1.00  0.00     0.129 C 
HETATM    9  C15 UNL     1      24.381   1.094  52.305  1.00  0.00     0.052 C 
HETATM   10  C16 UNL     1      24.906  -0.039  52.885  1.00  0.00     0.033 C 
ENDROOT
BRANCH   8  11
HETATM   11  N4  UNL     1      23.706   2.415  50.372  1.00  0.00    -0.340 N 
HETATM   12  H9  UNL     1      23.390   1.730  49.619  1.00  0.00     0.167 HD
BRANCH  11  13
HETATM   13  C8  UNL     1      24.209   3.597  49.771  1.00  0.00     0.048 A 
HETATM   14  C9  UNL     1      23.245   4.378  49.169  1.00  0.00     0.049 A 
HETATM   15  C10 UNL     1      23.661   5.543  48.563  1.00  0.00     0.013 A 
HETATM   16 BR1  UNL     1      22.380   6.653  47.722  1.00  0.00    -0.051 Br
HETATM   17  C11 UNL     1      24.985   5.918  48.557  1.00  0.00     0.020 A 
HETATM   18  C12 UNL     1      25.977   5.167  49.147  1.00  0.00     0.018 A 
HETATM   19  C13 UNL     1      25.515   4.017  49.737  1.00  0.00     0.028 A 
BRANCH  19  20
HETATM   20  C14 UNL     1      26.504   3.208  50.395  1.00  0.00     0.272 C 
HETATM   21  O1  UNL     1      27.223   2.753  51.294  1.00  0.00    -0.301 OA
ENDBRANCH  19  20
ENDBRANCH  11  13
ENDBRANCH   8  11
BRANCH   1  22
HETATM   22  N1  UNL     1      25.659  -0.828  55.091  1.00  0.00    -0.394 N 
HETATM   23  C1  UNL     1      26.808   0.011  55.099  1.00  0.00     0.146 C 
HETATM   24  H4  UNL     1      25.539  -1.640  55.730  1.00  0.00     0.159 HD
ENDBRANCH   1  22
TORSDOF 4
ENDMDL
MODEL 5
REMARK VINA RESULT:      -7.1      4.301      7.742
REMARK  4 active torsions:
REMARK  status: ('A' for Active; 'I' for Inactive)
REMARK    1  A    between atoms: N1_2  and  C2_3 
REMARK    2  A    between atoms: C7_10  and  N4_11 
REMARK    3  A    between atoms: N4_11  and  C8_12 
REMARK    4  A    between atoms: C13_18  and  C14_19 
ROOT
HETATM    1  C2  UNL     1      23.833   5.810  51.414  1.00  0.00     0.027 C 
HETATM    2  C3  UNL     1      23.535   5.347  50.156  1.00  0.00     0.030 C 
HETATM    3  C4  UNL     1      23.170   4.937  48.913  1.00  0.00     0.021 C 
HETATM    4  C5  UNL     1      22.322   3.858  48.702  1.00  0.00     0.118 C 
HETATM    5  N2  UNL     1      22.227   2.675  49.328  1.00  0.00    -0.254 NA
HETATM    6  C6  UNL     1      23.225   2.314  50.159  1.00  0.00     0.234 C 
HETATM    7  N3  UNL     1      24.197   2.050  51.068  1.00  0.00    -0.225 NA
HETATM    8  C7  UNL     1      23.897   2.281  52.353  1.00  0.00     0.129 C 
HETATM    9  C15 UNL     1      23.909   3.622  52.544  1.00  0.00     0.052 C 
HETATM   10  C16 UNL     1      23.524   4.939  52.437  1.00  0.00     0.033 C 
ENDROOT
BRANCH   8  11
HETATM   11  N4  UNL     1      23.601   1.341  53.343  1.00  0.00    -0.340 N 
HETATM   12  H9  UNL     1      24.307   1.386  54.140  1.00  0.00     0.167 HD
BRANCH  11  13
HETATM   13  C8  UNL     1      22.635   0.337  53.608  1.00  0.00     0.048 A 
HETATM   14  C9  UNL     1      21.424   0.539  52.980  1.00  0.00     0.049 A 
HETATM   15  C10 UNL     1      20.436  -0.397  53.192  1.00  0.00     0.013 A 
HETATM   16 BR1  UNL     1      18.755  -0.168  52.354  1.00  0.00    -0.051 Br
HETATM   17  C11 UNL     1      20.643  -1.492  53.998  1.00  0.00     0.020 A 
HETATM   18  C12 UNL     1      21.837  -1.730  54.643  1.00  0.00     0.018 A 
HETATM   19  C13 UNL     1      22.791  -0.773  54.401  1.00  0.00     0.028 A 
BRANCH  19  20
HETATM   20  C14 UNL     1      24.067  -0.986  55.024  1.00  0.00     0.272 C 
HETATM   21  O1  UNL     1      24.962  -1.529  55.685  1.00  0.00    -0.301 OA
ENDBRANCH  19  20
ENDBRANCH  11  13
ENDBRANCH   8  11
BRANCH   1  22
HETATM   22  N1  UNL     1      24.418   7.086  51.632  1.00  0.00    -0.394 N 
HETATM   23  C1  UNL     1      24.099   8.110  50.696  1.00  0.00     0.146 C 
HETATM   24  H4  UNL     1      25.047   7.232  52.446  1.00  0.00     0.159 HD
ENDBRANCH   1  22
TORSDOF 4
ENDMDL
MODEL 6
REMARK VINA RESULT:      -7.1      4.163      7.097
REMARK  4 active torsions:
REMARK  status: ('A' for Active; 'I' for Inactive)
REMARK    1  A    between atoms: N1_2  and  C2_3 
REMARK    2  A    between atoms: C7_10  and  N4_11 
REMARK    3  A    between atoms: N4_11  and  C8_12 
REMARK    4  A    between atoms: C13_18  and  C14_19 
ROOT
HETATM    1  C2  UNL     1      26.507   1.946  52.516  1.00  0.00     0.027 C 
HETATM    2  C3  UNL     1      26.393   2.565  51.295  1.00  0.00     0.030 C 
HETATM    3  C4  UNL     1      26.313   3.246  50.122  1.00  0.00     0.021 C 
HETATM    4  C5  UNL     1      25.216   4.028  49.787  1.00  0.00     0.118 C 
HETATM    5  N2  UNL     1      23.903   3.836  49.986  1.00  0.00    -0.254 NA
HETATM    6  C6  UNL     1      23.490   2.611  50.367  1.00  0.00     0.234 C 
HETATM    7  N3  UNL     1      23.140   1.395  50.857  1.00  0.00    -0.225 NA
HETATM    8  C7  UNL     1      22.925   1.319  52.177  1.00  0.00     0.129 C 
HETATM    9  C15 UNL     1      24.130   1.361  52.793  1.00  0.00     0.052 C 
HETATM   10  C16 UNL     1      25.332   1.866  53.234  1.00  0.00     0.033 C 
ENDROOT
BRANCH   8  11
HETATM   11  N4  UNL     1      21.697   1.231  52.838  1.00  0.00    -0.340 N 
HETATM   12  H9  UNL     1      21.623   1.961  53.611  1.00  0.00     0.167 HD
BRANCH  11  13
HETATM   13  C8  UNL     1      20.510   0.458  52.787  1.00  0.00     0.048 A 
HETATM   14  C9  UNL     1      19.602   0.879  51.838  1.00  0.00     0.049 A 
HETATM   15  C10 UNL     1      18.423   0.174  51.732  1.00  0.00     0.013 A 
HETATM   16 BR1  UNL     1      17.142   0.711  50.446  1.00  0.00    -0.051 Br
HETATM   17  C11 UNL     1      18.157  -0.909  52.537  1.00  0.00     0.020 A 
HETATM   18  C12 UNL     1      19.037  -1.362  53.495  1.00  0.00     0.018 A 
HETATM   19  C13 UNL     1      20.196  -0.630  53.564  1.00  0.00     0.028 A 
BRANCH  19  20
HETATM   20  C14 UNL     1      21.165  -1.077  54.526  1.00  0.00     0.272 C 
HETATM   21  O1  UNL     1      22.078  -1.038  55.360  1.00  0.00    -0.301 OA
ENDBRANCH  19  20
ENDBRANCH  11  13
ENDBRANCH   8  11
BRANCH   1  22
HETATM   22  N1  UNL     1      27.742   1.429  52.989  1.00  0.00    -0.394 N 
HETATM   23  C1  UNL     1      28.607   2.338  53.660  1.00  0.00     0.146 C 
HETATM   24  H4  UNL     1      27.974   0.427  52.836  1.00  0.00     0.159 HD
ENDBRANCH   1  22
TORSDOF 4
ENDMDL
MODEL 7
REMARK VINA RESULT:      -7.0      3.720      7.255
REMARK  4 active torsions:
REMARK  status: ('A' for Active; 'I' for Inactive)
REMARK    1  A    between atoms: N1_2  and  C2_3 
REMARK    2  A    between atoms: C7_10  and  N4_11 
REMARK    3  A    between atoms: N4_11  and  C8_12 
REMARK    4  A    between atoms: C13_18  and  C14_19 
ROOT
HETATM    1  C2  UNL     1      26.446   4.409  49.717  1.00  0.00     0.027 C 
HETATM    2  C3  UNL     1      25.444   5.306  49.997  1.00  0.00     0.030 C 
HETATM    3  C4  UNL     1      24.508   6.238  50.319  1.00  0.00     0.021 C 
HETATM    4  C5  UNL     1      23.772   6.182  51.494  1.00  0.00     0.118 C 
HETATM    5  N2  UNL     1      23.236   5.141  52.150  1.00  0.00    -0.254 NA
HETATM    6  C6  UNL     1      23.170   3.954  51.513  1.00  0.00     0.234 C 
HETATM    7  N3  UNL     1      23.231   2.761  50.872  1.00  0.00    -0.225 NA
HETATM    8  C7  UNL     1      24.224   1.936  51.229  1.00  0.00     0.129 C 
HETATM    9  C15 UNL     1      25.372   2.421  50.699  1.00  0.00     0.052 C 
HETATM   10  C16 UNL     1      26.436   3.271  50.495  1.00  0.00     0.033 C 
ENDROOT
BRANCH   8  11
HETATM   11  N4  UNL     1      24.137   0.787  52.019  1.00  0.00    -0.340 N 
HETATM   12  H9  UNL     1      25.037   0.217  51.969  1.00  0.00     0.167 HD
BRANCH  11  13
HETATM   13  C8  UNL     1      23.205   0.147  52.875  1.00  0.00     0.048 A 
HETATM   14  C9  UNL     1      21.896   0.238  52.453  1.00  0.00     0.049 A 
HETATM   15  C10 UNL     1      20.934  -0.361  53.236  1.00  0.00     0.013 A 
HETATM   16 BR1  UNL     1      19.121  -0.267  52.703  1.00  0.00    -0.051 Br
HETATM   17  C11 UNL     1      21.261  -1.026  54.395  1.00  0.00     0.020 A 
HETATM   18  C12 UNL     1      22.557  -1.140  54.851  1.00  0.00     0.018 A 
HETATM   19  C13 UNL     1      23.479  -0.529  54.038  1.00  0.00     0.028 A 
BRANCH  19  20
HETATM   20  C14 UNL     1      24.851  -0.642  54.449  1.00  0.00     0.272 C 
HETATM   21  O1  UNL     1      26.055  -0.925  54.415  1.00  0.00    -0.301 OA
ENDBRANCH  19  20
ENDBRANCH  11  13
ENDBRANCH   8  11
BRANCH   1  22
HETATM   22  N1  UNL     1      27.408   4.645  48.700  1.00  0.00    -0.394 N 
HETATM   23  C1  UNL     1      27.713   6.003  48.402  1.00  0.00     0.146 C 
HETATM   24  H4  UNL     1      27.852   3.840  48.213  1.00  0.00     0.159 HD
ENDBRANCH   1  22
TORSDOF 4
ENDMDL
MODEL 8
REMARK VINA RESULT:      -6.9      3.738      7.829
REMARK  4 active torsions:
REMARK  status: ('A' for Active; 'I' for Inactive)
REMARK    1  A    between atoms: N1_2  and  C2_3 
REMARK    2  A    between atoms: C7_10  and  N4_11 
REMARK    3  A    between atoms: N4_11  and  C8_12 
REMARK    4  A    between atoms: C13_18  and  C14_19 
ROOT
HETATM    1  C2  UNL     1      23.411   4.922  48.596  1.00  0.00     0.027 C 
HETATM    2  C3  UNL     1      24.736   5.143  48.887  1.00  0.00     0.030 C 
HETATM    3  C4  UNL     1      26.063   5.351  49.092  1.00  0.00     0.021 C 
HETATM    4  C5  UNL     1      26.956   4.311  49.311  1.00  0.00     0.118 C 
HETATM    5  N2  UNL     1      26.831   3.174  50.013  1.00  0.00    -0.254 NA
HETATM    6  C6  UNL     1      25.779   3.055  50.848  1.00  0.00     0.234 C 
HETATM    7  N3  UNL     1      24.646   2.940  51.585  1.00  0.00    -0.225 NA
HETATM    8  C7  UNL     1      23.649   2.225  51.048  1.00  0.00     0.129 C 
HETATM    9  C15 UNL     1      23.086   2.975  50.070  1.00  0.00     0.052 C 
HETATM   10  C16 UNL     1      22.964   3.648  48.876  1.00  0.00     0.033 C 
ENDROOT
BRANCH   8  11
HETATM   11  N4  UNL     1      23.244   0.933  51.391  1.00  0.00    -0.340 N 
HETATM   12  H9  UNL     1      23.492   0.236  50.623  1.00  0.00     0.167 HD
BRANCH  11  13
HETATM   13  C8  UNL     1      22.599   0.265  52.462  1.00  0.00     0.048 A 
HETATM   14  C9  UNL     1      21.239   0.113  52.296  1.00  0.00     0.049 A 
HETATM   15  C10 UNL     1      20.545  -0.528  53.299  1.00  0.00     0.013 A 
HETATM   16 BR1  UNL     1      18.676  -0.762  53.121  1.00  0.00    -0.051 Br
HETATM   17  C11 UNL     1      21.179  -1.001  54.423  1.00  0.00     0.020 A 
HETATM   18  C12 UNL     1      22.536  -0.871  54.627  1.00  0.00     0.018 A 
HETATM   19  C13 UNL     1      23.184  -0.227  53.603  1.00  0.00     0.028 A 
BRANCH  19  20
HETATM   20  C14 UNL     1      24.606  -0.089  53.748  1.00  0.00     0.272 C 
HETATM   21  O1  UNL     1      25.757   0.334  53.578  1.00  0.00    -0.301 OA
ENDBRANCH  19  20
ENDBRANCH  11  13
ENDBRANCH   8  11
BRANCH   1  22
HETATM   22  N1  UNL     1      22.577   5.936  48.055  1.00  0.00    -0.394 N 
HETATM   23  C1  UNL     1      22.202   5.801  46.688  1.00  0.00     0.146 C 
HETATM   24  H4  UNL     1      22.272   6.728  48.656  1.00  0.00     0.159 HD
ENDBRANCH   1  22
TORSDOF 4
ENDMDL
MODEL 9
REMARK VINA RESULT:      -6.9      4.005      7.197
REMARK  4 active torsions:
REMARK  status: ('A' for Active; 'I' for Inactive)
REMARK    1  A    between atoms: N1_2  and  C2_3 
REMARK    2  A    between atoms: C7_10  and  N4_11 
REMARK    3  A    between atoms: N4_11  and  C8_12 
REMARK    4  A    between atoms: C13_18  and  C14_19 
ROOT
HETATM    1  C2  UNL     1      25.606   3.156  51.041  1.00  0.00     0.027 C 
HETATM    2  C3  UNL     1      26.512   2.551  51.877  1.00  0.00     0.030 C 
HETATM    3  C4  UNL     1      27.458   1.939  52.637  1.00  0.00     0.021 C 
HETATM    4  C5  UNL     1      27.496   0.563  52.817  1.00  0.00     0.118 C 
HETATM    5  N2  UNL     1      26.510  -0.332  52.984  1.00  0.00    -0.254 NA
HETATM    6  C6  UNL     1      25.272   0.129  53.253  1.00  0.00     0.234 C 
HETATM    7  N3  UNL     1      24.028   0.647  53.408  1.00  0.00    -0.225 NA
HETATM    8  C7  UNL     1      23.249   0.676  52.319  1.00  0.00     0.129 C 
HETATM    9  C15 UNL     1      23.699   1.671  51.518  1.00  0.00     0.052 C 
HETATM   10  C16 UNL     1      24.539   2.362  50.675  1.00  0.00     0.033 C 
ENDROOT
BRANCH   8  11
HETATM   11  N4  UNL     1      22.172  -0.161  52.018  1.00  0.00    -0.340 N 
HETATM   12  H9  UNL     1      22.498  -1.041  51.512  1.00  0.00     0.167 HD
BRANCH  11  13
HETATM   13  C8  UNL     1      20.764  -0.193  52.186  1.00  0.00     0.048 A 
HETATM   14  C9  UNL     1      20.060   0.423  51.173  1.00  0.00     0.049 A 
HETATM   15  C10 UNL     1      18.686   0.431  51.269  1.00  0.00     0.013 A 
HETATM   16 BR1  UNL     1      17.671   1.263  49.906  1.00  0.00    -0.051 Br
HETATM   17  C11 UNL     1      18.036  -0.152  52.332  1.00  0.00     0.020 A 
HETATM   18  C12 UNL     1      18.702  -0.778  53.363  1.00  0.00     0.018 A 
HETATM   19  C13 UNL     1      20.067  -0.761  53.224  1.00  0.00     0.028 A 
BRANCH  19  20
HETATM   20  C14 UNL     1      20.812  -1.426  54.256  1.00  0.00     0.272 C 
HETATM   21  O1  UNL     1      21.751  -1.720  55.007  1.00  0.00    -0.301 OA
ENDBRANCH  19  20
ENDBRANCH  11  13
ENDBRANCH   8  11
BRANCH   1  22
HETATM   22  N1  UNL     1      25.763   4.496  50.598  1.00  0.00    -0.394 N 
HETATM   23  C1  UNL     1      25.220   4.823  49.324  1.00  0.00     0.146 C 
HETATM   24  H4  UNL     1      26.258   5.183  51.202  1.00  0.00     0.159 HD
ENDBRANCH   1  22
TORSDOF 4
ENDMDL
