MODEL 1
REMARK VINA RESULT:      -6.6      0.000      0.000
REMARK  5 active torsions:
REMARK  status: ('A' for Active; 'I' for Inactive)
REMARK    1  A    between atoms: C3_3  and  O1_4 
REMARK    2  A    between atoms: O1_4  and  P1_5 
REMARK    3  A    between atoms: P1_5  and  N1_6 
REMARK    4  A    between atoms: C4_7  and  C5_8 
REMARK    5  A    between atoms: C5_8  and  N2_9 
ROOT
HETATM    1  C1  UNL     1      25.446   7.962  48.487  1.00  0.00     0.051 C 
HETATM    2  C2  UNL     1      26.759   7.291  48.335  1.00  0.00    -0.029 C 
HETATM    3  C3  UNL     1      26.817   6.000  48.610  1.00  0.00     0.061 C 
HETATM    4  C11 UNL     1      27.916   4.999  48.581  1.00  0.00     0.086 C 
HETATM    5  C12 UNL     1      29.215   5.640  48.111  1.00  0.00     0.148 C 
HETATM    6  N3  UNL     1      29.561   6.733  48.996  1.00  0.00    -0.314 N 
HETATM    7  N4  UNL     1      30.604   7.686  48.979  1.00  0.00    -0.196 NA
HETATM    8  C13 UNL     1      30.278   8.948  49.094  1.00  0.00     0.115 C 
HETATM    9  C14 UNL     1      28.824   9.251  49.233  1.00  0.00     0.084 C 
HETATM   10  P2  UNL     1      27.886   8.596  47.787  1.00  0.00    -0.092 P 
HETATM   11  H22 UNL     1      28.956   6.899  49.837  1.00  0.00     0.182 HD
HETATM   12  H26 UNL     1      28.691   8.211  46.676  1.00  0.00     0.062 HD
ENDROOT
BRANCH   3  13
HETATM   13  O1  UNL     1      25.647   5.385  49.017  1.00  0.00    -0.307 OA
BRANCH  13  14
HETATM   14  P1  UNL     1      25.761   3.775  49.705  1.00  0.00     0.143 P 
HETATM   15  H4  UNL     1      25.118   2.791  48.850  1.00  0.00     0.113 HD
BRANCH  14  16
HETATM   16  N1  UNL     1      24.878   3.780  51.251  1.00  0.00    -0.249 NA
HETATM   17  C4  UNL     1      24.896   2.746  52.007  1.00  0.00     0.120 C 
BRANCH  17  18
HETATM   18  C5  UNL     1      25.635   1.514  51.647  1.00  0.00     0.319 C 
BRANCH  18  19
HETATM   19  N2  UNL     1      26.883   1.362  52.304  1.00  0.00     0.093 N 
HETATM   20  C6  UNL     1      27.181  -0.022  52.567  1.00  0.00     0.273 C 
HETATM   21  C7  UNL     1      28.085  -0.202  53.755  1.00  0.00     0.030 C 
HETATM   22  C8  UNL     1      29.211   0.795  53.642  1.00  0.00     0.003 C 
HETATM   23  C9  UNL     1      28.621   2.189  53.674  1.00  0.00     0.030 C 
HETATM   24  C10 UNL     1      27.101   2.139  53.477  1.00  0.00     0.273 C 
ENDBRANCH  18  19
ENDBRANCH  17  18
ENDBRANCH  14  16
ENDBRANCH  13  14
ENDBRANCH   3  13
TORSDOF 5
ENDMDL
MODEL 2
REMARK VINA RESULT:      -6.6      3.724      7.346
REMARK  5 active torsions:
REMARK  status: ('A' for Active; 'I' for Inactive)
REMARK    1  A    between atoms: C3_3  and  O1_4 
REMARK    2  A    between atoms: O1_4  and  P1_5 
REMARK    3  A    between atoms: P1_5  and  N1_6 
REMARK    4  A    between atoms: C4_7  and  C5_8 
REMARK    5  A    between atoms: C5_8  and  N2_9 
ROOT
HETATM    1  C1  UNL     1      22.707  -0.897  53.190  1.00  0.00     0.051 C 
HETATM    2  C2  UNL     1      23.741   0.155  53.341  1.00  0.00    -0.029 C 
HETATM    3  C3  UNL     1      23.433   1.373  52.933  1.00  0.00     0.061 C 
HETATM    4  C11 UNL     1      24.174   2.661  52.915  1.00  0.00     0.086 C 
HETATM    5  C12 UNL     1      25.559   2.493  53.523  1.00  0.00     0.148 C 
HETATM    6  N3  UNL     1      26.292   1.487  52.781  1.00  0.00    -0.314 N 
HETATM    7  N4  UNL     1      27.567   0.906  52.959  1.00  0.00    -0.196 NA
HETATM    8  C13 UNL     1      27.646  -0.401  52.962  1.00  0.00     0.115 C 
HETATM    9  C14 UNL     1      26.368  -1.146  52.776  1.00  0.00     0.084 C 
HETATM   10  P2  UNL     1      25.156  -0.690  54.088  1.00  0.00    -0.092 P 
HETATM   11  H22 UNL     1      25.839   1.073  51.931  1.00  0.00     0.182 HD
HETATM   12  H26 UNL     1      25.710   0.018  55.195  1.00  0.00     0.062 HD
ENDROOT
BRANCH   3  13
HETATM   13  O1  UNL     1      22.172   1.562  52.398  1.00  0.00    -0.307 OA
BRANCH  13  14
HETATM   14  P1  UNL     1      21.832   3.094  51.612  1.00  0.00     0.143 P 
HETATM   15  H4  UNL     1      20.505   3.577  51.953  1.00  0.00     0.113 HD
BRANCH  14  16
HETATM   16  N1  UNL     1      21.853   2.821  49.853  1.00  0.00    -0.249 NA
HETATM   17  C4  UNL     1      22.469   3.636  49.082  1.00  0.00     0.120 C 
BRANCH  17  18
HETATM   18  C5  UNL     1      23.184   4.828  49.596  1.00  0.00     0.319 C 
BRANCH  18  19
HETATM   19  N2  UNL     1      24.566   4.869  49.277  1.00  0.00     0.093 N 
HETATM   20  C6  UNL     1      25.177   3.569  49.388  1.00  0.00     0.273 C 
HETATM   21  C7  UNL     1      26.647   3.648  49.695  1.00  0.00     0.030 C 
HETATM   22  C8  UNL     1      27.259   4.685  48.788  1.00  0.00     0.003 C 
HETATM   23  C9  UNL     1      26.618   6.024  49.088  1.00  0.00     0.030 C 
HETATM   24  C10 UNL     1      25.361   5.841  49.947  1.00  0.00     0.273 C 
ENDBRANCH  18  19
ENDBRANCH  17  18
ENDBRANCH  14  16
ENDBRANCH  13  14
ENDBRANCH   3  13
TORSDOF 5
ENDMDL
MODEL 3
REMARK VINA RESULT:      -6.6      2.743      3.628
REMARK  5 active torsions:
REMARK  status: ('A' for Active; 'I' for Inactive)
REMARK    1  A    between atoms: C3_3  and  O1_4 
REMARK    2  A    between atoms: O1_4  and  P1_5 
REMARK    3  A    between atoms: P1_5  and  N1_6 
REMARK    4  A    between atoms: C4_7  and  C5_8 
REMARK    5  A    between atoms: C5_8  and  N2_9 
ROOT
HETATM    1  C1  UNL     1      24.226   7.522  50.752  1.00  0.00     0.051 C 
HETATM    2  C2  UNL     1      25.375   7.143  49.894  1.00  0.00    -0.029 C 
HETATM    3  C3  UNL     1      25.679   5.860  49.819  1.00  0.00     0.061 C 
HETATM    4  C11 UNL     1      26.728   5.100  49.088  1.00  0.00     0.086 C 
HETATM    5  C12 UNL     1      27.587   6.039  48.253  1.00  0.00     0.148 C 
HETATM    6  N3  UNL     1      28.200   7.028  49.117  1.00  0.00    -0.314 N 
HETATM    7  N4  UNL     1      29.016   8.151  48.858  1.00  0.00    -0.196 NA
HETATM    8  C13 UNL     1      28.662   9.297  49.383  1.00  0.00     0.115 C 
HETATM    9  C14 UNL     1      27.419   9.295  50.209  1.00  0.00     0.084 C 
HETATM   10  P2  UNL     1      25.983   8.706  49.215  1.00  0.00    -0.092 P 
HETATM   11  H22 UNL     1      28.045   6.945  50.151  1.00  0.00     0.182 HD
HETATM   12  H26 UNL     1      26.209   8.655  47.808  1.00  0.00     0.062 HD
ENDROOT
BRANCH   3  13
HETATM   13  O1  UNL     1      24.900   4.979  50.548  1.00  0.00    -0.307 OA
BRANCH  13  14
HETATM   14  P1  UNL     1      25.132   3.261  50.282  1.00  0.00     0.143 P 
HETATM   15  H4  UNL     1      23.872   2.599  49.989  1.00  0.00     0.113 HD
BRANCH  14  16
HETATM   16  N1  UNL     1      25.754   2.554  51.794  1.00  0.00    -0.249 NA
HETATM   17  C4  UNL     1      24.942   2.120  52.683  1.00  0.00     0.120 C 
BRANCH  17  18
HETATM   18  C5  UNL     1      23.471   2.177  52.511  1.00  0.00     0.319 C 
BRANCH  18  19
HETATM   19  N2  UNL     1      22.751   1.216  53.265  1.00  0.00     0.093 N 
HETATM   20  C6  UNL     1      23.393  -0.073  53.235  1.00  0.00     0.273 C 
HETATM   21  C7  UNL     1      22.422  -1.205  53.433  1.00  0.00     0.030 C 
HETATM   22  C8  UNL     1      21.517  -0.848  54.586  1.00  0.00     0.003 C 
HETATM   23  C9  UNL     1      20.750   0.405  54.223  1.00  0.00     0.030 C 
HETATM   24  C10 UNL     1      21.362   1.077  52.988  1.00  0.00     0.273 C 
ENDBRANCH  18  19
ENDBRANCH  17  18
ENDBRANCH  14  16
ENDBRANCH  13  14
ENDBRANCH   3  13
TORSDOF 5
ENDMDL
MODEL 4
REMARK VINA RESULT:      -6.5      1.884      2.294
REMARK  5 active torsions:
REMARK  status: ('A' for Active; 'I' for Inactive)
REMARK    1  A    between atoms: C3_3  and  O1_4 
REMARK    2  A    between atoms: O1_4  and  P1_5 
REMARK    3  A    between atoms: P1_5  and  N1_6 
REMARK    4  A    between atoms: C4_7  and  C5_8 
REMARK    5  A    between atoms: C5_8  and  N2_9 
ROOT
HETATM    1  C1  UNL     1      25.532   8.645  49.384  1.00  0.00     0.051 C 
HETATM    2  C2  UNL     1      26.149   7.325  49.112  1.00  0.00    -0.029 C 
HETATM    3  C3  UNL     1      25.707   6.292  49.807  1.00  0.00     0.061 C 
HETATM    4  C11 UNL     1      26.059   4.848  49.825  1.00  0.00     0.086 C 
HETATM    5  C12 UNL     1      27.142   4.546  48.798  1.00  0.00     0.148 C 
HETATM    6  N3  UNL     1      28.315   5.348  49.084  1.00  0.00    -0.314 N 
HETATM    7  N4  UNL     1      29.551   5.508  48.419  1.00  0.00    -0.196 NA
HETATM    8  C13 UNL     1      29.949   6.727  48.157  1.00  0.00     0.115 C 
HETATM    9  C14 UNL     1      29.045   7.831  48.593  1.00  0.00     0.084 C 
HETATM   10  P2  UNL     1      27.380   7.646  47.824  1.00  0.00    -0.092 P 
HETATM   11  H22 UNL     1      28.305   5.948  49.944  1.00  0.00     0.182 HD
HETATM   12  H26 UNL     1      27.318   6.715  46.746  1.00  0.00     0.062 HD
ENDROOT
BRANCH   3  13
HETATM   13  O1  UNL     1      24.706   6.531  50.731  1.00  0.00    -0.307 OA
BRANCH  13  14
HETATM   14  P1  UNL     1      23.464   5.309  50.933  1.00  0.00     0.143 P 
HETATM   15  H4  UNL     1      22.135   5.880  50.795  1.00  0.00     0.113 HD
BRANCH  14  16
HETATM   16  N1  UNL     1      23.589   4.674  52.592  1.00  0.00    -0.249 NA
HETATM   17  C4  UNL     1      23.783   3.424  52.790  1.00  0.00     0.120 C 
BRANCH  17  18
HETATM   18  C5  UNL     1      23.911   2.455  51.677  1.00  0.00     0.319 C 
BRANCH  18  19
HETATM   19  N2  UNL     1      24.690   1.309  51.980  1.00  0.00     0.093 N 
HETATM   20  C6  UNL     1      24.152   0.581  53.101  1.00  0.00     0.273 C 
HETATM   21  C7  UNL     1      25.205  -0.197  53.841  1.00  0.00     0.030 C 
HETATM   22  C8  UNL     1      26.057  -0.915  52.825  1.00  0.00     0.003 C 
HETATM   23  C9  UNL     1      26.731   0.119  51.948  1.00  0.00     0.030 C 
HETATM   24  C10 UNL     1      26.090   1.498  52.148  1.00  0.00     0.273 C 
ENDBRANCH  18  19
ENDBRANCH  17  18
ENDBRANCH  14  16
ENDBRANCH  13  14
ENDBRANCH   3  13
TORSDOF 5
ENDMDL
MODEL 5
REMARK VINA RESULT:      -6.3      1.739      2.062
REMARK  5 active torsions:
REMARK  status: ('A' for Active; 'I' for Inactive)
REMARK    1  A    between atoms: C3_3  and  O1_4 
REMARK    2  A    between atoms: O1_4  and  P1_5 
REMARK    3  A    between atoms: P1_5  and  N1_6 
REMARK    4  A    between atoms: C4_7  and  C5_8 
REMARK    5  A    between atoms: C5_8  and  N2_9 
ROOT
HETATM    1  C1  UNL     1      23.107   6.885  48.640  1.00  0.00     0.051 C 
HETATM    2  C2  UNL     1      24.533   6.487  48.571  1.00  0.00    -0.029 C 
HETATM    3  C3  UNL     1      24.872   5.340  49.130  1.00  0.00     0.061 C 
HETATM    4  C11 UNL     1      26.162   4.613  49.268  1.00  0.00     0.086 C 
HETATM    5  C12 UNL     1      27.287   5.381  48.588  1.00  0.00     0.148 C 
HETATM    6  N3  UNL     1      27.394   6.701  49.177  1.00  0.00    -0.314 N 
HETATM    7  N4  UNL     1      28.205   7.819  48.881  1.00  0.00    -0.196 NA
HETATM    8  C13 UNL     1      27.614   8.976  48.722  1.00  0.00     0.115 C 
HETATM    9  C14 UNL     1      26.130   8.992  48.872  1.00  0.00     0.084 C 
HETATM   10  P2  UNL     1      25.346   7.832  47.673  1.00  0.00    -0.092 P 
HETATM   11  H22 UNL     1      26.774   6.930  49.992  1.00  0.00     0.182 HD
HETATM   12  H26 UNL     1      26.208   7.371  46.634  1.00  0.00     0.062 HD
ENDROOT
BRANCH   3  13
HETATM   13  O1  UNL     1      23.867   4.608  49.735  1.00  0.00    -0.307 OA
BRANCH  13  14
HETATM   14  P1  UNL     1      24.201   3.887  51.300  1.00  0.00     0.143 P 
HETATM   15  H4  UNL     1      25.572   4.133  51.710  1.00  0.00     0.113 HD
BRANCH  14  16
HETATM   16  N1  UNL     1      24.011   2.124  51.139  1.00  0.00    -0.249 NA
HETATM   17  C4  UNL     1      24.668   1.334  51.903  1.00  0.00     0.120 C 
BRANCH  17  18
HETATM   18  C5  UNL     1      25.603   1.828  52.940  1.00  0.00     0.319 C 
BRANCH  18  19
HETATM   19  N2  UNL     1      26.713   0.979  53.185  1.00  0.00     0.093 N 
HETATM   20  C6  UNL     1      26.745  -0.132  52.270  1.00  0.00     0.273 C 
HETATM   21  C7  UNL     1      27.445  -1.332  52.845  1.00  0.00     0.030 C 
HETATM   22  C8  UNL     1      28.723  -0.862  53.494  1.00  0.00     0.003 C 
HETATM   23  C9  UNL     1      28.369   0.089  54.616  1.00  0.00     0.030 C 
HETATM   24  C10 UNL     1      26.899   0.519  54.519  1.00  0.00     0.273 C 
ENDBRANCH  18  19
ENDBRANCH  17  18
ENDBRANCH  14  16
ENDBRANCH  13  14
ENDBRANCH   3  13
TORSDOF 5
ENDMDL
MODEL 6
REMARK VINA RESULT:      -6.3      3.486      4.698
REMARK  5 active torsions:
REMARK  status: ('A' for Active; 'I' for Inactive)
REMARK    1  A    between atoms: C3_3  and  O1_4 
REMARK    2  A    between atoms: O1_4  and  P1_5 
REMARK    3  A    between atoms: P1_5  and  N1_6 
REMARK    4  A    between atoms: C4_7  and  C5_8 
REMARK    5  A    between atoms: C5_8  and  N2_9 
ROOT
HETATM    1  C1  UNL     1      21.554   4.048  52.238  1.00  0.00     0.051 C 
HETATM    2  C2  UNL     1      22.840   4.016  51.501  1.00  0.00    -0.029 C 
HETATM    3  C3  UNL     1      23.703   3.070  51.825  1.00  0.00     0.061 C 
HETATM    4  C11 UNL     1      25.059   2.713  51.332  1.00  0.00     0.086 C 
HETATM    5  C12 UNL     1      25.486   3.647  50.209  1.00  0.00     0.148 C 
HETATM    6  N3  UNL     1      25.475   5.015  50.689  1.00  0.00    -0.314 N 
HETATM    7  N4  UNL     1      25.712   6.254  50.054  1.00  0.00    -0.196 NA
HETATM    8  C13 UNL     1      24.816   7.196  50.202  1.00  0.00     0.115 C 
HETATM    9  C14 UNL     1      23.625   6.858  51.034  1.00  0.00     0.084 C 
HETATM   10  P2  UNL     1      22.742   5.398  50.336  1.00  0.00    -0.092 P 
HETATM   11  H22 UNL     1      25.256   5.181  51.701  1.00  0.00     0.182 HD
HETATM   12  H26 UNL     1      23.128   5.042  49.011  1.00  0.00     0.062 HD
ENDROOT
BRANCH   3  13
HETATM   13  O1  UNL     1      23.333   2.190  52.826  1.00  0.00    -0.307 OA
BRANCH  13  14
HETATM   14  P1  UNL     1      23.414   0.471  52.483  1.00  0.00     0.143 P 
HETATM   15  H4  UNL     1      22.133  -0.034  52.022  1.00  0.00     0.113 HD
BRANCH  14  16
HETATM   16  N1  UNL     1      23.791  -0.371  54.006  1.00  0.00    -0.249 NA
HETATM   17  C4  UNL     1      24.974  -0.322  54.493  1.00  0.00     0.120 C 
BRANCH  17  18
HETATM   18  C5  UNL     1      26.074   0.420  53.833  1.00  0.00     0.319 C 
BRANCH  18  19
HETATM   19  N2  UNL     1      27.324  -0.250  53.840  1.00  0.00     0.093 N 
HETATM   20  C6  UNL     1      28.406   0.647  54.155  1.00  0.00     0.273 C 
HETATM   21  C7  UNL     1      29.717   0.197  53.570  1.00  0.00     0.030 C 
HETATM   22  C8  UNL     1      29.868  -1.279  53.843  1.00  0.00     0.003 C 
HETATM   23  C9  UNL     1      28.738  -2.012  53.151  1.00  0.00     0.030 C 
HETATM   24  C10 UNL     1      27.653  -1.029  52.695  1.00  0.00     0.273 C 
ENDBRANCH  18  19
ENDBRANCH  17  18
ENDBRANCH  14  16
ENDBRANCH  13  14
ENDBRANCH   3  13
TORSDOF 5
ENDMDL
MODEL 7
REMARK VINA RESULT:      -6.2      5.529      7.643
REMARK  5 active torsions:
REMARK  status: ('A' for Active; 'I' for Inactive)
REMARK    1  A    between atoms: C3_3  and  O1_4 
REMARK    2  A    between atoms: O1_4  and  P1_5 
REMARK    3  A    between atoms: P1_5  and  N1_6 
REMARK    4  A    between atoms: C4_7  and  C5_8 
REMARK    5  A    between atoms: C5_8  and  N2_9 
ROOT
HETATM    1  C1  UNL     1      24.787   2.891  52.649  1.00  0.00     0.051 C 
HETATM    2  C2  UNL     1      25.364   1.534  52.812  1.00  0.00    -0.029 C 
HETATM    3  C3  UNL     1      24.551   0.574  53.214  1.00  0.00     0.061 C 
HETATM    4  C11 UNL     1      24.741  -0.875  53.488  1.00  0.00     0.086 C 
HETATM    5  C12 UNL     1      26.180  -1.290  53.213  1.00  0.00     0.148 C 
HETATM    6  N3  UNL     1      27.074  -0.506  54.040  1.00  0.00    -0.314 N 
HETATM    7  N4  UNL     1      28.483  -0.438  54.130  1.00  0.00    -0.196 NA
HETATM    8  C13 UNL     1      29.041   0.744  54.061  1.00  0.00     0.115 C 
HETATM    9  C14 UNL     1      28.121   1.907  53.893  1.00  0.00     0.084 C 
HETATM   10  P2  UNL     1      27.108   1.715  52.365  1.00  0.00    -0.092 P 
HETATM   11  H22 UNL     1      26.652   0.159  54.732  1.00  0.00     0.182 HD
HETATM   12  H26 UNL     1      27.563   0.705  51.468  1.00  0.00     0.062 HD
ENDROOT
BRANCH   3  13
HETATM   13  O1  UNL     1      23.232   0.915  53.449  1.00  0.00    -0.307 OA
BRANCH  13  14
HETATM   14  P1  UNL     1      22.039  -0.371  53.463  1.00  0.00     0.143 P 
HETATM   15  H4  UNL     1      22.179  -1.231  52.301  1.00  0.00     0.113 HD
BRANCH  14  16
HETATM   16  N1  UNL     1      20.427   0.381  53.365  1.00  0.00    -0.249 NA
HETATM   17  C4  UNL     1      19.966   0.770  52.236  1.00  0.00     0.120 C 
BRANCH  17  18
HETATM   18  C5  UNL     1      20.728   0.622  50.974  1.00  0.00     0.319 C 
BRANCH  18  19
HETATM   19  N2  UNL     1      21.105   1.847  50.366  1.00  0.00     0.093 N 
HETATM   20  C6  UNL     1      22.241   1.682  49.496  1.00  0.00     0.273 C 
HETATM   21  C7  UNL     1      23.046   2.944  49.353  1.00  0.00     0.030 C 
HETATM   22  C8  UNL     1      22.088   4.086  49.121  1.00  0.00     0.003 C 
HETATM   23  C9  UNL     1      21.186   4.208  50.331  1.00  0.00     0.030 C 
HETATM   24  C10 UNL     1      21.305   2.966  51.223  1.00  0.00     0.273 C 
ENDBRANCH  18  19
ENDBRANCH  17  18
ENDBRANCH  14  16
ENDBRANCH  13  14
ENDBRANCH   3  13
TORSDOF 5
ENDMDL
MODEL 8
REMARK VINA RESULT:      -6.2      2.276      2.971
REMARK  5 active torsions:
REMARK  status: ('A' for Active; 'I' for Inactive)
REMARK    1  A    between atoms: C3_3  and  O1_4 
REMARK    2  A    between atoms: O1_4  and  P1_5 
REMARK    3  A    between atoms: P1_5  and  N1_6 
REMARK    4  A    between atoms: C4_7  and  C5_8 
REMARK    5  A    between atoms: C5_8  and  N2_9 
ROOT
HETATM    1  C1  UNL     1      26.076   8.584  48.428  1.00  0.00     0.051 C 
HETATM    2  C2  UNL     1      27.224   7.653  48.307  1.00  0.00    -0.029 C 
HETATM    3  C3  UNL     1      27.003   6.379  48.578  1.00  0.00     0.061 C 
HETATM    4  C11 UNL     1      27.868   5.170  48.573  1.00  0.00     0.086 C 
HETATM    5  C12 UNL     1      29.284   5.524  48.139  1.00  0.00     0.148 C 
HETATM    6  N3  UNL     1      29.829   6.522  49.037  1.00  0.00    -0.314 N 
HETATM    7  N4  UNL     1      31.048   7.235  49.051  1.00  0.00    -0.196 NA
HETATM    8  C13 UNL     1      30.991   8.538  49.162  1.00  0.00     0.115 C 
HETATM    9  C14 UNL     1      29.629   9.139  49.265  1.00  0.00     0.084 C 
HETATM   10  P2  UNL     1      28.613   8.693  47.793  1.00  0.00    -0.092 P 
HETATM   11  H22 UNL     1      29.250   6.812  49.863  1.00  0.00     0.182 HD
HETATM   12  H26 UNL     1      29.348   8.145  46.701  1.00  0.00     0.062 HD
ENDROOT
BRANCH   3  13
HETATM   13  O1  UNL     1      25.721   6.023  48.952  1.00  0.00    -0.307 OA
BRANCH  13  14
HETATM   14  P1  UNL     1      25.466   4.405  49.582  1.00  0.00     0.143 P 
HETATM   15  H4  UNL     1      26.422   3.466  49.021  1.00  0.00     0.113 HD
BRANCH  14  16
HETATM   16  N1  UNL     1      23.847   3.870  49.070  1.00  0.00    -0.249 NA
HETATM   17  C4  UNL     1      22.963   3.565  49.945  1.00  0.00     0.120 C 
BRANCH  17  18
HETATM   18  C5  UNL     1      23.230   3.637  51.401  1.00  0.00     0.319 C 
BRANCH  18  19
HETATM   19  N2  UNL     1      23.057   2.411  52.093  1.00  0.00     0.093 N 
HETATM   20  C6  UNL     1      24.170   2.131  52.964  1.00  0.00     0.273 C 
HETATM   21  C7  UNL     1      24.361   0.658  53.200  1.00  0.00     0.030 C 
HETATM   22  C8  UNL     1      23.011   0.053  53.495  1.00  0.00     0.003 C 
HETATM   23  C9  UNL     1      22.123   0.250  52.285  1.00  0.00     0.030 C 
HETATM   24  C10 UNL     1      22.746   1.261  51.314  1.00  0.00     0.273 C 
ENDBRANCH  18  19
ENDBRANCH  17  18
ENDBRANCH  14  16
ENDBRANCH  13  14
ENDBRANCH   3  13
TORSDOF 5
ENDMDL
MODEL 9
REMARK VINA RESULT:      -6.0      5.056      7.746
REMARK  5 active torsions:
REMARK  status: ('A' for Active; 'I' for Inactive)
REMARK    1  A    between atoms: C3_3  and  O1_4 
REMARK    2  A    between atoms: O1_4  and  P1_5 
REMARK    3  A    between atoms: P1_5  and  N1_6 
REMARK    4  A    between atoms: C4_7  and  C5_8 
REMARK    5  A    between atoms: C5_8  and  N2_9 
ROOT
HETATM    1  C1  UNL     1      24.747   2.789  51.510  1.00  0.00     0.051 C 
HETATM    2  C2  UNL     1      25.007   1.561  52.298  1.00  0.00    -0.029 C 
HETATM    3  C3  UNL     1      23.982   1.015  52.929  1.00  0.00     0.061 C 
HETATM    4  C11 UNL     1      23.838  -0.184  53.795  1.00  0.00     0.086 C 
HETATM    5  C12 UNL     1      25.170  -0.908  53.937  1.00  0.00     0.148 C 
HETATM    6  N3  UNL     1      26.154  -0.004  54.497  1.00  0.00    -0.314 N 
HETATM    7  N4  UNL     1      27.534  -0.137  54.765  1.00  0.00    -0.196 NA
HETATM    8  C13 UNL     1      28.336   0.790  54.306  1.00  0.00     0.115 C 
HETATM    9  C14 UNL     1      27.700   1.902  53.540  1.00  0.00     0.084 C 
HETATM   10  P2  UNL     1      26.776   1.241  52.089  1.00  0.00    -0.092 P 
HETATM   11  H22 UNL     1      25.837   0.954  54.784  1.00  0.00     0.182 HD
HETATM   12  H26 UNL     1      27.064  -0.117  51.762  1.00  0.00     0.062 HD
ENDROOT
BRANCH   3  13
HETATM   13  O1  UNL     1      22.754   1.637  52.799  1.00  0.00    -0.307 OA
BRANCH  13  14
HETATM   14  P1  UNL     1      21.409   0.685  52.197  1.00  0.00     0.143 P 
HETATM   15  H4  UNL     1      21.445  -0.669  52.723  1.00  0.00     0.113 HD
BRANCH  14  16
HETATM   16  N1  UNL     1      21.577   0.564  50.429  1.00  0.00    -0.249 NA
HETATM   17  C4  UNL     1      21.222   1.540  49.679  1.00  0.00     0.120 C 
BRANCH  17  18
HETATM   18  C5  UNL     1      20.664   2.798  50.227  1.00  0.00     0.319 C 
BRANCH  18  19
HETATM   19  N2  UNL     1      21.569   3.891  50.234  1.00  0.00     0.093 N 
HETATM   20  C6  UNL     1      21.346   4.760  51.360  1.00  0.00     0.273 C 
HETATM   21  C7  UNL     1      21.780   6.174  51.091  1.00  0.00     0.030 C 
HETATM   22  C8  UNL     1      23.140   6.131  50.441  1.00  0.00     0.003 C 
HETATM   23  C9  UNL     1      23.018   5.392  49.125  1.00  0.00     0.030 C 
HETATM   24  C10 UNL     1      21.674   4.657  49.039  1.00  0.00     0.273 C 
ENDBRANCH  18  19
ENDBRANCH  17  18
ENDBRANCH  14  16
ENDBRANCH  13  14
ENDBRANCH   3  13
TORSDOF 5
ENDMDL
