MODEL 1
REMARK VINA RESULT:      -8.1      0.000      0.000
REMARK  5 active torsions:
REMARK  status: ('A' for Active; 'I' for Inactive)
REMARK    1  A    between atoms: C6_9  and  O1_10 
REMARK    2  A    between atoms: O1_10  and  C7_11 
REMARK       I    between atoms: C7_11  and  N4_13 
REMARK    3  A    between atoms: N4_13  and  C8_14 
REMARK    4  A    between atoms: C9_15  and  N5_16 
REMARK    5  A    between atoms: C12_19  and  C13_20 
ROOT
HETATM    1  C7  UNL     1      24.194   1.770  53.071  1.00  0.00     0.367 C 
HETATM    2  O2  UNL     1      24.157   2.992  53.372  1.00  0.00    -0.238 OA
HETATM    3  N4  UNL     1      25.309   0.886  53.274  1.00  0.00    -0.326 N 
HETATM    4  H7  UNL     1      25.128  -0.074  52.956  1.00  0.00     0.165 HD
ENDROOT
BRANCH   3   5
HETATM    5  C8  UNL     1      26.558   1.247  53.850  1.00  0.00     0.148 C 
HETATM    6  C9  UNL     1      27.462   2.030  52.967  1.00  0.00     0.022 C 
HETATM    7  C10 UNL     1      28.717   1.837  53.409  1.00  0.00     0.001 C 
HETATM    8  C11 UNL     1      28.687   0.917  54.600  1.00  0.00     0.045 C 
HETATM    9  C12 UNL     1      27.462   0.081  54.194  1.00  0.00     0.125 C 
BRANCH   6  10
HETATM   10  N5  UNL     1      26.968   2.803  51.888  1.00  0.00    -0.401 N 
HETATM   11  H9  UNL     1      26.860   2.374  50.941  1.00  0.00     0.156 HD
HETATM   12  H10 UNL     1      26.651   3.809  51.805  1.00  0.00     0.156 HD
ENDBRANCH   6  10
BRANCH   9  13
HETATM   13  C13 UNL     1      27.872  -0.732  53.005  1.00  0.00     0.394 C 
HETATM   14  F1  UNL     1      27.436  -2.048  53.220  1.00  0.00    -0.171 F 
HETATM   15  F2  UNL     1      29.245  -0.834  52.905  1.00  0.00    -0.171 F 
HETATM   16  F3  UNL     1      27.328  -0.324  51.813  1.00  0.00    -0.171 F 
ENDBRANCH   9  13
ENDBRANCH   3   5
BRANCH   1  17
HETATM   17  O1  UNL     1      22.995   1.352  52.499  1.00  0.00    -0.240 OA
BRANCH  17  18
HETATM   18  C6  UNL     1      22.288   0.362  53.209  1.00  0.00     0.205 A 
HETATM   19  N3  UNL     1      22.879  -0.390  54.161  1.00  0.00    -0.215 NA
HETATM   20  C5  UNL     1      22.230  -1.342  54.855  1.00  0.00     0.236 A 
HETATM   21  N2  UNL     1      20.922  -1.589  54.620  1.00  0.00    -0.240 NA
HETATM   22  C4  UNL     1      20.281  -0.861  53.674  1.00  0.00     0.090 A 
HETATM   23  C3  UNL     1      18.974  -0.897  53.230  1.00  0.00     0.051 A 
HETATM   24  C14 UNL     1      20.954   0.118  52.961  1.00  0.00     0.117 A 
HETATM   25  C2  UNL     1      18.881   0.081  52.238  1.00  0.00     0.093 A 
HETATM   26  N1  UNL     1      20.093   0.682  52.094  1.00  0.00    -0.356 N 
HETATM   27  C1  UNL     1      20.378   1.748  51.155  1.00  0.00     0.156 C 
ENDBRANCH  17  18
ENDBRANCH   1  17
TORSDOF 5
ENDMDL
MODEL 2
REMARK VINA RESULT:      -7.7      2.827      6.895
REMARK  5 active torsions:
REMARK  status: ('A' for Active; 'I' for Inactive)
REMARK    1  A    between atoms: C6_9  and  O1_10 
REMARK    2  A    between atoms: O1_10  and  C7_11 
REMARK       I    between atoms: C7_11  and  N4_13 
REMARK    3  A    between atoms: N4_13  and  C8_14 
REMARK    4  A    between atoms: C9_15  and  N5_16 
REMARK    5  A    between atoms: C12_19  and  C13_20 
ROOT
HETATM    1  C7  UNL     1      25.020   1.794  52.880  1.00  0.00     0.367 C 
HETATM    2  O2  UNL     1      25.093   2.766  53.678  1.00  0.00    -0.238 OA
HETATM    3  N4  UNL     1      23.840   1.023  52.599  1.00  0.00    -0.326 N 
HETATM    4  H7  UNL     1      24.001   0.271  51.916  1.00  0.00     0.165 HD
ENDROOT
BRANCH   3   5
HETATM    5  C8  UNL     1      22.558   1.230  53.176  1.00  0.00     0.148 C 
HETATM    6  C9  UNL     1      22.007   0.076  53.933  1.00  0.00     0.022 C 
HETATM    7  C10 UNL     1      20.669   0.210  53.947  1.00  0.00     0.001 C 
HETATM    8  C11 UNL     1      20.287   1.459  53.198  1.00  0.00     0.045 C 
HETATM    9  C12 UNL     1      21.439   1.457  52.179  1.00  0.00     0.125 C 
BRANCH   6  10
HETATM   10  N5  UNL     1      22.845  -0.920  54.491  1.00  0.00    -0.401 N 
HETATM   11  H9  UNL     1      23.248  -0.792  55.445  1.00  0.00     0.156 HD
HETATM   12  H10 UNL     1      23.192  -1.854  54.136  1.00  0.00     0.156 HD
ENDBRANCH   6  10
BRANCH   9  13
HETATM   13  C13 UNL     1      21.204   0.293  51.267  1.00  0.00     0.394 C 
HETATM   14  F1  UNL     1      21.551   0.694  49.969  1.00  0.00    -0.171 F 
HETATM   15  F2  UNL     1      19.863  -0.028  51.183  1.00  0.00    -0.171 F 
HETATM   16  F3  UNL     1      21.952  -0.822  51.552  1.00  0.00    -0.171 F 
ENDBRANCH   9  13
ENDBRANCH   3   5
BRANCH   1  17
HETATM   17  O1  UNL     1      26.250   1.537  52.280  1.00  0.00    -0.240 OA
BRANCH  17  18
HETATM   18  C6  UNL     1      26.794   0.260  52.515  1.00  0.00     0.205 A 
HETATM   19  N3  UNL     1      26.134  -0.867  52.179  1.00  0.00    -0.215 NA
HETATM   20  C5  UNL     1      26.627  -2.101  52.391  1.00  0.00     0.236 A 
HETATM   21  N2  UNL     1      27.839  -2.263  52.966  1.00  0.00    -0.240 NA
HETATM   22  C4  UNL     1      28.544  -1.162  53.323  1.00  0.00     0.090 A 
HETATM   23  C3  UNL     1      29.783  -1.030  53.917  1.00  0.00     0.051 A 
HETATM   24  C14 UNL     1      28.032   0.105  53.103  1.00  0.00     0.117 A 
HETATM   25  C2  UNL     1      30.000   0.344  54.047  1.00  0.00     0.093 A 
HETATM   26  N1  UNL     1      28.924   1.010  53.546  1.00  0.00    -0.356 N 
HETATM   27  C1  UNL     1      28.792   2.452  53.509  1.00  0.00     0.156 C 
ENDBRANCH  17  18
ENDBRANCH   1  17
TORSDOF 5
ENDMDL
MODEL 3
REMARK VINA RESULT:      -7.6      4.305      6.701
REMARK  5 active torsions:
REMARK  status: ('A' for Active; 'I' for Inactive)
REMARK    1  A    between atoms: C6_9  and  O1_10 
REMARK    2  A    between atoms: O1_10  and  C7_11 
REMARK       I    between atoms: C7_11  and  N4_13 
REMARK    3  A    between atoms: N4_13  and  C8_14 
REMARK    4  A    between atoms: C9_15  and  N5_16 
REMARK    5  A    between atoms: C12_19  and  C13_20 
ROOT
HETATM    1  C7  UNL     1      26.589   3.589  50.341  1.00  0.00     0.367 C 
HETATM    2  O2  UNL     1      27.109   3.475  49.199  1.00  0.00    -0.238 OA
HETATM    3  N4  UNL     1      25.650   4.601  50.740  1.00  0.00    -0.326 N 
HETATM    4  H7  UNL     1      25.351   4.512  51.720  1.00  0.00     0.165 HD
ENDROOT
BRANCH   3   5
HETATM    5  C8  UNL     1      25.151   5.642  49.910  1.00  0.00     0.148 C 
HETATM    6  C9  UNL     1      24.301   6.649  50.596  1.00  0.00     0.022 C 
HETATM    7  C10 UNL     1      23.514   7.210  49.661  1.00  0.00     0.001 C 
HETATM    8  C11 UNL     1      23.815   6.592  48.323  1.00  0.00     0.045 C 
HETATM    9  C12 UNL     1      24.203   5.188  48.818  1.00  0.00     0.125 C 
BRANCH   6  10
HETATM   10  N5  UNL     1      24.398   6.885  51.990  1.00  0.00    -0.401 N 
HETATM   11  H9  UNL     1      25.119   7.542  52.362  1.00  0.00     0.156 HD
HETATM   12  H10 UNL     1      23.860   6.516  52.824  1.00  0.00     0.156 HD
ENDBRANCH   6  10
BRANCH   9  13
HETATM   13  C13 UNL     1      22.950   4.555  49.338  1.00  0.00     0.394 C 
HETATM   14  F1  UNL     1      22.874   3.262  48.800  1.00  0.00    -0.171 F 
HETATM   15  F2  UNL     1      21.821   5.193  48.865  1.00  0.00    -0.171 F 
HETATM   16  F3  UNL     1      22.895   4.420  50.703  1.00  0.00    -0.171 F 
ENDBRANCH   9  13
ENDBRANCH   3   5
BRANCH   1  17
HETATM   17  O1  UNL     1      27.039   2.594  51.205  1.00  0.00    -0.240 OA
BRANCH  17  18
HETATM   18  C6  UNL     1      26.039   1.859  51.869  1.00  0.00     0.205 A 
HETATM   19  N3  UNL     1      24.768   1.819  51.420  1.00  0.00    -0.215 NA
HETATM   20  C5  UNL     1      23.791   1.127  52.033  1.00  0.00     0.236 A 
HETATM   21  N2  UNL     1      24.053   0.422  53.156  1.00  0.00    -0.240 NA
HETATM   22  C4  UNL     1      25.315   0.429  53.650  1.00  0.00     0.090 A 
HETATM   23  C3  UNL     1      25.860  -0.186  54.760  1.00  0.00     0.051 A 
HETATM   24  C14 UNL     1      26.317   1.144  53.016  1.00  0.00     0.117 A 
HETATM   25  C2  UNL     1      27.208   0.177  54.774  1.00  0.00     0.093 A 
HETATM   26  N1  UNL     1      27.460   0.983  53.707  1.00  0.00    -0.356 N 
HETATM   27  C1  UNL     1      28.754   1.556  53.394  1.00  0.00     0.156 C 
ENDBRANCH  17  18
ENDBRANCH   1  17
TORSDOF 5
ENDMDL
MODEL 4
REMARK VINA RESULT:      -7.5      1.546      2.393
REMARK  5 active torsions:
REMARK  status: ('A' for Active; 'I' for Inactive)
REMARK    1  A    between atoms: C6_9  and  O1_10 
REMARK    2  A    between atoms: O1_10  and  C7_11 
REMARK       I    between atoms: C7_11  and  N4_13 
REMARK    3  A    between atoms: N4_13  and  C8_14 
REMARK    4  A    between atoms: C9_15  and  N5_16 
REMARK    5  A    between atoms: C12_19  and  C13_20 
ROOT
HETATM    1  C7  UNL     1      25.063  -0.405  54.210  1.00  0.00     0.367 C 
HETATM    2  O2  UNL     1      25.217  -0.892  55.362  1.00  0.00    -0.238 OA
HETATM    3  N4  UNL     1      25.897   0.594  53.601  1.00  0.00    -0.326 N 
HETATM    4  H7  UNL     1      25.593   0.853  52.654  1.00  0.00     0.165 HD
ENDROOT
BRANCH   3   5
HETATM    5  C8  UNL     1      27.036   1.199  54.199  1.00  0.00     0.148 C 
HETATM    6  C9  UNL     1      27.784   2.144  53.329  1.00  0.00     0.022 C 
HETATM    7  C10 UNL     1      29.043   2.207  53.798  1.00  0.00     0.001 C 
HETATM    8  C11 UNL     1      29.172   1.304  54.995  1.00  0.00     0.045 C 
HETATM    9  C12 UNL     1      28.147   0.238  54.571  1.00  0.00     0.125 C 
BRANCH   6  10
HETATM   10  N5  UNL     1      27.169   2.798  52.233  1.00  0.00    -0.401 N 
HETATM   11  H9  UNL     1      27.004   2.284  51.340  1.00  0.00     0.156 HD
HETATM   12  H10 UNL     1      26.801   3.781  52.093  1.00  0.00     0.156 HD
ENDBRANCH   6  10
BRANCH   9  13
HETATM   13  C13 UNL     1      28.736  -0.480  53.396  1.00  0.00     0.394 C 
HETATM   14  F1  UNL     1      28.816  -1.841  53.728  1.00  0.00    -0.171 F 
HETATM   15  F2  UNL     1      30.045  -0.103  53.171  1.00  0.00    -0.171 F 
HETATM   16  F3  UNL     1      28.001  -0.395  52.240  1.00  0.00    -0.171 F 
ENDBRANCH   9  13
ENDBRANCH   3   5
BRANCH   1  17
HETATM   17  O1  UNL     1      23.958  -0.959  53.569  1.00  0.00    -0.240 OA
BRANCH  17  18
HETATM   18  C6  UNL     1      23.142  -0.056  52.862  1.00  0.00     0.205 A 
HETATM   19  N3  UNL     1      23.662   0.884  52.046  1.00  0.00    -0.215 NA
HETATM   20  C5  UNL     1      22.908   1.760  51.358  1.00  0.00     0.236 A 
HETATM   21  N2  UNL     1      21.561   1.733  51.460  1.00  0.00    -0.240 NA
HETATM   22  C4  UNL     1      20.988   0.808  52.268  1.00  0.00     0.090 A 
HETATM   23  C3  UNL     1      19.663   0.554  52.561  1.00  0.00     0.051 A 
HETATM   24  C14 UNL     1      21.768  -0.092  52.975  1.00  0.00     0.117 A 
HETATM   25  C2  UNL     1      19.668  -0.517  53.457  1.00  0.00     0.093 A 
HETATM   26  N1  UNL     1      20.956  -0.890  53.692  1.00  0.00    -0.356 N 
HETATM   27  C1  UNL     1      21.354  -1.970  54.571  1.00  0.00     0.156 C 
ENDBRANCH  17  18
ENDBRANCH   1  17
TORSDOF 5
ENDMDL
MODEL 5
REMARK VINA RESULT:      -7.5      3.564      5.417
REMARK  5 active torsions:
REMARK  status: ('A' for Active; 'I' for Inactive)
REMARK    1  A    between atoms: C6_9  and  O1_10 
REMARK    2  A    between atoms: O1_10  and  C7_11 
REMARK       I    between atoms: C7_11  and  N4_13 
REMARK    3  A    between atoms: N4_13  and  C8_14 
REMARK    4  A    between atoms: C9_15  and  N5_16 
REMARK    5  A    between atoms: C12_19  and  C13_20 
ROOT
HETATM    1  C7  UNL     1      24.594   2.496  52.308  1.00  0.00     0.367 C 
HETATM    2  O2  UNL     1      23.686   2.069  53.069  1.00  0.00    -0.238 OA
HETATM    3  N4  UNL     1      26.008   2.396  52.547  1.00  0.00    -0.326 N 
HETATM    4  H7  UNL     1      26.576   2.811  51.798  1.00  0.00     0.165 HD
ENDROOT
BRANCH   3   5
HETATM    5  C8  UNL     1      26.615   1.797  53.684  1.00  0.00     0.148 C 
HETATM    6  C9  UNL     1      28.098   1.891  53.737  1.00  0.00     0.022 C 
HETATM    7  C10 UNL     1      28.535   0.885  54.514  1.00  0.00     0.001 C 
HETATM    8  C11 UNL     1      27.355   0.087  55.002  1.00  0.00     0.045 C 
HETATM    9  C12 UNL     1      26.438   0.295  53.785  1.00  0.00     0.125 C 
BRANCH   6  10
HETATM   10  N5  UNL     1      28.807   2.907  53.049  1.00  0.00    -0.401 N 
HETATM   11  H9  UNL     1      28.296   3.579  52.434  1.00  0.00     0.156 HD
HETATM   12  H10 UNL     1      29.831   3.171  53.007  1.00  0.00     0.156 HD
ENDBRANCH   6  10
BRANCH   9  13
HETATM   13  C13 UNL     1      27.055  -0.459  52.649  1.00  0.00     0.394 C 
HETATM   14  F1  UNL     1      26.200  -1.525  52.333  1.00  0.00    -0.171 F 
HETATM   15  F2  UNL     1      28.239  -1.065  53.021  1.00  0.00    -0.171 F 
HETATM   16  F3  UNL     1      27.225   0.269  51.498  1.00  0.00    -0.171 F 
ENDBRANCH   9  13
ENDBRANCH   3   5
BRANCH   1  17
HETATM   17  O1  UNL     1      24.062   3.097  51.170  1.00  0.00    -0.240 OA
BRANCH  17  18
HETATM   18  C6  UNL     1      24.909   4.002  50.501  1.00  0.00     0.205 A 
HETATM   19  N3  UNL     1      25.990   3.586  49.810  1.00  0.00    -0.215 NA
HETATM   20  C5  UNL     1      26.817   4.426  49.161  1.00  0.00     0.236 A 
HETATM   21  N2  UNL     1      26.589   5.758  49.176  1.00  0.00    -0.240 NA
HETATM   22  C4  UNL     1      25.515   6.228  49.856  1.00  0.00     0.090 A 
HETATM   23  C3  UNL     1      25.048   7.514  50.041  1.00  0.00     0.051 A 
HETATM   24  C14 UNL     1      24.668   5.359  50.523  1.00  0.00     0.117 A 
HETATM   25  C2  UNL     1      23.904   7.395  50.831  1.00  0.00     0.093 A 
HETATM   26  N1  UNL     1      23.695   6.079  51.110  1.00  0.00    -0.356 N 
HETATM   27  C1  UNL     1      22.597   5.571  51.908  1.00  0.00     0.156 C 
ENDBRANCH  17  18
ENDBRANCH   1  17
TORSDOF 5
ENDMDL
MODEL 6
REMARK VINA RESULT:      -7.4      4.428      7.141
REMARK  5 active torsions:
REMARK  status: ('A' for Active; 'I' for Inactive)
REMARK    1  A    between atoms: C6_9  and  O1_10 
REMARK    2  A    between atoms: O1_10  and  C7_11 
REMARK       I    between atoms: C7_11  and  N4_13 
REMARK    3  A    between atoms: N4_13  and  C8_14 
REMARK    4  A    between atoms: C9_15  and  N5_16 
REMARK    5  A    between atoms: C12_19  and  C13_20 
ROOT
HETATM    1  C7  UNL     1      24.705   3.640  50.498  1.00  0.00     0.367 C 
HETATM    2  O2  UNL     1      23.825   3.029  49.835  1.00  0.00    -0.238 OA
HETATM    3  N4  UNL     1      25.664   3.036  51.381  1.00  0.00    -0.326 N 
HETATM    4  H7  UNL     1      26.292   3.718  51.826  1.00  0.00     0.165 HD
ENDROOT
BRANCH   3   5
HETATM    5  C8  UNL     1      25.779   1.646  51.653  1.00  0.00     0.148 C 
HETATM    6  C9  UNL     1      24.796   1.105  52.628  1.00  0.00     0.022 C 
HETATM    7  C10 UNL     1      25.332  -0.006  53.163  1.00  0.00     0.001 C 
HETATM    8  C11 UNL     1      26.692  -0.239  52.560  1.00  0.00     0.045 C 
HETATM    9  C12 UNL     1      27.075   1.231  52.321  1.00  0.00     0.125 C 
BRANCH   6  10
HETATM   10  N5  UNL     1      23.550   1.738  52.862  1.00  0.00    -0.401 N 
HETATM   11  H9  UNL     1      23.500   2.776  52.968  1.00  0.00     0.156 HD
HETATM   12  H10 UNL     1      22.562   1.373  52.965  1.00  0.00     0.156 HD
ENDBRANCH   6  10
BRANCH   9  13
HETATM   13  C13 UNL     1      27.277   1.847  53.671  1.00  0.00     0.394 C 
HETATM   14  F1  UNL     1      28.386   2.702  53.585  1.00  0.00    -0.171 F 
HETATM   15  F2  UNL     1      27.639   0.905  54.613  1.00  0.00    -0.171 F 
HETATM   16  F3  UNL     1      26.226   2.605  54.122  1.00  0.00    -0.171 F 
ENDBRANCH   9  13
ENDBRANCH   3   5
BRANCH   1  17
HETATM   17  O1  UNL     1      24.645   5.014  50.275  1.00  0.00    -0.240 OA
BRANCH  17  18
HETATM   18  C6  UNL     1      25.776   5.587  49.663  1.00  0.00     0.205 A 
HETATM   19  N3  UNL     1      26.726   4.831  49.074  1.00  0.00    -0.215 NA
HETATM   20  C5  UNL     1      27.817   5.349  48.482  1.00  0.00     0.236 A 
HETATM   21  N2  UNL     1      28.010   6.686  48.452  1.00  0.00    -0.240 NA
HETATM   22  C4  UNL     1      27.085   7.491  49.030  1.00  0.00     0.090 A 
HETATM   23  C3  UNL     1      27.023   8.865  49.150  1.00  0.00     0.051 A 
HETATM   24  C14 UNL     1      25.964   6.953  49.639  1.00  0.00     0.117 A 
HETATM   25  C2  UNL     1      25.842   9.136  49.843  1.00  0.00     0.093 A 
HETATM   26  N1  UNL     1      25.218   7.960  50.128  1.00  0.00    -0.356 N 
HETATM   27  C1  UNL     1      23.960   7.846  50.840  1.00  0.00     0.156 C 
ENDBRANCH  17  18
ENDBRANCH   1  17
TORSDOF 5
ENDMDL
MODEL 7
REMARK VINA RESULT:      -7.3      2.263      3.716
REMARK  5 active torsions:
REMARK  status: ('A' for Active; 'I' for Inactive)
REMARK    1  A    between atoms: C6_9  and  O1_10 
REMARK    2  A    between atoms: O1_10  and  C7_11 
REMARK       I    between atoms: C7_11  and  N4_13 
REMARK    3  A    between atoms: N4_13  and  C8_14 
REMARK    4  A    between atoms: C9_15  and  N5_16 
REMARK    5  A    between atoms: C12_19  and  C13_20 
ROOT
HETATM    1  C7  UNL     1      24.300   2.449  53.118  1.00  0.00     0.367 C 
HETATM    2  O2  UNL     1      24.486   3.533  53.732  1.00  0.00    -0.238 OA
HETATM    3  N4  UNL     1      25.172   1.307  53.144  1.00  0.00    -0.326 N 
HETATM    4  H7  UNL     1      24.832   0.524  52.570  1.00  0.00     0.165 HD
ENDROOT
BRANCH   3   5
HETATM    5  C8  UNL     1      26.391   1.211  53.868  1.00  0.00     0.148 C 
HETATM    6  C9  UNL     1      27.573   1.821  53.205  1.00  0.00     0.022 C 
HETATM    7  C10 UNL     1      28.667   1.218  53.705  1.00  0.00     0.001 C 
HETATM    8  C11 UNL     1      28.245   0.185  54.715  1.00  0.00     0.045 C 
HETATM    9  C12 UNL     1      26.899  -0.201  54.078  1.00  0.00     0.125 C 
BRANCH   6  10
HETATM   10  N5  UNL     1      27.441   2.848  52.238  1.00  0.00    -0.401 N 
HETATM   11  H9  UNL     1      27.261   3.831  52.539  1.00  0.00     0.156 HD
HETATM   12  H10 UNL     1      27.486   2.854  51.181  1.00  0.00     0.156 HD
ENDBRANCH   6  10
BRANCH   9  13
HETATM   13  C13 UNL     1      27.219  -0.919  52.803  1.00  0.00     0.394 C 
HETATM   14  F1  UNL     1      26.461  -2.099  52.780  1.00  0.00    -0.171 F 
HETATM   15  F2  UNL     1      28.530  -1.349  52.774  1.00  0.00    -0.171 F 
HETATM   16  F3  UNL     1      26.910  -0.227  51.659  1.00  0.00    -0.171 F 
ENDBRANCH   9  13
ENDBRANCH   3   5
BRANCH   1  17
HETATM   17  O1  UNL     1      23.116   2.478  52.385  1.00  0.00    -0.240 OA
BRANCH  17  18
HETATM   18  C6  UNL     1      23.220   2.972  51.070  1.00  0.00     0.205 A 
HETATM   19  N3  UNL     1      23.926   4.085  50.782  1.00  0.00    -0.215 NA
HETATM   20  C5  UNL     1      24.043   4.580  49.537  1.00  0.00     0.236 A 
HETATM   21  N2  UNL     1      23.442   3.964  48.495  1.00  0.00    -0.240 NA
HETATM   22  C4  UNL     1      22.721   2.841  48.731  1.00  0.00     0.090 A 
HETATM   23  C3  UNL     1      22.012   2.020  47.876  1.00  0.00     0.051 A 
HETATM   24  C14 UNL     1      22.602   2.335  50.014  1.00  0.00     0.117 A 
HETATM   25  C2  UNL     1      21.468   1.014  48.677  1.00  0.00     0.093 A 
HETATM   26  N1  UNL     1      21.841   1.227  49.968  1.00  0.00    -0.356 N 
HETATM   27  C1  UNL     1      21.464   0.383  51.084  1.00  0.00     0.156 C 
ENDBRANCH  17  18
ENDBRANCH   1  17
TORSDOF 5
ENDMDL
MODEL 8
REMARK VINA RESULT:      -7.2      3.901      6.956
REMARK  5 active torsions:
REMARK  status: ('A' for Active; 'I' for Inactive)
REMARK    1  A    between atoms: C6_9  and  O1_10 
REMARK    2  A    between atoms: O1_10  and  C7_11 
REMARK       I    between atoms: C7_11  and  N4_13 
REMARK    3  A    between atoms: N4_13  and  C8_14 
REMARK    4  A    between atoms: C9_15  and  N5_16 
REMARK    5  A    between atoms: C12_19  and  C13_20 
ROOT
HETATM    1  C7  UNL     1      24.729   1.323  52.395  1.00  0.00     0.367 C 
HETATM    2  O2  UNL     1      23.801   1.199  53.237  1.00  0.00    -0.238 OA
HETATM    3  N4  UNL     1      24.832   2.357  51.402  1.00  0.00    -0.326 N 
HETATM    4  H7  UNL     1      25.670   2.271  50.813  1.00  0.00     0.165 HD
ENDROOT
BRANCH   3   5
HETATM    5  C8  UNL     1      23.901   3.414  51.208  1.00  0.00     0.148 C 
HETATM    6  C9  UNL     1      22.888   3.181  50.146  1.00  0.00     0.022 C 
HETATM    7  C10 UNL     1      22.461   4.387  49.730  1.00  0.00     0.001 C 
HETATM    8  C11 UNL     1      23.180   5.461  50.502  1.00  0.00     0.045 C 
HETATM    9  C12 UNL     1      24.507   4.715  50.721  1.00  0.00     0.125 C 
BRANCH   6  10
HETATM   10  N5  UNL     1      22.522   1.876  49.735  1.00  0.00    -0.401 N 
HETATM   11  H9  UNL     1      22.706   1.059  50.358  1.00  0.00     0.156 HD
HETATM   12  H10 UNL     1      22.063   1.496  48.861  1.00  0.00     0.156 HD
ENDBRANCH   6  10
BRANCH   9  13
HETATM   13  C13 UNL     1      25.164   4.606  49.380  1.00  0.00     0.394 C 
HETATM   14  F1  UNL     1      26.472   5.094  49.508  1.00  0.00    -0.171 F 
HETATM   15  F2  UNL     1      24.573   5.441  48.452  1.00  0.00    -0.171 F 
HETATM   16  F3  UNL     1      25.263   3.328  48.889  1.00  0.00    -0.171 F 
ENDBRANCH   9  13
ENDBRANCH   3   5
BRANCH   1  17
HETATM   17  O1  UNL     1      25.678   0.313  52.533  1.00  0.00    -0.240 OA
BRANCH  17  18
HETATM   18  C6  UNL     1      26.935   0.714  53.022  1.00  0.00     0.205 A 
HETATM   19  N3  UNL     1      27.196   1.997  53.347  1.00  0.00    -0.215 NA
HETATM   20  C5  UNL     1      28.387   2.410  53.816  1.00  0.00     0.236 A 
HETATM   21  N2  UNL     1      29.398   1.530  53.988  1.00  0.00    -0.240 NA
HETATM   22  C4  UNL     1      29.188   0.228  53.677  1.00  0.00     0.090 A 
HETATM   23  C3  UNL     1      30.023  -0.870  53.748  1.00  0.00     0.051 A 
HETATM   24  C14 UNL     1      27.960  -0.193  53.193  1.00  0.00     0.117 A 
HETATM   25  C2  UNL     1      29.268  -1.954  53.297  1.00  0.00     0.093 A 
HETATM   26  N1  UNL     1      28.022  -1.517  52.967  1.00  0.00    -0.356 N 
HETATM   27  C1  UNL     1      26.960  -2.363  52.459  1.00  0.00     0.156 C 
ENDBRANCH  17  18
ENDBRANCH   1  17
TORSDOF 5
ENDMDL
MODEL 9
REMARK VINA RESULT:      -7.0      4.154      5.414
REMARK  5 active torsions:
REMARK  status: ('A' for Active; 'I' for Inactive)
REMARK    1  A    between atoms: C6_9  and  O1_10 
REMARK    2  A    between atoms: O1_10  and  C7_11 
REMARK       I    between atoms: C7_11  and  N4_13 
REMARK    3  A    between atoms: N4_13  and  C8_14 
REMARK    4  A    between atoms: C9_15  and  N5_16 
REMARK    5  A    between atoms: C12_19  and  C13_20 
ROOT
HETATM    1  C7  UNL     1      22.719   2.362  50.209  1.00  0.00     0.367 C 
HETATM    2  O2  UNL     1      22.505   1.924  49.048  1.00  0.00    -0.238 OA
HETATM    3  N4  UNL     1      23.539   3.493  50.545  1.00  0.00    -0.326 N 
HETATM    4  H7  UNL     1      23.580   3.679  51.555  1.00  0.00     0.165 HD
ENDROOT
BRANCH   3   5
HETATM    5  C8  UNL     1      24.247   4.307  49.619  1.00  0.00     0.148 C 
HETATM    6  C9  UNL     1      25.673   4.558  49.954  1.00  0.00     0.022 C 
HETATM    7  C10 UNL     1      26.032   5.699  49.339  1.00  0.00     0.001 C 
HETATM    8  C11 UNL     1      24.854   6.244  48.576  1.00  0.00     0.045 C 
HETATM    9  C12 UNL     1      23.742   5.731  49.507  1.00  0.00     0.125 C 
BRANCH   6  10
HETATM   10  N5  UNL     1      26.413   3.678  50.781  1.00  0.00    -0.401 N 
HETATM   11  H9  UNL     1      26.441   2.656  50.567  1.00  0.00     0.156 HD
HETATM   12  H10 UNL     1      27.000   3.825  51.649  1.00  0.00     0.156 HD
ENDBRANCH   6  10
BRANCH   9  13
HETATM   13  C13 UNL     1      23.856   6.510  50.781  1.00  0.00     0.394 C 
HETATM   14  F1  UNL     1      22.612   7.110  51.024  1.00  0.00    -0.171 F 
HETATM   15  F2  UNL     1      24.732   7.569  50.656  1.00  0.00    -0.171 F 
HETATM   16  F3  UNL     1      24.158   5.759  51.890  1.00  0.00    -0.171 F 
ENDBRANCH   9  13
ENDBRANCH   3   5
BRANCH   1  17
HETATM   17  O1  UNL     1      22.051   1.603  51.168  1.00  0.00    -0.240 OA
BRANCH  17  18
HETATM   18  C6  UNL     1      22.868   0.918  52.087  1.00  0.00     0.205 A 
HETATM   19  N3  UNL     1      24.210   1.060  52.090  1.00  0.00    -0.215 NA
HETATM   20  C5  UNL     1      25.016   0.419  52.955  1.00  0.00     0.236 A 
HETATM   21  N2  UNL     1      24.498  -0.417  53.883  1.00  0.00    -0.240 NA
HETATM   22  C4  UNL     1      23.155  -0.594  53.923  1.00  0.00     0.090 A 
HETATM   23  C3  UNL     1      22.366  -1.373  54.745  1.00  0.00     0.051 A 
HETATM   24  C14 UNL     1      22.330   0.067  53.029  1.00  0.00     0.117 A 
HETATM   25  C2  UNL     1      21.051  -1.161  54.325  1.00  0.00     0.093 A 
HETATM   26  N1  UNL     1      21.056  -0.285  53.284  1.00  0.00    -0.356 N 
HETATM   27  C1  UNL     1      19.871   0.174  52.587  1.00  0.00     0.156 C 
ENDBRANCH  17  18
ENDBRANCH   1  17
TORSDOF 5
ENDMDL
