MODEL 1
REMARK VINA RESULT:      -8.3      0.000      0.000
REMARK  8 active torsions:
REMARK  status: ('A' for Active; 'I' for Inactive)
REMARK    1  A    between atoms: O1_1  and  C1_2 
REMARK    2  A    between atoms: C1_2  and  C2_3 
REMARK    3  A    between atoms: C2_3  and  C3_4 
REMARK    4  A    between atoms: C3_4  and  C4_5 
REMARK    5  A    between atoms: C4_5  and  C5_6 
REMARK    6  A    between atoms: C8_9  and  N1_10 
REMARK    7  A    between atoms: N1_10  and  C9_11 
REMARK    8  A    between atoms: C18_24  and  O2_25 
ROOT
HETATM    1  C5  UNL     1      23.787  -0.589  54.025  1.00  0.00     0.005 A 
HETATM    2  C6  UNL     1      23.340   0.051  52.884  1.00  0.00     0.032 A 
HETATM    3  C7  UNL     1      22.026   0.160  52.496  1.00  0.00     0.040 A 
HETATM    4  C8  UNL     1      21.586   0.796  51.363  1.00  0.00     0.142 A 
HETATM    5  N2  UNL     1      20.271   0.818  51.119  1.00  0.00    -0.224 NA
HETATM    6  C15 UNL     1      19.400   0.239  51.951  1.00  0.00     0.236 A 
HETATM    7  N3  UNL     1      19.820  -0.386  53.066  1.00  0.00    -0.241 NA
HETATM    8  C16 UNL     1      21.145  -0.440  53.363  1.00  0.00     0.074 A 
HETATM    9  C17 UNL     1      21.517  -1.090  54.509  1.00  0.00     0.070 A 
HETATM   10  C18 UNL     1      22.848  -1.175  54.859  1.00  0.00     0.078 A 
ENDROOT
BRANCH   4  11
HETATM   11  N1  UNL     1      22.519   1.400  50.516  1.00  0.00    -0.340 N 
HETATM   12  H7  UNL     1      22.866   0.941  49.679  1.00  0.00     0.167 HD
BRANCH  11  13
HETATM   13  C9  UNL     1      23.159   2.668  50.584  1.00  0.00     0.035 A 
HETATM   14  C10 UNL     1      22.675   3.810  51.235  1.00  0.00     0.032 A 
HETATM   15  C11 UNL     1      23.337   4.997  51.272  1.00  0.00     0.046 A 
HETATM   16  C12 UNL     1      24.544   5.152  50.662  1.00  0.00     0.138 A 
HETATM   17  F1  UNL     1      25.110   6.371  50.763  1.00  0.00    -0.204 F 
HETATM   18  C13 UNL     1      25.079   4.069  50.001  1.00  0.00     0.074 A 
HETATM   19 CL1  UNL     1      26.629   4.321  49.236  1.00  0.00    -0.081 Cl
HETATM   20  C14 UNL     1      24.381   2.885  49.985  1.00  0.00     0.056 A 
ENDBRANCH  11  13
ENDBRANCH   4  11
BRANCH   1  21
HETATM   21  C4  UNL     1      25.197  -0.659  54.358  1.00  0.00     0.065 C 
BRANCH  21  22
HETATM   22  C3  UNL     1      26.002  -0.994  53.389  1.00  0.00    -0.146 C 
BRANCH  22  23
HETATM   23  C2  UNL     1      26.853  -1.583  52.560  1.00  0.00     0.097 C 
BRANCH  23  24
HETATM   24  C1  UNL     1      28.202  -1.910  53.001  1.00  0.00     0.181 C 
BRANCH  24  25
HETATM   25  O1  UNL     1      28.348  -3.312  52.887  1.00  0.00    -0.400 OA
HETATM   26  H1  UNL     1      27.950  -3.650  52.044  1.00  0.00     0.209 HD
ENDBRANCH  24  25
ENDBRANCH  23  24
ENDBRANCH  22  23
ENDBRANCH  21  22
ENDBRANCH   1  21
BRANCH  10  27
HETATM   27  O2  UNL     1      23.235  -1.830  56.015  1.00  0.00    -0.360 OA
HETATM   28  H13 UNL     1      22.618  -2.545  56.422  1.00  0.00     0.217 HD
ENDBRANCH  10  27
TORSDOF 8
ENDMDL
MODEL 2
REMARK VINA RESULT:      -8.2      3.233      5.214
REMARK  8 active torsions:
REMARK  status: ('A' for Active; 'I' for Inactive)
REMARK    1  A    between atoms: O1_1  and  C1_2 
REMARK    2  A    between atoms: C1_2  and  C2_3 
REMARK    3  A    between atoms: C2_3  and  C3_4 
REMARK    4  A    between atoms: C3_4  and  C4_5 
REMARK    5  A    between atoms: C4_5  and  C5_6 
REMARK    6  A    between atoms: C8_9  and  N1_10 
REMARK    7  A    between atoms: N1_10  and  C9_11 
REMARK    8  A    between atoms: C18_24  and  O2_25 
ROOT
HETATM    1  C5  UNL     1      21.868   0.716  53.080  1.00  0.00     0.005 A 
HETATM    2  C6  UNL     1      23.099   1.324  52.920  1.00  0.00     0.032 A 
HETATM    3  C7  UNL     1      23.542   1.935  51.772  1.00  0.00     0.040 A 
HETATM    4  C8  UNL     1      24.764   2.538  51.618  1.00  0.00     0.142 A 
HETATM    5  N2  UNL     1      25.053   3.092  50.434  1.00  0.00    -0.224 NA
HETATM    6  C15 UNL     1      24.179   3.065  49.423  1.00  0.00     0.236 A 
HETATM    7  N3  UNL     1      22.977   2.478  49.564  1.00  0.00    -0.241 NA
HETATM    8  C16 UNL     1      22.631   1.899  50.743  1.00  0.00     0.074 A 
HETATM    9  C17 UNL     1      21.396   1.315  50.831  1.00  0.00     0.070 A 
HETATM   10  C18 UNL     1      20.993   0.712  52.004  1.00  0.00     0.078 A 
ENDROOT
BRANCH   4  11
HETATM   11  N1  UNL     1      25.654   2.559  52.695  1.00  0.00    -0.340 N 
HETATM   12  H7  UNL     1      25.578   3.239  53.445  1.00  0.00     0.167 HD
BRANCH  11  13
HETATM   13  C9  UNL     1      26.772   1.735  52.998  1.00  0.00     0.035 A 
HETATM   14  C10 UNL     1      27.993   2.157  53.539  1.00  0.00     0.032 A 
HETATM   15  C11 UNL     1      29.027   1.319  53.816  1.00  0.00     0.046 A 
HETATM   16  C12 UNL     1      28.936  -0.018  53.578  1.00  0.00     0.138 A 
HETATM   17  F1  UNL     1      30.023  -0.754  53.890  1.00  0.00    -0.204 F 
HETATM   18  C13 UNL     1      27.763  -0.502  53.046  1.00  0.00     0.074 A 
HETATM   19 CL1  UNL     1      27.699  -2.225  52.760  1.00  0.00    -0.081 Cl
HETATM   20  C14 UNL     1      26.738   0.375  52.779  1.00  0.00     0.056 A 
ENDBRANCH  11  13
ENDBRANCH   4  11
BRANCH   1  21
HETATM   21  C4  UNL     1      21.481   0.091  54.330  1.00  0.00     0.065 C 
BRANCH  21  22
HETATM   22  C3  UNL     1      22.277  -0.840  54.779  1.00  0.00    -0.146 C 
BRANCH  22  23
HETATM   23  C2  UNL     1      23.228  -1.559  55.361  1.00  0.00     0.097 C 
BRANCH  23  24
HETATM   24  C1  UNL     1      24.605  -1.085  55.372  1.00  0.00     0.181 C 
BRANCH  24  25
HETATM   25  O1  UNL     1      25.116  -1.326  56.669  1.00  0.00    -0.400 OA
HETATM   26  H1  UNL     1      26.023  -1.726  56.632  1.00  0.00     0.209 HD
ENDBRANCH  24  25
ENDBRANCH  23  24
ENDBRANCH  22  23
ENDBRANCH  21  22
ENDBRANCH   1  21
BRANCH  10  27
HETATM   27  O2  UNL     1      19.747   0.119  52.103  1.00  0.00    -0.360 OA
HETATM   28  H13 UNL     1      19.538  -0.714  51.538  1.00  0.00     0.217 HD
ENDBRANCH  10  27
TORSDOF 8
ENDMDL
MODEL 3
REMARK VINA RESULT:      -8.2      2.989      5.219
REMARK  8 active torsions:
REMARK  status: ('A' for Active; 'I' for Inactive)
REMARK    1  A    between atoms: O1_1  and  C1_2 
REMARK    2  A    between atoms: C1_2  and  C2_3 
REMARK    3  A    between atoms: C2_3  and  C3_4 
REMARK    4  A    between atoms: C3_4  and  C4_5 
REMARK    5  A    between atoms: C4_5  and  C5_6 
REMARK    6  A    between atoms: C8_9  and  N1_10 
REMARK    7  A    between atoms: N1_10  and  C9_11 
REMARK    8  A    between atoms: C18_24  and  O2_25 
ROOT
HETATM    1  C5  UNL     1      24.593  -0.338  53.734  1.00  0.00     0.005 A 
HETATM    2  C6  UNL     1      25.217   0.525  52.853  1.00  0.00     0.032 A 
HETATM    3  C7  UNL     1      26.433   1.132  53.061  1.00  0.00     0.040 A 
HETATM    4  C8  UNL     1      27.049   1.988  52.184  1.00  0.00     0.142 A 
HETATM    5  N2  UNL     1      28.236   2.501  52.528  1.00  0.00    -0.224 NA
HETATM    6  C15 UNL     1      28.815   2.193  53.693  1.00  0.00     0.236 A 
HETATM    7  N3  UNL     1      28.220   1.353  54.560  1.00  0.00    -0.241 NA
HETATM    8  C16 UNL     1      27.014   0.804  54.262  1.00  0.00     0.074 A 
HETATM    9  C17 UNL     1      26.453  -0.043  55.180  1.00  0.00     0.070 A 
HETATM   10  C18 UNL     1      25.231  -0.629  54.930  1.00  0.00     0.078 A 
ENDROOT
BRANCH   4  11
HETATM   11  N1  UNL     1      26.425   2.285  50.970  1.00  0.00    -0.340 N 
HETATM   12  H7  UNL     1      26.019   1.565  50.380  1.00  0.00     0.167 HD
BRANCH  11  13
HETATM   13  C9  UNL     1      26.214   3.525  50.307  1.00  0.00     0.035 A 
HETATM   14  C10 UNL     1      27.013   4.074  49.296  1.00  0.00     0.032 A 
HETATM   15  C11 UNL     1      26.756   5.265  48.693  1.00  0.00     0.046 A 
HETATM   16  C12 UNL     1      25.677   6.017  49.043  1.00  0.00     0.138 A 
HETATM   17  F1  UNL     1      25.520   7.180  48.380  1.00  0.00    -0.204 F 
HETATM   18  C13 UNL     1      24.848   5.537  50.032  1.00  0.00     0.074 A 
HETATM   19 CL1  UNL     1      23.478   6.541  50.445  1.00  0.00    -0.081 Cl
HETATM   20  C14 UNL     1      25.139   4.329  50.620  1.00  0.00     0.056 A 
ENDBRANCH  11  13
ENDBRANCH   4  11
BRANCH   1  21
HETATM   21  C4  UNL     1      23.305  -0.933  53.436  1.00  0.00     0.065 C 
BRANCH  21  22
HETATM   22  C3  UNL     1      22.258  -0.289  53.872  1.00  0.00    -0.146 C 
BRANCH  22  23
HETATM   23  C2  UNL     1      21.094   0.323  54.041  1.00  0.00     0.097 C 
BRANCH  23  24
HETATM   24  C1  UNL     1      19.891  -0.196  53.404  1.00  0.00     0.181 C 
BRANCH  24  25
HETATM   25  O1  UNL     1      19.539  -1.384  54.087  1.00  0.00    -0.400 OA
HETATM   26  H1  UNL     1      19.328  -1.205  55.039  1.00  0.00     0.209 HD
ENDBRANCH  24  25
ENDBRANCH  23  24
ENDBRANCH  22  23
ENDBRANCH  21  22
ENDBRANCH   1  21
BRANCH  10  27
HETATM   27  O2  UNL     1      24.655  -1.487  55.852  1.00  0.00    -0.360 OA
HETATM   28  H13 UNL     1      25.257  -2.097  56.419  1.00  0.00     0.217 HD
ENDBRANCH  10  27
TORSDOF 8
ENDMDL
MODEL 4
REMARK VINA RESULT:      -8.0      2.756      4.891
REMARK  8 active torsions:
REMARK  status: ('A' for Active; 'I' for Inactive)
REMARK    1  A    between atoms: O1_1  and  C1_2 
REMARK    2  A    between atoms: C1_2  and  C2_3 
REMARK    3  A    between atoms: C2_3  and  C3_4 
REMARK    4  A    between atoms: C3_4  and  C4_5 
REMARK    5  A    between atoms: C4_5  and  C5_6 
REMARK    6  A    between atoms: C8_9  and  N1_10 
REMARK    7  A    between atoms: N1_10  and  C9_11 
REMARK    8  A    between atoms: C18_24  and  O2_25 
ROOT
HETATM    1  C5  UNL     1      23.397  -0.681  53.746  1.00  0.00     0.005 A 
HETATM    2  C6  UNL     1      24.363  -0.025  53.005  1.00  0.00     0.032 A 
HETATM    3  C7  UNL     1      25.662   0.188  53.400  1.00  0.00     0.040 A 
HETATM    4  C8  UNL     1      26.616   0.838  52.661  1.00  0.00     0.142 A 
HETATM    5  N2  UNL     1      27.842   0.969  53.183  1.00  0.00    -0.224 NA
HETATM    6  C15 UNL     1      28.138   0.480  54.392  1.00  0.00     0.236 A 
HETATM    7  N3  UNL     1      27.209  -0.161  55.124  1.00  0.00    -0.241 NA
HETATM    8  C16 UNL     1      25.949  -0.321  54.644  1.00  0.00     0.074 A 
HETATM    9  C17 UNL     1      25.043  -0.980  55.431  1.00  0.00     0.070 A 
HETATM   10  C18 UNL     1      23.750  -1.171  54.994  1.00  0.00     0.078 A 
ENDROOT
BRANCH   4  11
HETATM   11  N1  UNL     1      26.281   1.331  51.398  1.00  0.00    -0.340 N 
HETATM   12  H7  UNL     1      26.325   0.754  50.563  1.00  0.00     0.167 HD
BRANCH  11  13
HETATM   13  C9  UNL     1      25.842   2.618  50.983  1.00  0.00     0.035 A 
HETATM   14  C10 UNL     1      24.674   3.271  51.399  1.00  0.00     0.032 A 
HETATM   15  C11 UNL     1      24.309   4.509  50.972  1.00  0.00     0.046 A 
HETATM   16  C12 UNL     1      25.076   5.209  50.092  1.00  0.00     0.138 A 
HETATM   17  F1  UNL     1      24.617   6.426  49.737  1.00  0.00    -0.204 F 
HETATM   18  C13 UNL     1      26.239   4.625  49.641  1.00  0.00     0.074 A 
HETATM   19 CL1  UNL     1      27.186   5.565  48.513  1.00  0.00    -0.081 Cl
HETATM   20  C14 UNL     1      26.576   3.372  50.094  1.00  0.00     0.056 A 
ENDBRANCH  11  13
ENDBRANCH   4  11
BRANCH   1  21
HETATM   21  C4  UNL     1      22.046  -0.860  53.252  1.00  0.00     0.065 C 
BRANCH  21  22
HETATM   22  C3  UNL     1      21.347   0.228  53.078  1.00  0.00    -0.146 C 
BRANCH  22  23
HETATM   23  C2  UNL     1      20.574   1.300  53.189  1.00  0.00     0.097 C 
BRANCH  23  24
HETATM   24  C1  UNL     1      20.878   2.506  52.432  1.00  0.00     0.181 C 
BRANCH  24  25
HETATM   25  O1  UNL     1      19.722   3.321  52.468  1.00  0.00    -0.400 OA
HETATM   26  H1  UNL     1      19.274   3.274  53.352  1.00  0.00     0.209 HD
ENDBRANCH  24  25
ENDBRANCH  23  24
ENDBRANCH  22  23
ENDBRANCH  21  22
ENDBRANCH   1  21
BRANCH  10  27
HETATM   27  O2  UNL     1      22.826  -1.836  55.783  1.00  0.00    -0.360 OA
HETATM   28  H13 UNL     1      22.007  -1.327  56.138  1.00  0.00     0.217 HD
ENDBRANCH  10  27
TORSDOF 8
ENDMDL
MODEL 5
REMARK VINA RESULT:      -7.9      2.789      3.686
REMARK  8 active torsions:
REMARK  status: ('A' for Active; 'I' for Inactive)
REMARK    1  A    between atoms: O1_1  and  C1_2 
REMARK    2  A    between atoms: C1_2  and  C2_3 
REMARK    3  A    between atoms: C2_3  and  C3_4 
REMARK    4  A    between atoms: C3_4  and  C4_5 
REMARK    5  A    between atoms: C4_5  and  C5_6 
REMARK    6  A    between atoms: C8_9  and  N1_10 
REMARK    7  A    between atoms: N1_10  and  C9_11 
REMARK    8  A    between atoms: C18_24  and  O2_25 
ROOT
HETATM    1  C5  UNL     1      26.283   0.017  52.800  1.00  0.00     0.005 A 
HETATM    2  C6  UNL     1      26.067   1.013  51.866  1.00  0.00     0.032 A 
HETATM    3  C7  UNL     1      24.907   1.739  51.729  1.00  0.00     0.040 A 
HETATM    4  C8  UNL     1      24.698   2.726  50.801  1.00  0.00     0.142 A 
HETATM    5  N2  UNL     1      23.511   3.345  50.792  1.00  0.00    -0.224 NA
HETATM    6  C15 UNL     1      22.550   3.018  51.661  1.00  0.00     0.236 A 
HETATM    7  N3  UNL     1      22.746   2.053  52.577  1.00  0.00    -0.241 NA
HETATM    8  C16 UNL     1      23.931   1.391  52.631  1.00  0.00     0.074 A 
HETATM    9  C17 UNL     1      24.076   0.416  53.582  1.00  0.00     0.070 A 
HETATM   10  C18 UNL     1      25.257  -0.288  53.682  1.00  0.00     0.078 A 
ENDROOT
BRANCH   4  11
HETATM   11  N1  UNL     1      25.723   3.053  49.910  1.00  0.00    -0.340 N 
HETATM   12  H7  UNL     1      26.365   2.356  49.545  1.00  0.00     0.167 HD
BRANCH  11  13
HETATM   13  C9  UNL     1      26.103   4.299  49.340  1.00  0.00     0.035 A 
HETATM   14  C10 UNL     1      25.272   5.406  49.133  1.00  0.00     0.032 A 
HETATM   15  C11 UNL     1      25.695   6.578  48.588  1.00  0.00     0.046 A 
HETATM   16  C12 UNL     1      26.989   6.750  48.200  1.00  0.00     0.138 A 
HETATM   17  F1  UNL     1      27.297   7.952  47.672  1.00  0.00    -0.204 F 
HETATM   18  C13 UNL     1      27.862   5.700  48.374  1.00  0.00     0.074 A 
HETATM   19 CL1  UNL     1      29.510   5.974  47.860  1.00  0.00    -0.081 Cl
HETATM   20  C14 UNL     1      27.398   4.531  48.928  1.00  0.00     0.056 A 
ENDBRANCH  11  13
ENDBRANCH   4  11
BRANCH   1  21
HETATM   21  C4  UNL     1      27.539  -0.703  52.872  1.00  0.00     0.065 C 
BRANCH  21  22
HETATM   22  C3  UNL     1      28.571  -0.020  53.286  1.00  0.00    -0.146 C 
BRANCH  22  23
HETATM   23  C2  UNL     1      29.435   0.761  53.920  1.00  0.00     0.097 C 
BRANCH  23  24
HETATM   24  C1  UNL     1      29.118   2.160  54.165  1.00  0.00     0.181 C 
BRANCH  24  25
HETATM   25  O1  UNL     1      29.019   2.791  52.902  1.00  0.00    -0.400 OA
HETATM   26  H1  UNL     1      28.854   3.765  52.996  1.00  0.00     0.209 HD
ENDBRANCH  24  25
ENDBRANCH  23  24
ENDBRANCH  22  23
ENDBRANCH  21  22
ENDBRANCH   1  21
BRANCH  10  27
HETATM   27  O2  UNL     1      25.414  -1.275  54.640  1.00  0.00    -0.360 OA
HETATM   28  H13 UNL     1      24.840  -1.248  55.492  1.00  0.00     0.217 HD
ENDBRANCH  10  27
TORSDOF 8
ENDMDL
MODEL 6
REMARK VINA RESULT:      -7.8      2.432      4.769
REMARK  8 active torsions:
REMARK  status: ('A' for Active; 'I' for Inactive)
REMARK    1  A    between atoms: O1_1  and  C1_2 
REMARK    2  A    between atoms: C1_2  and  C2_3 
REMARK    3  A    between atoms: C2_3  and  C3_4 
REMARK    4  A    between atoms: C3_4  and  C4_5 
REMARK    5  A    between atoms: C4_5  and  C5_6 
REMARK    6  A    between atoms: C8_9  and  N1_10 
REMARK    7  A    between atoms: N1_10  and  C9_11 
REMARK    8  A    between atoms: C18_24  and  O2_25 
ROOT
HETATM    1  C5  UNL     1      22.469  -0.485  54.148  1.00  0.00     0.005 A 
HETATM    2  C6  UNL     1      22.886   0.348  53.126  1.00  0.00     0.032 A 
HETATM    3  C7  UNL     1      24.195   0.625  52.809  1.00  0.00     0.040 A 
HETATM    4  C8  UNL     1      24.604   1.453  51.795  1.00  0.00     0.142 A 
HETATM    5  N2  UNL     1      25.918   1.625  51.609  1.00  0.00    -0.224 NA
HETATM    6  C15 UNL     1      26.816   1.010  52.384  1.00  0.00     0.236 A 
HETATM    7  N3  UNL     1      26.425   0.195  53.381  1.00  0.00    -0.241 NA
HETATM    8  C16 UNL     1      25.104  -0.015  53.616  1.00  0.00     0.074 A 
HETATM    9  C17 UNL     1      24.762  -0.853  54.643  1.00  0.00     0.070 A 
HETATM   10  C18 UNL     1      23.436  -1.102  54.927  1.00  0.00     0.078 A 
ENDROOT
BRANCH   4  11
HETATM   11  N1  UNL     1      23.643   2.075  50.994  1.00  0.00    -0.340 N 
HETATM   12  H7  UNL     1      23.217   1.609  50.199  1.00  0.00     0.167 HD
BRANCH  11  13
HETATM   13  C9  UNL     1      23.068   3.374  51.064  1.00  0.00     0.035 A 
HETATM   14  C10 UNL     1      21.710   3.674  51.228  1.00  0.00     0.032 A 
HETATM   15  C11 UNL     1      21.219   4.940  51.295  1.00  0.00     0.046 A 
HETATM   16  C12 UNL     1      22.039   6.022  51.205  1.00  0.00     0.138 A 
HETATM   17  F1  UNL     1      21.444   7.230  51.284  1.00  0.00    -0.204 F 
HETATM   18  C13 UNL     1      23.388   5.800  51.042  1.00  0.00     0.074 A 
HETATM   19 CL1  UNL     1      24.396   7.223  50.931  1.00  0.00    -0.081 Cl
HETATM   20  C14 UNL     1      23.849   4.507  50.978  1.00  0.00     0.056 A 
ENDBRANCH  11  13
ENDBRANCH   4  11
BRANCH   1  21
HETATM   21  C4  UNL     1      21.064  -0.721  54.416  1.00  0.00     0.065 C 
BRANCH  21  22
HETATM   22  C3  UNL     1      20.239  -0.449  53.443  1.00  0.00    -0.146 C 
BRANCH  22  23
HETATM   23  C2  UNL     1      19.193  -0.231  52.657  1.00  0.00     0.097 C 
BRANCH  23  24
HETATM   24  C1  UNL     1      18.025  -1.097  52.731  1.00  0.00     0.181 C 
BRANCH  24  25
HETATM   25  O1  UNL     1      17.680  -1.214  54.098  1.00  0.00    -0.400 OA
HETATM   26  H1  UNL     1      17.639  -2.164  54.381  1.00  0.00     0.209 HD
ENDBRANCH  24  25
ENDBRANCH  23  24
ENDBRANCH  22  23
ENDBRANCH  21  22
ENDBRANCH   1  21
BRANCH  10  27
HETATM   27  O2  UNL     1      23.080  -1.947  55.963  1.00  0.00    -0.360 OA
HETATM   28  H13 UNL     1      22.226  -1.754  56.502  1.00  0.00     0.217 HD
ENDBRANCH  10  27
TORSDOF 8
ENDMDL
MODEL 7
REMARK VINA RESULT:      -7.8      2.877      4.061
REMARK  8 active torsions:
REMARK  status: ('A' for Active; 'I' for Inactive)
REMARK    1  A    between atoms: O1_1  and  C1_2 
REMARK    2  A    between atoms: C1_2  and  C2_3 
REMARK    3  A    between atoms: C2_3  and  C3_4 
REMARK    4  A    between atoms: C3_4  and  C4_5 
REMARK    5  A    between atoms: C4_5  and  C5_6 
REMARK    6  A    between atoms: C8_9  and  N1_10 
REMARK    7  A    between atoms: N1_10  and  C9_11 
REMARK    8  A    between atoms: C18_24  and  O2_25 
ROOT
HETATM    1  C5  UNL     1      25.809   0.796  52.778  1.00  0.00     0.005 A 
HETATM    2  C6  UNL     1      24.479   1.137  52.617  1.00  0.00     0.032 A 
HETATM    3  C7  UNL     1      23.421   0.539  53.258  1.00  0.00     0.040 A 
HETATM    4  C8  UNL     1      22.103   0.880  53.095  1.00  0.00     0.142 A 
HETATM    5  N2  UNL     1      21.182   0.203  53.791  1.00  0.00    -0.224 NA
HETATM    6  C15 UNL     1      21.528  -0.782  54.626  1.00  0.00     0.236 A 
HETATM    7  N3  UNL     1      22.818  -1.123  54.795  1.00  0.00    -0.241 NA
HETATM    8  C16 UNL     1      23.794  -0.470  54.113  1.00  0.00     0.074 A 
HETATM    9  C17 UNL     1      25.090  -0.859  54.322  1.00  0.00     0.070 A 
HETATM   10  C18 UNL     1      26.121  -0.231  53.656  1.00  0.00     0.078 A 
ENDROOT
BRANCH   4  11
HETATM   11  N1  UNL     1      21.771   1.919  52.221  1.00  0.00    -0.340 N 
HETATM   12  H7  UNL     1      21.340   2.780  52.544  1.00  0.00     0.167 HD
BRANCH  11  13
HETATM   13  C9  UNL     1      21.926   2.041  50.813  1.00  0.00     0.035 A 
HETATM   14  C10 UNL     1      21.593   1.077  49.854  1.00  0.00     0.032 A 
HETATM   15  C11 UNL     1      21.758   1.254  48.516  1.00  0.00     0.046 A 
HETATM   16  C12 UNL     1      22.270   2.410  48.014  1.00  0.00     0.138 A 
HETATM   17  F1  UNL     1      22.390   2.476  46.672  1.00  0.00    -0.204 F 
HETATM   18  C13 UNL     1      22.621   3.402  48.902  1.00  0.00     0.074 A 
HETATM   19 CL1  UNL     1      23.274   4.866  48.206  1.00  0.00    -0.081 Cl
HETATM   20  C14 UNL     1      22.440   3.188  50.248  1.00  0.00     0.056 A 
ENDBRANCH  11  13
ENDBRANCH   4  11
BRANCH   1  21
HETATM   21  C4  UNL     1      26.865   1.480  52.058  1.00  0.00     0.065 C 
BRANCH  21  22
HETATM   22  C3  UNL     1      26.492   2.214  51.047  1.00  0.00    -0.146 C 
BRANCH  22  23
HETATM   23  C2  UNL     1      26.348   2.841  49.887  1.00  0.00     0.097 C 
BRANCH  23  24
HETATM   24  C1  UNL     1      26.426   4.293  49.822  1.00  0.00     0.181 C 
BRANCH  24  25
HETATM   25  O1  UNL     1      27.776   4.626  49.562  1.00  0.00    -0.400 OA
HETATM   26  H1  UNL     1      28.234   3.907  49.055  1.00  0.00     0.209 HD
ENDBRANCH  24  25
ENDBRANCH  23  24
ENDBRANCH  22  23
ENDBRANCH  21  22
ENDBRANCH   1  21
BRANCH  10  27
HETATM   27  O2  UNL     1      27.435  -0.617  53.860  1.00  0.00    -0.360 OA
HETATM   28  H13 UNL     1      27.726  -1.570  53.605  1.00  0.00     0.217 HD
ENDBRANCH  10  27
TORSDOF 8
ENDMDL
MODEL 8
REMARK VINA RESULT:      -7.7      3.387      5.572
REMARK  8 active torsions:
REMARK  status: ('A' for Active; 'I' for Inactive)
REMARK    1  A    between atoms: O1_1  and  C1_2 
REMARK    2  A    between atoms: C1_2  and  C2_3 
REMARK    3  A    between atoms: C2_3  and  C3_4 
REMARK    4  A    between atoms: C3_4  and  C4_5 
REMARK    5  A    between atoms: C4_5  and  C5_6 
REMARK    6  A    between atoms: C8_9  and  N1_10 
REMARK    7  A    between atoms: N1_10  and  C9_11 
REMARK    8  A    between atoms: C18_24  and  O2_25 
ROOT
HETATM    1  C5  UNL     1      22.697   2.231  50.983  1.00  0.00     0.005 A 
HETATM    2  C6  UNL     1      23.442   1.206  51.537  1.00  0.00     0.032 A 
HETATM    3  C7  UNL     1      23.129   0.527  52.690  1.00  0.00     0.040 A 
HETATM    4  C8  UNL     1      23.872  -0.489  53.235  1.00  0.00     0.142 A 
HETATM    5  N2  UNL     1      23.436  -1.056  54.367  1.00  0.00    -0.224 NA
HETATM    6  C15 UNL     1      22.308  -0.650  54.957  1.00  0.00     0.236 A 
HETATM    7  N3  UNL     1      21.571   0.345  54.429  1.00  0.00    -0.241 NA
HETATM    8  C16 UNL     1      21.966   0.956  53.283  1.00  0.00     0.074 A 
HETATM    9  C17 UNL     1      21.180   1.963  52.790  1.00  0.00     0.070 A 
HETATM   10  C18 UNL     1      21.533   2.618  51.630  1.00  0.00     0.078 A 
ENDROOT
BRANCH   4  11
HETATM   11  N1  UNL     1      25.043  -0.898  52.592  1.00  0.00    -0.340 N 
HETATM   12  H7  UNL     1      25.027  -1.470  51.753  1.00  0.00     0.167 HD
BRANCH  11  13
HETATM   13  C9  UNL     1      26.410  -0.657  52.898  1.00  0.00     0.035 A 
HETATM   14  C10 UNL     1      27.427  -1.617  52.973  1.00  0.00     0.032 A 
HETATM   15  C11 UNL     1      28.722  -1.324  53.264  1.00  0.00     0.046 A 
HETATM   16  C12 UNL     1      29.121  -0.045  53.507  1.00  0.00     0.138 A 
HETATM   17  F1  UNL     1      30.428   0.129  53.786  1.00  0.00    -0.204 F 
HETATM   18  C13 UNL     1      28.171   0.950  53.451  1.00  0.00     0.074 A 
HETATM   19 CL1  UNL     1      28.735   2.573  53.770  1.00  0.00    -0.081 Cl
HETATM   20  C14 UNL     1      26.871   0.617  53.153  1.00  0.00     0.056 A 
ENDBRANCH  11  13
ENDBRANCH   4  11
BRANCH   1  21
HETATM   21  C4  UNL     1      23.104   2.897  49.762  1.00  0.00     0.065 C 
BRANCH  21  22
HETATM   22  C3  UNL     1      24.173   3.639  49.839  1.00  0.00    -0.146 C 
BRANCH  22  23
HETATM   23  C2  UNL     1      25.389   4.166  49.779  1.00  0.00     0.097 C 
BRANCH  23  24
HETATM   24  C1  UNL     1      26.561   3.304  49.724  1.00  0.00     0.181 C 
BRANCH  24  25
HETATM   25  O1  UNL     1      27.225   3.425  50.968  1.00  0.00    -0.400 OA
HETATM   26  H1  UNL     1      27.893   2.702  51.094  1.00  0.00     0.209 HD
ENDBRANCH  24  25
ENDBRANCH  23  24
ENDBRANCH  22  23
ENDBRANCH  21  22
ENDBRANCH   1  21
BRANCH  10  27
HETATM   27  O2  UNL     1      20.745   3.637  51.124  1.00  0.00    -0.360 OA
HETATM   28  H13 UNL     1      19.722   3.543  51.148  1.00  0.00     0.217 HD
ENDBRANCH  10  27
TORSDOF 8
ENDMDL
MODEL 9
REMARK VINA RESULT:      -7.6      5.114      8.022
REMARK  8 active torsions:
REMARK  status: ('A' for Active; 'I' for Inactive)
REMARK    1  A    between atoms: O1_1  and  C1_2 
REMARK    2  A    between atoms: C1_2  and  C2_3 
REMARK    3  A    between atoms: C2_3  and  C3_4 
REMARK    4  A    between atoms: C3_4  and  C4_5 
REMARK    5  A    between atoms: C4_5  and  C5_6 
REMARK    6  A    between atoms: C8_9  and  N1_10 
REMARK    7  A    between atoms: N1_10  and  C9_11 
REMARK    8  A    between atoms: C18_24  and  O2_25 
ROOT
HETATM    1  C5  UNL     1      27.823   5.685  48.363  1.00  0.00     0.005 A 
HETATM    2  C6  UNL     1      27.329   4.617  49.087  1.00  0.00     0.032 A 
HETATM    3  C7  UNL     1      26.073   4.542  49.640  1.00  0.00     0.040 A 
HETATM    4  C8  UNL     1      25.588   3.479  50.358  1.00  0.00     0.142 A 
HETATM    5  N2  UNL     1      24.339   3.554  50.835  1.00  0.00    -0.224 NA
HETATM    6  C15 UNL     1      23.577   4.631  50.622  1.00  0.00     0.236 A 
HETATM    7  N3  UNL     1      24.043   5.678  49.917  1.00  0.00    -0.241 NA
HETATM    8  C16 UNL     1      25.303   5.657  49.410  1.00  0.00     0.074 A 
HETATM    9  C17 UNL     1      25.727   6.749  48.702  1.00  0.00     0.070 A 
HETATM   10  C18 UNL     1      26.996   6.782  48.165  1.00  0.00     0.078 A 
ENDROOT
BRANCH   4  11
HETATM   11  N1  UNL     1      26.403   2.363  50.559  1.00  0.00    -0.340 N 
HETATM   12  H7  UNL     1      26.848   1.873  49.789  1.00  0.00     0.167 HD
BRANCH  11  13
HETATM   13  C9  UNL     1      26.787   1.688  51.750  1.00  0.00     0.035 A 
HETATM   14  C10 UNL     1      26.216   0.517  52.263  1.00  0.00     0.032 A 
HETATM   15  C11 UNL     1      26.632  -0.089  53.407  1.00  0.00     0.046 A 
HETATM   16  C12 UNL     1      27.656   0.421  54.144  1.00  0.00     0.138 A 
HETATM   17  F1  UNL     1      27.984  -0.261  55.260  1.00  0.00    -0.204 F 
HETATM   18  C13 UNL     1      28.264   1.573  53.698  1.00  0.00     0.074 A 
HETATM   19 CL1  UNL     1      29.572   2.185  54.681  1.00  0.00    -0.081 Cl
HETATM   20  C14 UNL     1      27.816   2.158  52.537  1.00  0.00     0.056 A 
ENDBRANCH  11  13
ENDBRANCH   4  11
BRANCH   1  21
HETATM   21  C4  UNL     1      29.165   5.682  47.816  1.00  0.00     0.065 C 
BRANCH  21  22
HETATM   22  C3  UNL     1      30.058   6.365  48.477  1.00  0.00    -0.146 C 
BRANCH  22  23
HETATM   23  C2  UNL     1      31.158   6.896  48.995  1.00  0.00     0.097 C 
BRANCH  23  24
HETATM   24  C1  UNL     1      32.108   6.061  49.716  1.00  0.00     0.181 C 
BRANCH  24  25
HETATM   25  O1  UNL     1      31.379   5.368  50.712  1.00  0.00    -0.400 OA
HETATM   26  H1  UNL     1      31.984   4.879  51.328  1.00  0.00     0.209 HD
ENDBRANCH  24  25
ENDBRANCH  23  24
ENDBRANCH  22  23
ENDBRANCH  21  22
ENDBRANCH   1  21
BRANCH  10  27
HETATM   27  O2  UNL     1      27.434   7.881  47.448  1.00  0.00    -0.360 OA
HETATM   28  H13 UNL     1      26.925   8.168  46.602  1.00  0.00     0.217 HD
ENDBRANCH  10  27
TORSDOF 8
ENDMDL
