MODEL 1
REMARK VINA RESULT:      -9.9      0.000      0.000
REMARK  4 active torsions:
REMARK  status: ('A' for Active; 'I' for Inactive)
REMARK    1  A    between atoms: C2_4  and  O2_5 
REMARK    2  A    between atoms: C11_14  and  C12_15 
REMARK    3  A    between atoms: C12_15  and  O3_16 
REMARK    4  A    between atoms: N2_17  and  C13_18 
ROOT
HETATM    1  O1  UNL     1      25.938  -0.823  53.539  1.00  0.00    -0.268 OA
HETATM    2  C1  UNL     1      25.863   0.180  52.823  1.00  0.00     0.255 A 
HETATM    3  N1  UNL     1      27.138   0.629  52.397  1.00  0.00    -0.326 N 
HETATM    4  C2  UNL     1      26.992   1.824  51.567  1.00  0.00     0.258 A 
HETATM    5  C3  UNL     1      25.507   2.012  51.536  1.00  0.00     0.034 A 
HETATM    6  C4  UNL     1      24.808   2.950  50.911  1.00  0.00     0.058 A 
HETATM    7  C5  UNL     1      25.129   4.091  50.066  1.00  0.00    -0.000 A 
HETATM    8  C6  UNL     1      26.347   4.565  49.629  1.00  0.00     0.014 A 
HETATM    9  C7  UNL     1      26.399   5.680  48.818  1.00  0.00     0.001 A 
HETATM   10  C8  UNL     1      25.263   6.353  48.421  1.00  0.00     0.001 A 
HETATM   11  C9  UNL     1      24.027   5.880  48.859  1.00  0.00     0.010 A 
HETATM   12  C10 UNL     1      24.000   4.759  49.671  1.00  0.00    -0.020 A 
HETATM   13  C11 UNL     1      22.821   4.079  50.254  1.00  0.00     0.148 A 
HETATM   14  N2  UNL     1      23.389   2.976  51.000  1.00  0.00    -0.332 N 
HETATM   15  C13 UNL     1      22.759   1.948  51.789  1.00  0.00     0.065 A 
HETATM   16  C14 UNL     1      21.442   1.659  52.091  1.00  0.00     0.122 A 
HETATM   17  N3  UNL     1      21.449   0.546  52.889  1.00  0.00    -0.350 N 
HETATM   18  C15 UNL     1      22.695   0.135  53.096  1.00  0.00     0.048 A 
HETATM   19  C16 UNL     1      23.514   0.990  52.423  1.00  0.00     0.035 A 
HETATM   20  C17 UNL     1      24.810   1.002  52.318  1.00  0.00     0.059 A 
HETATM   21  C18 UNL     1      22.738  -0.927  53.855  1.00  0.00     0.030 A 
HETATM   22  C19 UNL     1      21.617  -1.641  54.447  1.00  0.00    -0.000 A 
HETATM   23  C20 UNL     1      20.412  -1.161  54.189  1.00  0.00    -0.007 A 
HETATM   24  C21 UNL     1      20.178   0.032  53.348  1.00  0.00     0.156 A 
HETATM   25  H1  UNL     1      28.128   0.328  52.525  1.00  0.00     0.165 HD
ENDROOT
BRANCH  13  26
HETATM   26  C12 UNL     1      22.106   5.082  51.169  1.00  0.00     0.194 C 
BRANCH  26  27
HETATM   27  O3  UNL     1      22.959   5.454  52.223  1.00  0.00    -0.398 OA
HETATM   28  H11 UNL     1      23.092   6.449  52.198  1.00  0.00     0.209 HD
ENDBRANCH  26  27
ENDBRANCH  13  26
BRANCH   4  29
HETATM   29  O2  UNL     1      27.641   2.837  52.273  1.00  0.00    -0.372 OA
HETATM   30  H3  UNL     1      26.950   3.315  52.799  1.00  0.00     0.212 HD
ENDBRANCH   4  29
TORSDOF 4
ENDMDL
MODEL 2
REMARK VINA RESULT:      -9.6      2.047      6.358
REMARK  4 active torsions:
REMARK  status: ('A' for Active; 'I' for Inactive)
REMARK    1  A    between atoms: C2_4  and  O2_5 
REMARK    2  A    between atoms: C11_14  and  C12_15 
REMARK    3  A    between atoms: C12_15  and  O3_16 
REMARK    4  A    between atoms: N2_17  and  C13_18 
ROOT
HETATM    1  O1  UNL     1      25.750   3.810  50.825  1.00  0.00    -0.268 OA
HETATM    2  C1  UNL     1      24.732   3.159  51.083  1.00  0.00     0.255 A 
HETATM    3  N1  UNL     1      23.597   3.645  50.389  1.00  0.00    -0.326 N 
HETATM    4  C2  UNL     1      22.422   2.849  50.741  1.00  0.00     0.258 A 
HETATM    5  C3  UNL     1      22.992   1.841  51.690  1.00  0.00     0.034 A 
HETATM    6  C4  UNL     1      22.366   0.853  52.315  1.00  0.00     0.058 A 
HETATM    7  C5  UNL     1      20.999   0.355  52.358  1.00  0.00    -0.000 A 
HETATM    8  C6  UNL     1      19.867   0.794  51.706  1.00  0.00     0.014 A 
HETATM    9  C7  UNL     1      18.664   0.147  51.906  1.00  0.00     0.001 A 
HETATM   10  C8  UNL     1      18.546  -0.939  52.748  1.00  0.00     0.001 A 
HETATM   11  C9  UNL     1      19.686  -1.389  53.411  1.00  0.00     0.010 A 
HETATM   12  C10 UNL     1      20.881  -0.724  53.193  1.00  0.00    -0.020 A 
HETATM   13  C11 UNL     1      22.210  -1.016  53.778  1.00  0.00     0.148 A 
HETATM   14  N2  UNL     1      23.074  -0.012  53.194  1.00  0.00    -0.332 N 
HETATM   15  C13 UNL     1      24.484   0.234  53.367  1.00  0.00     0.065 A 
HETATM   16  C14 UNL     1      25.469  -0.384  54.112  1.00  0.00     0.122 A 
HETATM   17  N3  UNL     1      26.635   0.292  53.873  1.00  0.00    -0.350 N 
HETATM   18  C15 UNL     1      26.424   1.291  53.023  1.00  0.00     0.048 A 
HETATM   19  C16 UNL     1      25.101   1.267  52.701  1.00  0.00     0.035 A 
HETATM   20  C17 UNL     1      24.417   2.036  51.907  1.00  0.00     0.059 A 
HETATM   21  C18 UNL     1      27.519   1.958  52.771  1.00  0.00     0.030 A 
HETATM   22  C19 UNL     1      28.849   1.714  53.308  1.00  0.00    -0.000 A 
HETATM   23  C20 UNL     1      28.968   0.699  54.148  1.00  0.00    -0.007 A 
HETATM   24  C21 UNL     1      27.834  -0.162  54.542  1.00  0.00     0.156 A 
HETATM   25  H1  UNL     1      23.395   4.410  49.709  1.00  0.00     0.165 HD
ENDROOT
BRANCH  13  26
HETATM   26  C12 UNL     1      22.097  -0.859  55.300  1.00  0.00     0.194 C 
BRANCH  26  27
HETATM   27  O3  UNL     1      22.929  -1.795  55.938  1.00  0.00    -0.398 OA
HETATM   28  H11 UNL     1      23.760  -1.917  55.388  1.00  0.00     0.209 HD
ENDBRANCH  26  27
ENDBRANCH  13  26
BRANCH   4  29
HETATM   29  O2  UNL     1      21.555   3.741  51.372  1.00  0.00    -0.372 OA
HETATM   30  H3  UNL     1      21.426   3.417  52.300  1.00  0.00     0.212 HD
ENDBRANCH   4  29
TORSDOF 4
ENDMDL
MODEL 3
REMARK VINA RESULT:      -9.3      2.481      4.706
REMARK  4 active torsions:
REMARK  status: ('A' for Active; 'I' for Inactive)
REMARK    1  A    between atoms: C2_4  and  O2_5 
REMARK    2  A    between atoms: C11_14  and  C12_15 
REMARK    3  A    between atoms: C12_15  and  O3_16 
REMARK    4  A    between atoms: N2_17  and  C13_18 
ROOT
HETATM    1  O1  UNL     1      20.970  -2.042  54.893  1.00  0.00    -0.268 OA
HETATM    2  C1  UNL     1      22.099  -1.566  54.735  1.00  0.00     0.255 A 
HETATM    3  N1  UNL     1      23.027  -2.065  55.681  1.00  0.00    -0.326 N 
HETATM    4  C2  UNL     1      24.339  -1.460  55.457  1.00  0.00     0.258 A 
HETATM    5  C3  UNL     1      24.086  -0.577  54.275  1.00  0.00     0.034 A 
HETATM    6  C4  UNL     1      24.942   0.207  53.634  1.00  0.00     0.058 A 
HETATM    7  C5  UNL     1      26.355   0.528  53.771  1.00  0.00    -0.000 A 
HETATM    8  C6  UNL     1      27.293   0.071  54.672  1.00  0.00     0.014 A 
HETATM    9  C7  UNL     1      28.594   0.525  54.599  1.00  0.00     0.001 A 
HETATM   10  C8  UNL     1      29.002   1.433  53.645  1.00  0.00     0.001 A 
HETATM   11  C9  UNL     1      28.060   1.900  52.731  1.00  0.00     0.010 A 
HETATM   12  C10 UNL     1      26.761   1.430  52.823  1.00  0.00    -0.020 A 
HETATM   13  C11 UNL     1      25.600   1.777  51.973  1.00  0.00     0.148 A 
HETATM   14  N2  UNL     1      24.518   0.988  52.525  1.00  0.00    -0.332 N 
HETATM   15  C13 UNL     1      23.133   0.885  52.136  1.00  0.00     0.065 A 
HETATM   16  C14 UNL     1      22.384   1.471  51.134  1.00  0.00     0.122 A 
HETATM   17  N3  UNL     1      21.110   0.984  51.250  1.00  0.00    -0.350 N 
HETATM   18  C15 UNL     1      21.032   0.132  52.267  1.00  0.00     0.048 A 
HETATM   19  C16 UNL     1      22.273   0.061  52.822  1.00  0.00     0.035 A 
HETATM   20  C17 UNL     1      22.701  -0.636  53.833  1.00  0.00     0.059 A 
HETATM   21  C18 UNL     1      19.827  -0.353  52.405  1.00  0.00     0.030 A 
HETATM   22  C19 UNL     1      18.653  -0.057  51.599  1.00  0.00    -0.000 A 
HETATM   23  C20 UNL     1      18.822   0.803  50.608  1.00  0.00    -0.007 A 
HETATM   24  C21 UNL     1      20.117   1.446  50.306  1.00  0.00     0.156 A 
HETATM   25  H1  UNL     1      23.009  -2.739  56.478  1.00  0.00     0.165 HD
ENDROOT
BRANCH  13  26
HETATM   26  C12 UNL     1      25.344   3.283  52.120  1.00  0.00     0.194 C 
BRANCH  26  27
HETATM   27  O3  UNL     1      24.766   3.546  53.374  1.00  0.00    -0.398 OA
HETATM   28  H11 UNL     1      23.818   3.849  53.237  1.00  0.00     0.209 HD
ENDBRANCH  26  27
ENDBRANCH  13  26
BRANCH   4  29
HETATM   29  O2  UNL     1      24.605  -0.732  56.617  1.00  0.00    -0.372 OA
HETATM   30  H3  UNL     1      24.053  -1.124  57.341  1.00  0.00     0.212 HD
ENDBRANCH   4  29
TORSDOF 4
ENDMDL
MODEL 4
REMARK VINA RESULT:      -9.3      1.376      6.037
REMARK  4 active torsions:
REMARK  status: ('A' for Active; 'I' for Inactive)
REMARK    1  A    between atoms: C2_4  and  O2_5 
REMARK    2  A    between atoms: C11_14  and  C12_15 
REMARK    3  A    between atoms: C12_15  and  O3_16 
REMARK    4  A    between atoms: N2_17  and  C13_18 
ROOT
HETATM    1  O1  UNL     1      27.736   2.579  51.845  1.00  0.00    -0.268 OA
HETATM    2  C1  UNL     1      26.686   2.006  52.154  1.00  0.00     0.255 A 
HETATM    3  N1  UNL     1      26.900   0.968  53.095  1.00  0.00    -0.326 N 
HETATM    4  C2  UNL     1      25.630   0.318  53.413  1.00  0.00     0.258 A 
HETATM    5  C3  UNL     1      24.656   1.094  52.582  1.00  0.00     0.034 A 
HETATM    6  C4  UNL     1      23.342   0.937  52.491  1.00  0.00     0.058 A 
HETATM    7  C5  UNL     1      22.362   0.043  53.090  1.00  0.00    -0.000 A 
HETATM    8  C6  UNL     1      22.522  -0.977  54.003  1.00  0.00     0.014 A 
HETATM    9  C7  UNL     1      21.423  -1.693  54.432  1.00  0.00     0.001 A 
HETATM   10  C8  UNL     1      20.149  -1.426  53.978  1.00  0.00     0.001 A 
HETATM   11  C9  UNL     1      19.979  -0.396  53.054  1.00  0.00     0.010 A 
HETATM   12  C10 UNL     1      21.096   0.309  52.639  1.00  0.00    -0.020 A 
HETATM   13  C11 UNL     1      21.164   1.432  51.676  1.00  0.00     0.148 A 
HETATM   14  N2  UNL     1      22.571   1.770  51.636  1.00  0.00    -0.332 N 
HETATM   15  C13 UNL     1      23.276   2.779  50.886  1.00  0.00     0.065 A 
HETATM   16  C14 UNL     1      22.873   3.747  49.987  1.00  0.00     0.122 A 
HETATM   17  N3  UNL     1      23.996   4.427  49.600  1.00  0.00    -0.350 N 
HETATM   18  C15 UNL     1      25.068   3.932  50.208  1.00  0.00     0.048 A 
HETATM   19  C16 UNL     1      24.639   2.916  51.006  1.00  0.00     0.035 A 
HETATM   20  C17 UNL     1      25.308   2.131  51.798  1.00  0.00     0.059 A 
HETATM   21  C18 UNL     1      26.160   4.560  49.860  1.00  0.00     0.030 A 
HETATM   22  C19 UNL     1      26.287   5.671  48.930  1.00  0.00    -0.000 A 
HETATM   23  C20 UNL     1      25.168   6.099  48.369  1.00  0.00    -0.007 A 
HETATM   24  C21 UNL     1      23.843   5.506  48.649  1.00  0.00     0.156 A 
HETATM   25  H1  UNL     1      27.716   0.562  53.602  1.00  0.00     0.165 HD
ENDROOT
BRANCH  13  26
HETATM   26  C12 UNL     1      20.658   0.919  50.321  1.00  0.00     0.194 C 
BRANCH  26  27
HETATM   27  O3  UNL     1      19.448   1.555  49.994  1.00  0.00    -0.398 OA
HETATM   28  H11 UNL     1      19.644   2.339  49.399  1.00  0.00     0.209 HD
ENDBRANCH  26  27
ENDBRANCH  13  26
BRANCH   4  29
HETATM   29  O2  UNL     1      25.776  -0.998  52.972  1.00  0.00    -0.372 OA
HETATM   30  H3  UNL     1      25.979  -0.959  52.002  1.00  0.00     0.212 HD
ENDBRANCH   4  29
TORSDOF 4
ENDMDL
MODEL 5
REMARK VINA RESULT:      -9.0      2.681      5.360
REMARK  4 active torsions:
REMARK  status: ('A' for Active; 'I' for Inactive)
REMARK    1  A    between atoms: C2_4  and  O2_5 
REMARK    2  A    between atoms: C11_14  and  C12_15 
REMARK    3  A    between atoms: C12_15  and  O3_16 
REMARK    4  A    between atoms: N2_17  and  C13_18 
ROOT
HETATM    1  O1  UNL     1      18.515  -0.739  53.531  1.00  0.00    -0.268 OA
HETATM    2  C1  UNL     1      19.741  -0.616  53.442  1.00  0.00     0.255 A 
HETATM    3  N1  UNL     1      20.432  -1.579  54.218  1.00  0.00    -0.326 N 
HETATM    4  C2  UNL     1      21.875  -1.379  54.087  1.00  0.00     0.258 A 
HETATM    5  C3  UNL     1      21.952  -0.221  53.142  1.00  0.00     0.034 A 
HETATM    6  C4  UNL     1      23.033   0.379  52.661  1.00  0.00     0.058 A 
HETATM    7  C5  UNL     1      24.470   0.204  52.814  1.00  0.00    -0.000 A 
HETATM    8  C6  UNL     1      25.185  -0.712  53.555  1.00  0.00     0.014 A 
HETATM    9  C7  UNL     1      26.564  -0.683  53.538  1.00  0.00     0.001 A 
HETATM   10  C8  UNL     1      27.270   0.241  52.797  1.00  0.00     0.001 A 
HETATM   11  C9  UNL     1      26.554   1.171  52.045  1.00  0.00     0.010 A 
HETATM   12  C10 UNL     1      25.171   1.121  52.078  1.00  0.00    -0.020 A 
HETATM   13  C11 UNL     1      24.207   1.994  51.369  1.00  0.00     0.148 A 
HETATM   14  N2  UNL     1      22.914   1.481  51.771  1.00  0.00    -0.332 N 
HETATM   15  C13 UNL     1      21.582   1.905  51.420  1.00  0.00     0.065 A 
HETATM   16  C14 UNL     1      21.089   2.903  50.602  1.00  0.00     0.122 A 
HETATM   17  N3  UNL     1      19.724   2.825  50.653  1.00  0.00    -0.350 N 
HETATM   18  C15 UNL     1      19.347   1.836  51.456  1.00  0.00     0.048 A 
HETATM   19  C16 UNL     1      20.483   1.259  51.936  1.00  0.00     0.035 A 
HETATM   20  C17 UNL     1      20.635   0.256  52.749  1.00  0.00     0.059 A 
HETATM   21  C18 UNL     1      18.047   1.734  51.527  1.00  0.00     0.030 A 
HETATM   22  C19 UNL     1      17.054   2.554  50.851  1.00  0.00    -0.000 A 
HETATM   23  C20 UNL     1      17.518   3.516  50.071  1.00  0.00    -0.007 A 
HETATM   24  C21 UNL     1      18.959   3.774  49.873  1.00  0.00     0.156 A 
HETATM   25  H1  UNL     1      20.176  -2.373  54.844  1.00  0.00     0.165 HD
ENDROOT
BRANCH  13  26
HETATM   26  C12 UNL     1      24.429   3.432  51.858  1.00  0.00     0.194 C 
BRANCH  26  27
HETATM   27  O3  UNL     1      24.412   3.463  53.263  1.00  0.00    -0.398 OA
HETATM   28  H11 UNL     1      25.230   2.993  53.608  1.00  0.00     0.209 HD
ENDBRANCH  26  27
ENDBRANCH  13  26
BRANCH   4  29
HETATM   29  O2  UNL     1      22.313  -1.049  55.370  1.00  0.00    -0.372 OA
HETATM   30  H3  UNL     1      21.621  -0.465  55.773  1.00  0.00     0.212 HD
ENDBRANCH   4  29
TORSDOF 4
ENDMDL
MODEL 6
REMARK VINA RESULT:      -9.0      1.824      2.752
REMARK  4 active torsions:
REMARK  status: ('A' for Active; 'I' for Inactive)
REMARK    1  A    between atoms: C2_4  and  O2_5 
REMARK    2  A    between atoms: C11_14  and  C12_15 
REMARK    3  A    between atoms: C12_15  and  O3_16 
REMARK    4  A    between atoms: N2_17  and  C13_18 
ROOT
HETATM    1  O1  UNL     1      22.247  -1.736  54.935  1.00  0.00    -0.268 OA
HETATM    2  C1  UNL     1      22.804  -0.937  54.176  1.00  0.00     0.255 A 
HETATM    3  N1  UNL     1      24.194  -0.839  54.428  1.00  0.00    -0.326 N 
HETATM    4  C2  UNL     1      24.798   0.128  53.513  1.00  0.00     0.258 A 
HETATM    5  C3  UNL     1      23.626   0.566  52.692  1.00  0.00     0.034 A 
HETATM    6  C4  UNL     1      23.600   1.437  51.692  1.00  0.00     0.058 A 
HETATM    7  C5  UNL     1      24.586   2.266  51.013  1.00  0.00    -0.000 A 
HETATM    8  C6  UNL     1      25.942   2.394  51.223  1.00  0.00     0.014 A 
HETATM    9  C7  UNL     1      26.680   3.255  50.437  1.00  0.00     0.001 A 
HETATM   10  C8  UNL     1      26.107   4.006  49.432  1.00  0.00     0.001 A 
HETATM   11  C9  UNL     1      24.736   3.881  49.214  1.00  0.00     0.010 A 
HETATM   12  C10 UNL     1      24.016   3.011  50.015  1.00  0.00    -0.020 A 
HETATM   13  C11 UNL     1      22.566   2.714  49.971  1.00  0.00     0.148 A 
HETATM   14  N2  UNL     1      22.380   1.738  51.025  1.00  0.00    -0.332 N 
HETATM   15  C13 UNL     1      21.194   1.060  51.482  1.00  0.00     0.065 A 
HETATM   16  C14 UNL     1      19.871   1.092  51.085  1.00  0.00     0.122 A 
HETATM   17  N3  UNL     1      19.189   0.221  51.891  1.00  0.00    -0.350 N 
HETATM   18  C15 UNL     1      20.017  -0.346  52.762  1.00  0.00     0.048 A 
HETATM   19  C16 UNL     1      21.257   0.161  52.522  1.00  0.00     0.035 A 
HETATM   20  C17 UNL     1      22.392  -0.085  53.106  1.00  0.00     0.059 A 
HETATM   21  C18 UNL     1      19.397  -1.185  53.549  1.00  0.00     0.030 A 
HETATM   22  C19 UNL     1      17.982  -1.523  53.548  1.00  0.00    -0.000 A 
HETATM   23  C20 UNL     1      17.232  -0.911  52.647  1.00  0.00    -0.007 A 
HETATM   24  C21 UNL     1      17.768   0.067  51.677  1.00  0.00     0.156 A 
HETATM   25  H1  UNL     1      24.877  -1.273  55.087  1.00  0.00     0.165 HD
ENDROOT
BRANCH  13  26
HETATM   26  C12 UNL     1      21.812   4.019  50.259  1.00  0.00     0.194 C 
BRANCH  26  27
HETATM   27  O3  UNL     1      22.055   4.426  51.582  1.00  0.00    -0.398 OA
HETATM   28  H11 UNL     1      21.320   4.074  52.170  1.00  0.00     0.209 HD
ENDBRANCH  26  27
ENDBRANCH  13  26
BRANCH   4  29
HETATM   29  O2  UNL     1      25.284   1.148  54.332  1.00  0.00    -0.372 OA
HETATM   30  H3  UNL     1      26.182   0.866  54.646  1.00  0.00     0.212 HD
ENDBRANCH   4  29
TORSDOF 4
ENDMDL
MODEL 7
REMARK VINA RESULT:      -9.0      2.810      6.032
REMARK  4 active torsions:
REMARK  status: ('A' for Active; 'I' for Inactive)
REMARK    1  A    between atoms: C2_4  and  O2_5 
REMARK    2  A    between atoms: C11_14  and  C12_15 
REMARK    3  A    between atoms: C12_15  and  O3_16 
REMARK    4  A    between atoms: N2_17  and  C13_18 
ROOT
HETATM    1  O1  UNL     1      25.187  -1.232  55.882  1.00  0.00    -0.268 OA
HETATM    2  C1  UNL     1      24.138  -1.047  55.256  1.00  0.00     0.255 A 
HETATM    3  N1  UNL     1      23.056  -1.785  55.794  1.00  0.00    -0.326 N 
HETATM    4  C2  UNL     1      21.848  -1.539  55.009  1.00  0.00     0.258 A 
HETATM    5  C3  UNL     1      22.330  -0.570  53.975  1.00  0.00     0.034 A 
HETATM    6  C4  UNL     1      21.640   0.004  52.999  1.00  0.00     0.058 A 
HETATM    7  C5  UNL     1      20.260  -0.041  52.540  1.00  0.00    -0.000 A 
HETATM    8  C6  UNL     1      19.178  -0.741  53.029  1.00  0.00     0.014 A 
HETATM    9  C7  UNL     1      17.947  -0.617  52.418  1.00  0.00     0.001 A 
HETATM   10  C8  UNL     1      17.750   0.194  51.320  1.00  0.00     0.001 A 
HETATM   11  C9  UNL     1      18.839   0.905  50.820  1.00  0.00     0.010 A 
HETATM   12  C10 UNL     1      20.064   0.765  51.450  1.00  0.00    -0.020 A 
HETATM   13  C11 UNL     1      21.350   1.413  51.104  1.00  0.00     0.148 A 
HETATM   14  N2  UNL     1      22.273   0.903  52.097  1.00  0.00    -0.332 N 
HETATM   15  C13 UNL     1      23.678   1.158  52.296  1.00  0.00     0.065 A 
HETATM   16  C14 UNL     1      24.599   1.953  51.642  1.00  0.00     0.122 A 
HETATM   17  N3  UNL     1      25.794   1.796  52.289  1.00  0.00    -0.350 N 
HETATM   18  C15 UNL     1      25.663   0.948  53.303  1.00  0.00     0.048 A 
HETATM   19  C16 UNL     1      24.362   0.547  53.320  1.00  0.00     0.035 A 
HETATM   20  C17 UNL     1      23.746  -0.271  54.122  1.00  0.00     0.059 A 
HETATM   21  C18 UNL     1      26.788   0.775  53.944  1.00  0.00     0.030 A 
HETATM   22  C19 UNL     1      28.076   1.388  53.657  1.00  0.00    -0.000 A 
HETATM   23  C20 UNL     1      28.116   2.219  52.628  1.00  0.00    -0.007 A 
HETATM   24  C21 UNL     1      26.937   2.532  51.794  1.00  0.00     0.156 A 
HETATM   25  H1  UNL     1      22.910  -2.444  56.590  1.00  0.00     0.165 HD
ENDROOT
BRANCH  13  26
HETATM   26  C12 UNL     1      21.732   0.969  49.686  1.00  0.00     0.194 C 
BRANCH  26  27
HETATM   27  O3  UNL     1      22.077   2.092  48.914  1.00  0.00    -0.398 OA
HETATM   28  H11 UNL     1      23.018   2.363  49.138  1.00  0.00     0.209 HD
ENDBRANCH  26  27
ENDBRANCH  13  26
BRANCH   4  29
HETATM   29  O2  UNL     1      21.513  -2.778  54.461  1.00  0.00    -0.372 OA
HETATM   30  H3  UNL     1      20.987  -3.267  55.145  1.00  0.00     0.212 HD
ENDBRANCH   4  29
TORSDOF 4
ENDMDL
MODEL 8
REMARK VINA RESULT:      -8.8      1.594      7.066
REMARK  4 active torsions:
REMARK  status: ('A' for Active; 'I' for Inactive)
REMARK    1  A    between atoms: C2_4  and  O2_5 
REMARK    2  A    between atoms: C11_14  and  C12_15 
REMARK    3  A    between atoms: C12_15  and  O3_16 
REMARK    4  A    between atoms: N2_17  and  C13_18 
ROOT
HETATM    1  O1  UNL     1      21.494   5.602  49.455  1.00  0.00    -0.268 OA
HETATM    2  C1  UNL     1      21.609   4.626  50.204  1.00  0.00     0.255 A 
HETATM    3  N1  UNL     1      20.361   4.195  50.716  1.00  0.00    -0.326 N 
HETATM    4  C2  UNL     1      20.557   3.050  51.604  1.00  0.00     0.258 A 
HETATM    5  C3  UNL     1      22.039   2.847  51.540  1.00  0.00     0.034 A 
HETATM    6  C4  UNL     1      22.771   1.926  52.152  1.00  0.00     0.058 A 
HETATM    7  C5  UNL     1      22.499   0.820  53.059  1.00  0.00    -0.000 A 
HETATM    8  C6  UNL     1      21.308   0.366  53.583  1.00  0.00     0.014 A 
HETATM    9  C7  UNL     1      21.302  -0.722  54.432  1.00  0.00     0.001 A 
HETATM   10  C8  UNL     1      22.458  -1.385  54.785  1.00  0.00     0.001 A 
HETATM   11  C9  UNL     1      23.667  -0.932  54.259  1.00  0.00     0.010 A 
HETATM   12  C10 UNL     1      23.648   0.161  53.408  1.00  0.00    -0.020 A 
HETATM   13  C11 UNL     1      24.792   0.815  52.733  1.00  0.00     0.148 A 
HETATM   14  N2  UNL     1      24.182   1.888  51.977  1.00  0.00    -0.332 N 
HETATM   15  C13 UNL     1      24.766   2.883  51.114  1.00  0.00     0.065 A 
HETATM   16  C14 UNL     1      26.062   3.147  50.712  1.00  0.00     0.122 A 
HETATM   17  N3  UNL     1      26.008   4.226  49.872  1.00  0.00    -0.350 N 
HETATM   18  C15 UNL     1      24.755   4.643  49.734  1.00  0.00     0.048 A 
HETATM   19  C16 UNL     1      23.977   3.823  50.493  1.00  0.00     0.035 A 
HETATM   20  C17 UNL     1      22.690   3.824  50.681  1.00  0.00     0.059 A 
HETATM   21  C18 UNL     1      24.668   5.673  48.936  1.00  0.00     0.030 A 
HETATM   22  C19 UNL     1      25.751   6.351  48.241  1.00  0.00    -0.000 A 
HETATM   23  C20 UNL     1      26.968   5.870  48.437  1.00  0.00    -0.007 A 
HETATM   24  C21 UNL     1      27.249   4.708  49.306  1.00  0.00     0.156 A 
HETATM   25  H1  UNL     1      19.363   4.484  50.622  1.00  0.00     0.165 HD
ENDROOT
BRANCH  13  26
HETATM   26  C12 UNL     1      25.737   1.346  53.821  1.00  0.00     0.194 C 
BRANCH  26  27
HETATM   27  O3  UNL     1      26.900   0.558  53.865  1.00  0.00    -0.398 OA
HETATM   28  H11 UNL     1      26.929  -0.025  53.047  1.00  0.00     0.209 HD
ENDBRANCH  26  27
ENDBRANCH  13  26
BRANCH   4  29
HETATM   29  O2  UNL     1      20.135   3.489  52.860  1.00  0.00    -0.372 OA
HETATM   30  H3  UNL     1      19.144   3.497  52.848  1.00  0.00     0.212 HD
ENDBRANCH   4  29
TORSDOF 4
ENDMDL
MODEL 9
REMARK VINA RESULT:      -8.8      2.009      4.454
REMARK  4 active torsions:
REMARK  status: ('A' for Active; 'I' for Inactive)
REMARK    1  A    between atoms: C2_4  and  O2_5 
REMARK    2  A    between atoms: C11_14  and  C12_15 
REMARK    3  A    between atoms: C12_15  and  O3_16 
REMARK    4  A    between atoms: N2_17  and  C13_18 
ROOT
HETATM    1  O1  UNL     1      23.384  -0.774  53.429  1.00  0.00    -0.268 OA
HETATM    2  C1  UNL     1      23.326   0.170  52.635  1.00  0.00     0.255 A 
HETATM    3  N1  UNL     1      22.046   0.291  52.040  1.00  0.00    -0.326 N 
HETATM    4  C2  UNL     1      22.039   1.411  51.101  1.00  0.00     0.258 A 
HETATM    5  C3  UNL     1      23.433   1.941  51.225  1.00  0.00     0.034 A 
HETATM    6  C4  UNL     1      23.981   2.974  50.599  1.00  0.00     0.058 A 
HETATM    7  C5  UNL     1      23.527   3.952  49.621  1.00  0.00    -0.000 A 
HETATM    8  C6  UNL     1      22.299   4.108  49.016  1.00  0.00     0.014 A 
HETATM    9  C7  UNL     1      22.104   5.129  48.108  1.00  0.00     0.001 A 
HETATM   10  C8  UNL     1      23.106   6.016  47.776  1.00  0.00     0.001 A 
HETATM   11  C9  UNL     1      24.351   5.866  48.383  1.00  0.00     0.010 A 
HETATM   12  C10 UNL     1      24.522   4.834  49.291  1.00  0.00    -0.020 A 
HETATM   13  C11 UNL     1      25.740   4.479  50.055  1.00  0.00     0.148 A 
HETATM   14  N2  UNL     1      25.336   3.331  50.839  1.00  0.00    -0.332 N 
HETATM   15  C13 UNL     1      26.073   2.528  51.783  1.00  0.00     0.065 A 
HETATM   16  C14 UNL     1      27.368   2.576  52.260  1.00  0.00     0.122 A 
HETATM   17  N3  UNL     1      27.503   1.549  53.155  1.00  0.00    -0.350 N 
HETATM   18  C15 UNL     1      26.365   0.872  53.255  1.00  0.00     0.048 A 
HETATM   19  C16 UNL     1      25.473   1.465  52.415  1.00  0.00     0.035 A 
HETATM   20  C17 UNL     1      24.231   1.171  52.166  1.00  0.00     0.059 A 
HETATM   21  C18 UNL     1      26.460  -0.117  54.103  1.00  0.00     0.030 A 
HETATM   22  C19 UNL     1      27.622  -0.508  54.886  1.00  0.00    -0.000 A 
HETATM   23  C20 UNL     1      28.713   0.223  54.723  1.00  0.00    -0.007 A 
HETATM   24  C21 UNL     1      28.783   1.379  53.805  1.00  0.00     0.156 A 
HETATM   25  H1  UNL     1      21.132  -0.208  52.102  1.00  0.00     0.165 HD
ENDROOT
BRANCH  13  26
HETATM   26  C12 UNL     1      26.840   4.125  49.045  1.00  0.00     0.194 C 
BRANCH  26  27
HETATM   27  O3  UNL     1      28.021   4.816  49.367  1.00  0.00    -0.398 OA
HETATM   28  H11 UNL     1      28.673   4.170  49.776  1.00  0.00     0.209 HD
ENDBRANCH  26  27
ENDBRANCH  13  26
BRANCH   4  29
HETATM   29  O2  UNL     1      21.798   0.837  49.852  1.00  0.00    -0.372 OA
HETATM   30  H3  UNL     1      20.905   0.408  49.896  1.00  0.00     0.212 HD
ENDBRANCH   4  29
TORSDOF 4
ENDMDL
