MODEL 1
REMARK VINA RESULT:      -9.9      0.000      0.000
REMARK  2 active torsions:
REMARK  status: ('A' for Active; 'I' for Inactive)
REMARK    1  A    between atoms: O1_1  and  C1_2 
REMARK    2  A    between atoms: C4_5  and  C5_6 
ROOT
HETATM    1  C5  UNL     1      22.002   0.019  53.049  1.00  0.00     0.026 C 
HETATM    2  C6  UNL     1      22.871  -0.967  53.392  1.00  0.00     0.003 C 
HETATM    3  C7  UNL     1      24.266  -0.737  53.179  1.00  0.00     0.034 C 
HETATM    4  C8  UNL     1      25.166  -0.763  54.384  1.00  0.00     0.042 C 
HETATM    5  C9  UNL     1      26.470  -0.265  53.774  1.00  0.00    -0.058 C 
HETATM    6  C10 UNL     1      27.225   0.393  54.683  1.00  0.00     0.007 C 
HETATM    7  C11 UNL     1      27.994   1.614  54.319  1.00  0.00    -0.001 C 
HETATM    8  C12 UNL     1      27.990   2.319  53.167  1.00  0.00     0.002 C 
HETATM    9  C13 UNL     1      26.895   2.200  52.129  1.00  0.00     0.129 C 
HETATM   10  C14 UNL     1      26.795   0.756  51.683  1.00  0.00     0.003 C 
HETATM   11  C15 UNL     1      26.868  -0.430  52.342  1.00  0.00     0.005 C 
HETATM   12  N1  UNL     1      25.689   2.626  52.778  1.00  0.00    -0.364 N 
HETATM   13  C16 UNL     1      24.360   2.880  52.352  1.00  0.00     0.146 A 
HETATM   14  N2  UNL     1      24.482   3.652  51.307  1.00  0.00    -0.225 NA
HETATM   15  C17 UNL     1      23.190   3.964  50.805  1.00  0.00     0.232 A 
HETATM   16  N3  UNL     1      22.324   3.383  51.545  1.00  0.00    -0.249 NA
HETATM   17  C18 UNL     1      22.957   2.621  52.623  1.00  0.00     0.277 A 
HETATM   18  N4  UNL     1      22.496   1.260  52.495  1.00  0.00    -0.361 N 
HETATM   19  H15 UNL     1      25.629   2.835  53.811  1.00  0.00     0.162 HD
HETATM   20  H18 UNL     1      22.434   0.812  51.553  1.00  0.00     0.162 HD
ENDROOT
BRANCH   1  21
HETATM   21  C4  UNL     1      20.612  -0.332  53.312  1.00  0.00     0.040 C 
HETATM   22  C3  UNL     1      19.408  -0.342  52.784  1.00  0.00    -0.032 A 
HETATM   23  C2  UNL     1      18.103  -0.764  53.266  1.00  0.00     0.043 A 
HETATM   24  C19 UNL     1      19.424   0.184  51.433  1.00  0.00     0.008 A 
HETATM   25  C1  UNL     1      17.095  -0.633  52.460  1.00  0.00     0.047 A 
HETATM   26  C21 UNL     1      17.025  -0.112  51.085  1.00  0.00     0.091 A 
HETATM   27  C20 UNL     1      18.374   0.299  50.650  1.00  0.00    -0.019 A 
BRANCH  25  28
HETATM   28  O1  UNL     1      15.948  -1.083  53.091  1.00  0.00    -0.365 OA
HETATM   29  H1  UNL     1      15.711  -2.066  53.053  1.00  0.00     0.217 HD
ENDBRANCH  25  28
ENDBRANCH   1  21
TORSDOF 2
ENDMDL
MODEL 2
REMARK VINA RESULT:      -9.8      4.043      7.448
REMARK  2 active torsions:
REMARK  status: ('A' for Active; 'I' for Inactive)
REMARK    1  A    between atoms: O1_1  and  C1_2 
REMARK    2  A    between atoms: C4_5  and  C5_6 
ROOT
HETATM    1  C5  UNL     1      25.425   1.378  51.959  1.00  0.00     0.026 C 
HETATM    2  C6  UNL     1      24.355   1.601  52.765  1.00  0.00     0.003 C 
HETATM    3  C7  UNL     1      23.637   2.827  52.605  1.00  0.00     0.034 C 
HETATM    4  C8  UNL     1      22.186   2.739  52.217  1.00  0.00     0.042 C 
HETATM    5  C9  UNL     1      21.878   4.204  51.939  1.00  0.00    -0.058 C 
HETATM    6  C10 UNL     1      20.907   4.339  51.007  1.00  0.00     0.007 C 
HETATM    7  C11 UNL     1      20.966   5.405  49.971  1.00  0.00    -0.001 C 
HETATM    8  C12 UNL     1      21.959   6.276  49.691  1.00  0.00     0.002 C 
HETATM    9  C13 UNL     1      23.384   6.084  50.162  1.00  0.00     0.129 C 
HETATM   10  C14 UNL     1      23.393   5.979  51.673  1.00  0.00     0.003 C 
HETATM   11  C15 UNL     1      22.577   5.365  52.569  1.00  0.00     0.005 C 
HETATM   12  N1  UNL     1      23.837   4.866  49.556  1.00  0.00    -0.364 N 
HETATM   13  C16 UNL     1      25.084   4.194  49.473  1.00  0.00     0.146 A 
HETATM   14  N2  UNL     1      25.936   5.107  49.093  1.00  0.00    -0.225 NA
HETATM   15  C17 UNL     1      27.226   4.523  48.981  1.00  0.00     0.232 A 
HETATM   16  N3  UNL     1      27.132   3.285  49.289  1.00  0.00    -0.249 NA
HETATM   17  C18 UNL     1      25.759   2.919  49.640  1.00  0.00     0.277 A 
HETATM   18  N4  UNL     1      25.806   2.362  50.970  1.00  0.00    -0.361 N 
HETATM   19  H15 UNL     1      23.205   4.217  49.013  1.00  0.00     0.162 HD
HETATM   20  H18 UNL     1      26.393   2.811  51.708  1.00  0.00     0.162 HD
ENDROOT
BRANCH   1  21
HETATM   21  C4  UNL     1      26.073   0.098  52.217  1.00  0.00     0.040 C 
HETATM   22  C3  UNL     1      27.175  -0.454  52.674  1.00  0.00    -0.032 A 
HETATM   23  C2  UNL     1      27.615  -1.830  52.843  1.00  0.00     0.043 A 
HETATM   24  C19 UNL     1      28.131   0.553  53.092  1.00  0.00     0.008 A 
HETATM   25  C1  UNL     1      28.796  -2.025  53.341  1.00  0.00     0.047 A 
HETATM   26  C21 UNL     1      29.821  -1.068  53.786  1.00  0.00     0.091 A 
HETATM   27  C20 UNL     1      29.322   0.308  53.593  1.00  0.00    -0.019 A 
BRANCH  25  28
HETATM   28  O1  UNL     1      29.035  -3.386  53.424  1.00  0.00    -0.365 OA
HETATM   29  H1  UNL     1      28.479  -3.952  54.052  1.00  0.00     0.217 HD
ENDBRANCH  25  28
ENDBRANCH   1  21
TORSDOF 2
ENDMDL
MODEL 3
REMARK VINA RESULT:      -9.5      3.489      7.758
REMARK  2 active torsions:
REMARK  status: ('A' for Active; 'I' for Inactive)
REMARK    1  A    between atoms: O1_1  and  C1_2 
REMARK    2  A    between atoms: C4_5  and  C5_6 
ROOT
HETATM    1  C5  UNL     1      24.563   0.928  52.337  1.00  0.00     0.026 C 
HETATM    2  C6  UNL     1      24.409   1.731  51.252  1.00  0.00     0.003 C 
HETATM    3  C7  UNL     1      23.088   1.928  50.743  1.00  0.00     0.034 C 
HETATM    4  C8  UNL     1      22.547   3.332  50.734  1.00  0.00     0.042 C 
HETATM    5  C9  UNL     1      21.097   3.074  50.350  1.00  0.00    -0.058 C 
HETATM    6  C10 UNL     1      20.271   4.012  50.867  1.00  0.00     0.007 C 
HETATM    7  C11 UNL     1      18.929   3.658  51.404  1.00  0.00    -0.001 C 
HETATM    8  C12 UNL     1      18.374   2.441  51.590  1.00  0.00     0.002 C 
HETATM    9  C13 UNL     1      19.179   1.161  51.624  1.00  0.00     0.129 C 
HETATM   10  C14 UNL     1      19.945   1.027  50.325  1.00  0.00     0.003 C 
HETATM   11  C15 UNL     1      20.613   1.913  49.541  1.00  0.00     0.005 C 
HETATM   12  N1  UNL     1      20.072   1.287  52.740  1.00  0.00    -0.364 N 
HETATM   13  C16 UNL     1      20.979   0.417  53.398  1.00  0.00     0.146 A 
HETATM   14  N2  UNL     1      20.300  -0.675  53.620  1.00  0.00    -0.225 NA
HETATM   15  C17 UNL     1      21.134  -1.615  54.283  1.00  0.00     0.232 A 
HETATM   16  N3  UNL     1      22.285  -1.081  54.448  1.00  0.00    -0.249 NA
HETATM   17  C18 UNL     1      22.333   0.278  53.907  1.00  0.00     0.277 A 
HETATM   18  N4  UNL     1      23.409   0.306  52.947  1.00  0.00    -0.361 N 
HETATM   19  H15 UNL     1      20.183   2.178  53.296  1.00  0.00     0.162 HD
HETATM   20  H18 UNL     1      23.540  -0.487  52.281  1.00  0.00     0.162 HD
ENDROOT
BRANCH   1  21
HETATM   21  C4  UNL     1      25.952   0.805  52.760  1.00  0.00     0.040 C 
HETATM   22  C3  UNL     1      26.940  -0.050  52.904  1.00  0.00    -0.032 A 
HETATM   23  C2  UNL     1      28.312   0.068  53.372  1.00  0.00     0.043 A 
HETATM   24  C19 UNL     1      26.541  -1.384  52.499  1.00  0.00     0.008 A 
HETATM   25  C1  UNL     1      29.037  -1.007  53.383  1.00  0.00     0.047 A 
HETATM   26  C21 UNL     1      28.712  -2.389  52.992  1.00  0.00     0.091 A 
HETATM   27  C20 UNL     1      27.312  -2.449  52.527  1.00  0.00    -0.019 A 
BRANCH  25  28
HETATM   28  O1  UNL     1      30.300  -0.699  53.856  1.00  0.00    -0.365 OA
HETATM   29  H1  UNL     1      30.620   0.262  53.833  1.00  0.00     0.217 HD
ENDBRANCH  25  28
ENDBRANCH   1  21
TORSDOF 2
ENDMDL
MODEL 4
REMARK VINA RESULT:      -9.2      4.036      7.730
REMARK  2 active torsions:
REMARK  status: ('A' for Active; 'I' for Inactive)
REMARK    1  A    between atoms: O1_1  and  C1_2 
REMARK    2  A    between atoms: C4_5  and  C5_6 
ROOT
HETATM    1  C5  UNL     1      24.262   3.873  50.900  1.00  0.00     0.026 C 
HETATM    2  C6  UNL     1      22.913   3.822  50.745  1.00  0.00     0.003 C 
HETATM    3  C7  UNL     1      22.231   2.642  51.177  1.00  0.00     0.034 C 
HETATM    4  C8  UNL     1      21.197   2.793  52.259  1.00  0.00     0.042 C 
HETATM    5  C9  UNL     1      20.896   1.332  52.568  1.00  0.00    -0.058 C 
HETATM    6  C10 UNL     1      20.518   1.164  53.856  1.00  0.00     0.007 C 
HETATM    7  C11 UNL     1      20.962  -0.013  54.650  1.00  0.00    -0.001 C 
HETATM    8  C12 UNL     1      21.847  -0.982  54.328  1.00  0.00     0.002 C 
HETATM    9  C13 UNL     1      22.852  -0.843  53.205  1.00  0.00     0.129 C 
HETATM   10  C14 UNL     1      22.111  -0.569  51.913  1.00  0.00     0.003 C 
HETATM   11  C15 UNL     1      21.036   0.201  51.601  1.00  0.00     0.005 C 
HETATM   12  N1  UNL     1      23.692   0.262  53.565  1.00  0.00    -0.364 N 
HETATM   13  C16 UNL     1      24.882   0.827  53.036  1.00  0.00     0.146 A 
HETATM   14  N2  UNL     1      25.692  -0.184  52.870  1.00  0.00    -0.225 NA
HETATM   15  C17 UNL     1      26.922   0.287  52.339  1.00  0.00     0.232 A 
HETATM   16  N3  UNL     1      26.836   1.555  52.197  1.00  0.00    -0.249 NA
HETATM   17  C18 UNL     1      25.529   2.060  52.623  1.00  0.00     0.277 A 
HETATM   18  N4  UNL     1      24.966   2.758  51.493  1.00  0.00    -0.361 N 
HETATM   19  H15 UNL     1      23.503   0.890  54.392  1.00  0.00     0.162 HD
HETATM   20  H18 UNL     1      25.043   2.354  50.533  1.00  0.00     0.162 HD
ENDROOT
BRANCH   1  21
HETATM   21  C4  UNL     1      24.841   5.122  50.423  1.00  0.00     0.040 C 
HETATM   22  C3  UNL     1      25.841   5.628  49.736  1.00  0.00    -0.032 A 
HETATM   23  C2  UNL     1      26.230   6.982  49.374  1.00  0.00     0.043 A 
HETATM   24  C19 UNL     1      26.722   4.584  49.248  1.00  0.00     0.008 A 
HETATM   25  C1  UNL     1      27.306   7.127  48.664  1.00  0.00     0.047 A 
HETATM   26  C21 UNL     1      28.249   6.130  48.133  1.00  0.00     0.091 A 
HETATM   27  C20 UNL     1      27.806   4.779  48.530  1.00  0.00    -0.019 A 
BRANCH  25  28
HETATM   28  O1  UNL     1      27.511   8.474  48.422  1.00  0.00    -0.365 OA
HETATM   29  H1  UNL     1      26.896   8.967  47.786  1.00  0.00     0.217 HD
ENDBRANCH  25  28
ENDBRANCH   1  21
TORSDOF 2
ENDMDL
MODEL 5
REMARK VINA RESULT:      -9.1      3.846      7.750
REMARK  2 active torsions:
REMARK  status: ('A' for Active; 'I' for Inactive)
REMARK    1  A    between atoms: O1_1  and  C1_2 
REMARK    2  A    between atoms: C4_5  and  C5_6 
ROOT
HETATM    1  C5  UNL     1      25.250   2.443  50.997  1.00  0.00     0.026 C 
HETATM    2  C6  UNL     1      25.937   3.114  50.037  1.00  0.00     0.003 C 
HETATM    3  C7  UNL     1      25.303   4.236  49.417  1.00  0.00     0.034 C 
HETATM    4  C8  UNL     1      25.968   5.578  49.561  1.00  0.00     0.042 C 
HETATM    5  C9  UNL     1      24.895   6.489  48.980  1.00  0.00    -0.058 C 
HETATM    6  C10 UNL     1      24.934   7.721  49.537  1.00  0.00     0.007 C 
HETATM    7  C11 UNL     1      23.689   8.470  49.859  1.00  0.00    -0.001 C 
HETATM    8  C12 UNL     1      22.403   8.065  49.794  1.00  0.00     0.002 C 
HETATM    9  C13 UNL     1      21.998   6.608  49.724  1.00  0.00     0.129 C 
HETATM   10  C14 UNL     1      22.651   5.974  48.514  1.00  0.00     0.003 C 
HETATM   11  C15 UNL     1      23.884   6.085  47.955  1.00  0.00     0.005 C 
HETATM   12  N1  UNL     1      22.469   6.011  50.940  1.00  0.00    -0.364 N 
HETATM   13  C16 UNL     1      22.312   4.742  51.557  1.00  0.00     0.146 A 
HETATM   14  N2  UNL     1      21.028   4.510  51.532  1.00  0.00    -0.225 NA
HETATM   15  C17 UNL     1      20.771   3.250  52.135  1.00  0.00     0.232 A 
HETATM   16  N3  UNL     1      21.887   2.751  52.508  1.00  0.00    -0.249 NA
HETATM   17  C18 UNL     1      23.009   3.635  52.189  1.00  0.00     0.277 A 
HETATM   18  N4  UNL     1      23.921   2.872  51.372  1.00  0.00    -0.361 N 
HETATM   19  H15 UNL     1      23.085   6.515  51.634  1.00  0.00     0.162 HD
HETATM   20  H18 UNL     1      23.556   2.256  50.612  1.00  0.00     0.162 HD
ENDROOT
BRANCH   1  21
HETATM   21  C4  UNL     1      25.998   1.322  51.552  1.00  0.00     0.040 C 
HETATM   22  C3  UNL     1      27.004   1.011  52.338  1.00  0.00    -0.032 A 
HETATM   23  C2  UNL     1      27.596  -0.248  52.764  1.00  0.00     0.043 A 
HETATM   24  C19 UNL     1      27.633   2.199  52.880  1.00  0.00     0.008 A 
HETATM   25  C1  UNL     1      28.609  -0.192  53.571  1.00  0.00     0.047 A 
HETATM   26  C21 UNL     1      29.303   0.963  54.163  1.00  0.00     0.091 A 
HETATM   27  C20 UNL     1      28.663   2.209  53.698  1.00  0.00    -0.019 A 
BRANCH  25  28
HETATM   28  O1  UNL     1      29.031  -1.478  53.860  1.00  0.00    -0.365 OA
HETATM   29  H1  UNL     1      29.540  -2.005  53.162  1.00  0.00     0.217 HD
ENDBRANCH  25  28
ENDBRANCH   1  21
TORSDOF 2
ENDMDL
MODEL 6
REMARK VINA RESULT:      -9.1      4.961      8.181
REMARK  2 active torsions:
REMARK  status: ('A' for Active; 'I' for Inactive)
REMARK    1  A    between atoms: O1_1  and  C1_2 
REMARK    2  A    between atoms: C4_5  and  C5_6 
ROOT
HETATM    1  C5  UNL     1      25.767   3.254  51.082  1.00  0.00     0.026 C 
HETATM    2  C6  UNL     1      24.607   3.682  51.644  1.00  0.00     0.003 C 
HETATM    3  C7  UNL     1      24.143   4.994  51.314  1.00  0.00     0.034 C 
HETATM    4  C8  UNL     1      22.805   5.109  50.636  1.00  0.00     0.042 C 
HETATM    5  C9  UNL     1      22.800   6.587  50.270  1.00  0.00    -0.058 C 
HETATM    6  C10 UNL     1      22.070   6.820  49.155  1.00  0.00     0.007 C 
HETATM    7  C11 UNL     1      22.507   7.807  48.131  1.00  0.00    -0.001 C 
HETATM    8  C12 UNL     1      23.664   8.499  48.045  1.00  0.00     0.002 C 
HETATM    9  C13 UNL     1      24.915   8.116  48.804  1.00  0.00     0.129 C 
HETATM   10  C14 UNL     1      24.604   8.092  50.286  1.00  0.00     0.003 C 
HETATM   11  C15 UNL     1      23.537   7.660  51.007  1.00  0.00     0.005 C 
HETATM   12  N1  UNL     1      25.278   6.811  48.330  1.00  0.00    -0.364 N 
HETATM   13  C16 UNL     1      26.391   5.952  48.521  1.00  0.00     0.146 A 
HETATM   14  N2  UNL     1      27.438   6.702  48.306  1.00  0.00    -0.225 NA
HETATM   15  C17 UNL     1      28.613   5.921  48.475  1.00  0.00     0.232 A 
HETATM   16  N3  UNL     1      28.260   4.731  48.783  1.00  0.00    -0.249 NA
HETATM   17  C18 UNL     1      26.804   4.599  48.851  1.00  0.00     0.277 A 
HETATM   18  N4  UNL     1      26.492   4.114  50.173  1.00  0.00    -0.361 N 
HETATM   19  H15 UNL     1      24.671   6.240  47.682  1.00  0.00     0.162 HD
HETATM   20  H18 UNL     1      26.984   4.506  51.006  1.00  0.00     0.162 HD
ENDROOT
BRANCH   1  21
HETATM   21  C4  UNL     1      26.134   1.906  51.494  1.00  0.00     0.040 C 
HETATM   22  C3  UNL     1      26.968   1.223  52.247  1.00  0.00    -0.032 A 
HETATM   23  C2  UNL     1      27.153  -0.195  52.511  1.00  0.00     0.043 A 
HETATM   24  C19 UNL     1      27.882   2.103  52.949  1.00  0.00     0.008 A 
HETATM   25  C1  UNL     1      28.097  -0.535  53.332  1.00  0.00     0.047 A 
HETATM   26  C21 UNL     1      29.062   0.288  54.080  1.00  0.00     0.091 A 
HETATM   27  C20 UNL     1      28.828   1.714  53.775  1.00  0.00    -0.019 A 
BRANCH  25  28
HETATM   28  O1  UNL     1      28.119  -1.913  53.455  1.00  0.00    -0.365 OA
HETATM   29  H1  UNL     1      28.990  -2.381  53.672  1.00  0.00     0.217 HD
ENDBRANCH  25  28
ENDBRANCH   1  21
TORSDOF 2
ENDMDL
MODEL 7
REMARK VINA RESULT:      -8.9      3.675      8.039
REMARK  2 active torsions:
REMARK  status: ('A' for Active; 'I' for Inactive)
REMARK    1  A    between atoms: O1_1  and  C1_2 
REMARK    2  A    between atoms: C4_5  and  C5_6 
ROOT
HETATM    1  C5  UNL     1      25.309   2.476  51.413  1.00  0.00     0.026 C 
HETATM    2  C6  UNL     1      25.371   3.116  50.216  1.00  0.00     0.003 C 
HETATM    3  C7  UNL     1      24.257   2.993  49.329  1.00  0.00     0.034 C 
HETATM    4  C8  UNL     1      23.531   4.254  48.946  1.00  0.00     0.042 C 
HETATM    5  C9  UNL     1      22.328   3.676  48.211  1.00  0.00    -0.058 C 
HETATM    6  C10 UNL     1      21.246   4.480  48.319  1.00  0.00     0.007 C 
HETATM    7  C11 UNL     1      19.878   3.925  48.502  1.00  0.00    -0.001 C 
HETATM    8  C12 UNL     1      19.491   2.648  48.713  1.00  0.00     0.002 C 
HETATM    9  C13 UNL     1      20.439   1.563  49.176  1.00  0.00     0.129 C 
HETATM   10  C14 UNL     1      21.578   1.449  48.185  1.00  0.00     0.003 C 
HETATM   11  C15 UNL     1      22.307   2.364  47.494  1.00  0.00     0.005 C 
HETATM   12  N1  UNL     1      20.913   1.979  50.464  1.00  0.00    -0.364 N 
HETATM   13  C16 UNL     1      21.700   1.379  51.482  1.00  0.00     0.146 A 
HETATM   14  N2  UNL     1      21.167   0.203  51.672  1.00  0.00    -0.225 NA
HETATM   15  C17 UNL     1      21.895  -0.480  52.684  1.00  0.00     0.232 A 
HETATM   16  N3  UNL     1      22.839   0.286  53.082  1.00  0.00    -0.249 NA
HETATM   17  C18 UNL     1      22.835   1.564  52.369  1.00  0.00     0.277 A 
HETATM   18  N4  UNL     1      24.136   1.705  51.762  1.00  0.00    -0.361 N 
HETATM   19  H15 UNL     1      20.706   2.927  50.881  1.00  0.00     0.162 HD
HETATM   20  H18 UNL     1      24.589   0.888  51.294  1.00  0.00     0.162 HD
ENDROOT
BRANCH   1  21
HETATM   21  C4  UNL     1      26.501   2.676  52.226  1.00  0.00     0.040 C 
HETATM   22  C3  UNL     1      27.452   2.044  52.877  1.00  0.00    -0.032 A 
HETATM   23  C2  UNL     1      28.598   2.482  53.659  1.00  0.00     0.043 A 
HETATM   24  C19 UNL     1      27.296   0.607  52.769  1.00  0.00     0.008 A 
HETATM   25  C1  UNL     1      29.357   1.567  54.176  1.00  0.00     0.047 A 
HETATM   26  C21 UNL     1      29.269   0.099  54.116  1.00  0.00     0.091 A 
HETATM   27  C20 UNL     1      28.092  -0.288  53.312  1.00  0.00    -0.019 A 
BRANCH  25  28
HETATM   28  O1  UNL     1      30.385   2.172  54.878  1.00  0.00    -0.365 OA
HETATM   29  H1  UNL     1      31.213   1.638  55.110  1.00  0.00     0.217 HD
ENDBRANCH  25  28
ENDBRANCH   1  21
TORSDOF 2
ENDMDL
MODEL 8
REMARK VINA RESULT:      -8.8      4.367      7.548
REMARK  2 active torsions:
REMARK  status: ('A' for Active; 'I' for Inactive)
REMARK    1  A    between atoms: O1_1  and  C1_2 
REMARK    2  A    between atoms: C4_5  and  C5_6 
ROOT
HETATM    1  C5  UNL     1      26.047   3.765  50.335  1.00  0.00     0.026 C 
HETATM    2  C6  UNL     1      26.853   4.182  49.325  1.00  0.00     0.003 C 
HETATM    3  C7  UNL     1      26.510   5.394  48.648  1.00  0.00     0.034 C 
HETATM    4  C8  UNL     1      27.501   6.525  48.699  1.00  0.00     0.042 C 
HETATM    5  C9  UNL     1      26.680   7.648  48.079  1.00  0.00    -0.058 C 
HETATM    6  C10 UNL     1      27.051   8.857  48.560  1.00  0.00     0.007 C 
HETATM    7  C11 UNL     1      26.049   9.918  48.853  1.00  0.00    -0.001 C 
HETATM    8  C12 UNL     1      24.701   9.855  48.832  1.00  0.00     0.002 C 
HETATM    9  C13 UNL     1      23.934   8.550  48.858  1.00  0.00     0.129 C 
HETATM   10  C14 UNL     1      24.366   7.703  47.679  1.00  0.00     0.003 C 
HETATM   11  C15 UNL     1      25.569   7.462  47.096  1.00  0.00     0.005 C 
HETATM   12  N1  UNL     1      24.273   7.919  50.101  1.00  0.00    -0.364 N 
HETATM   13  C16 UNL     1      23.815   6.770  50.796  1.00  0.00     0.146 A 
HETATM   14  N2  UNL     1      22.513   6.876  50.805  1.00  0.00    -0.225 NA
HETATM   15  C17 UNL     1      21.960   5.759  51.487  1.00  0.00     0.232 A 
HETATM   16  N3  UNL     1      22.922   5.011  51.873  1.00  0.00    -0.249 NA
HETATM   17  C18 UNL     1      24.223   5.558  51.484  1.00  0.00     0.277 A 
HETATM   18  N4  UNL     1      24.884   4.542  50.702  1.00  0.00    -0.361 N 
HETATM   19  H15 UNL     1      25.018   8.285  50.753  1.00  0.00     0.162 HD
HETATM   20  H18 UNL     1      24.350   3.999  49.987  1.00  0.00     0.162 HD
ENDROOT
BRANCH   1  21
HETATM   21  C4  UNL     1      26.499   2.522  50.946  1.00  0.00     0.040 C 
HETATM   22  C3  UNL     1      26.110   1.505  51.683  1.00  0.00    -0.032 A 
HETATM   23  C2  UNL     1      26.778   0.318  52.192  1.00  0.00     0.043 A 
HETATM   24  C19 UNL     1      24.711   1.625  52.044  1.00  0.00     0.008 A 
HETATM   25  C1  UNL     1      26.077  -0.506  52.907  1.00  0.00     0.047 A 
HETATM   26  C21 UNL     1      24.664  -0.458  53.318  1.00  0.00     0.091 A 
HETATM   27  C20 UNL     1      24.038   0.763  52.774  1.00  0.00    -0.019 A 
BRANCH  25  28
HETATM   28  O1  UNL     1      26.878  -1.564  53.298  1.00  0.00    -0.365 OA
HETATM   29  H1  UNL     1      26.513  -2.254  53.943  1.00  0.00     0.217 HD
ENDBRANCH  25  28
ENDBRANCH   1  21
TORSDOF 2
ENDMDL
MODEL 9
REMARK VINA RESULT:      -8.8      3.660      7.579
REMARK  2 active torsions:
REMARK  status: ('A' for Active; 'I' for Inactive)
REMARK    1  A    between atoms: O1_1  and  C1_2 
REMARK    2  A    between atoms: C4_5  and  C5_6 
ROOT
HETATM    1  C5  UNL     1      25.814   2.030  51.564  1.00  0.00     0.026 C 
HETATM    2  C6  UNL     1      26.117   2.770  50.467  1.00  0.00     0.003 C 
HETATM    3  C7  UNL     1      25.041   3.381  49.750  1.00  0.00     0.034 C 
HETATM    4  C8  UNL     1      25.036   4.882  49.650  1.00  0.00     0.042 C 
HETATM    5  C9  UNL     1      23.662   5.121  49.037  1.00  0.00    -0.058 C 
HETATM    6  C10 UNL     1      23.151   6.315  49.411  1.00  0.00     0.007 C 
HETATM    7  C11 UNL     1      21.705   6.479  49.725  1.00  0.00    -0.001 C 
HETATM    8  C12 UNL     1      20.737   5.543  49.823  1.00  0.00     0.002 C 
HETATM    9  C13 UNL     1      21.027   4.068  49.990  1.00  0.00     0.129 C 
HETATM   10  C14 UNL     1      21.883   3.600  48.832  1.00  0.00     0.003 C 
HETATM   11  C15 UNL     1      22.929   4.152  48.164  1.00  0.00     0.005 C 
HETATM   12  N1  UNL     1      21.728   3.944  51.235  1.00  0.00    -0.364 N 
HETATM   13  C16 UNL     1      22.163   2.854  52.034  1.00  0.00     0.146 A 
HETATM   14  N2  UNL     1      21.119   2.079  52.146  1.00  0.00    -0.225 NA
HETATM   15  C17 UNL     1      21.460   0.950  52.937  1.00  0.00     0.232 A 
HETATM   16  N3  UNL     1      22.686   1.062  53.285  1.00  0.00    -0.249 NA
HETATM   17  C18 UNL     1      23.288   2.286  52.755  1.00  0.00     0.277 A 
HETATM   18  N4  UNL     1      24.437   1.883  51.982  1.00  0.00    -0.361 N 
HETATM   19  H15 UNL     1      22.060   4.772  51.799  1.00  0.00     0.162 HD
HETATM   20  H18 UNL     1      24.380   1.055  51.347  1.00  0.00     0.162 HD
ENDROOT
BRANCH   1  21
HETATM   21  C4  UNL     1      26.990   1.460  52.207  1.00  0.00     0.040 C 
HETATM   22  C3  UNL     1      27.555   0.326  52.561  1.00  0.00    -0.032 A 
HETATM   23  C2  UNL     1      28.803  -0.010  53.229  1.00  0.00     0.043 A 
HETATM   24  C19 UNL     1      26.732  -0.808  52.190  1.00  0.00     0.008 A 
HETATM   25  C1  UNL     1      29.058  -1.266  53.426  1.00  0.00     0.047 A 
HETATM   26  C21 UNL     1      28.282  -2.469  53.084  1.00  0.00     0.091 A 
HETATM   27  C20 UNL     1      27.031  -2.069  52.411  1.00  0.00    -0.019 A 
BRANCH  25  28
HETATM   28  O1  UNL     1      30.278  -1.386  54.069  1.00  0.00    -0.365 OA
HETATM   29  H1  UNL     1      31.123  -1.483  53.520  1.00  0.00     0.217 HD
ENDBRANCH  25  28
ENDBRANCH   1  21
TORSDOF 2
ENDMDL
