MODEL 1
REMARK VINA RESULT:      -8.7      0.000      0.000
REMARK  3 active torsions:
REMARK  status: ('A' for Active; 'I' for Inactive)
REMARK    1  A    between atoms: O1_2  and  C2_3 
REMARK    2  A    between atoms: C7_10  and  N3_11 
REMARK    3  A    between atoms: N3_11  and  C8_12 
ROOT
HETATM    1  C2  UNL     1      26.954   1.154  52.508  1.00  0.00     0.074 C 
HETATM    2  C3  UNL     1      26.196   1.990  51.816  1.00  0.00     0.054 C 
HETATM    3  C4  UNL     1      24.771   1.838  51.542  1.00  0.00     0.037 A 
HETATM    4  C5  UNL     1      23.860   1.006  52.159  1.00  0.00     0.053 A 
HETATM    5  N1  UNL     1      22.572   0.982  51.787  1.00  0.00    -0.245 NA
HETATM    6  C6  UNL     1      22.143   1.784  50.790  1.00  0.00     0.235 A 
HETATM    7  N2  UNL     1      23.018   2.604  50.175  1.00  0.00    -0.224 NA
HETATM    8  C7  UNL     1      24.304   2.658  50.514  1.00  0.00     0.141 A 
HETATM    9  C16 UNL     1      24.000   0.028  53.257  1.00  0.00     0.088 C 
HETATM   10  C17 UNL     1      25.352  -0.504  53.438  1.00  0.00    -0.011 C 
HETATM   11  C18 UNL     1      26.579  -0.097  53.157  1.00  0.00    -0.032 C 
HETATM   12  C19 UNL     1      27.762  -0.930  53.499  1.00  0.00     0.050 C 
ENDROOT
BRANCH   8  13
HETATM   13  N3  UNL     1      25.210   3.534  49.851  1.00  0.00    -0.350 N 
HETATM   14  H6  UNL     1      26.198   3.343  49.563  1.00  0.00     0.166 HD
BRANCH  13  15
HETATM   15  C8  UNL     1      25.163   4.887  49.355  1.00  0.00     0.097 C 
HETATM   16  C9  UNL     1      26.229   5.493  48.852  1.00  0.00    -0.039 A 
HETATM   17  C10 UNL     1      26.239   6.855  48.338  1.00  0.00     0.009 A 
HETATM   18  C15 UNL     1      27.500   4.709  48.819  1.00  0.00     0.067 A 
HETATM   19  C11 UNL     1      27.301   7.444  47.842  1.00  0.00     0.007 A 
HETATM   20  C12 UNL     1      28.567   6.745  47.778  1.00  0.00    -0.066 A 
HETATM   21  C13 UNL     1      29.799   7.370  47.225  1.00  0.00     0.048 C 
HETATM   22  C14 UNL     1      28.607   5.509  48.233  1.00  0.00    -0.015 A 
ENDBRANCH  13  15
ENDBRANCH   8  13
BRANCH   1  23
HETATM   23  O1  UNL     1      28.262   1.626  52.562  1.00  0.00    -0.355 OA
HETATM   24  C1  UNL     1      28.699   2.504  53.588  1.00  0.00     0.210 C 
ENDBRANCH   1  23
TORSDOF 3
ENDMDL
MODEL 2
REMARK VINA RESULT:      -8.6      2.615      4.475
REMARK  3 active torsions:
REMARK  status: ('A' for Active; 'I' for Inactive)
REMARK    1  A    between atoms: O1_2  and  C2_3 
REMARK    2  A    between atoms: C7_10  and  N3_11 
REMARK    3  A    between atoms: N3_11  and  C8_12 
ROOT
HETATM    1  C2  UNL     1      22.378   0.021  52.815  1.00  0.00     0.074 C 
HETATM    2  C3  UNL     1      23.617   0.332  52.469  1.00  0.00     0.054 C 
HETATM    3  C4  UNL     1      24.803   0.216  53.311  1.00  0.00     0.037 A 
HETATM    4  C5  UNL     1      24.960  -0.493  54.483  1.00  0.00     0.053 A 
HETATM    5  N1  UNL     1      26.126  -0.498  55.146  1.00  0.00    -0.245 NA
HETATM    6  C6  UNL     1      27.176   0.200  54.667  1.00  0.00     0.235 A 
HETATM    7  N2  UNL     1      27.042   0.899  53.522  1.00  0.00    -0.224 NA
HETATM    8  C7  UNL     1      25.903   0.930  52.835  1.00  0.00     0.141 A 
HETATM    9  C16 UNL     1      24.030  -1.340  55.258  1.00  0.00     0.088 C 
HETATM   10  C17 UNL     1      22.611  -1.049  55.047  1.00  0.00    -0.011 C 
HETATM   11  C18 UNL     1      21.886  -0.502  54.085  1.00  0.00    -0.032 C 
HETATM   12  C19 UNL     1      20.412  -0.364  54.218  1.00  0.00     0.050 C 
ENDROOT
BRANCH   8  13
HETATM   13  N3  UNL     1      25.786   1.675  51.627  1.00  0.00    -0.350 N 
HETATM   14  H6  UNL     1      24.941   1.788  51.020  1.00  0.00     0.166 HD
BRANCH  13  15
HETATM   15  C8  UNL     1      26.666   2.487  50.824  1.00  0.00     0.097 C 
HETATM   16  C9  UNL     1      26.236   3.550  50.158  1.00  0.00    -0.039 A 
HETATM   17  C10 UNL     1      27.079   4.404  49.334  1.00  0.00     0.009 A 
HETATM   18  C15 UNL     1      24.783   3.878  50.274  1.00  0.00     0.067 A 
HETATM   19  C11 UNL     1      26.641   5.455  48.680  1.00  0.00     0.007 A 
HETATM   20  C12 UNL     1      25.246   5.833  48.747  1.00  0.00    -0.066 A 
HETATM   21  C13 UNL     1      24.702   7.014  48.024  1.00  0.00     0.048 C 
HETATM   22  C14 UNL     1      24.444   5.088  49.481  1.00  0.00    -0.015 A 
ENDBRANCH  13  15
ENDBRANCH   8  13
BRANCH   1  23
HETATM   23  O1  UNL     1      21.508   0.262  51.755  1.00  0.00    -0.355 OA
HETATM   24  C1  UNL     1      21.869   1.098  50.667  1.00  0.00     0.210 C 
ENDBRANCH   1  23
TORSDOF 3
ENDMDL
MODEL 3
REMARK VINA RESULT:      -8.6      4.615      6.857
REMARK  3 active torsions:
REMARK  status: ('A' for Active; 'I' for Inactive)
REMARK    1  A    between atoms: O1_2  and  C2_3 
REMARK    2  A    between atoms: C7_10  and  N3_11 
REMARK    3  A    between atoms: N3_11  and  C8_12 
ROOT
HETATM    1  C2  UNL     1      20.221   0.627  51.149  1.00  0.00     0.074 C 
HETATM    2  C3  UNL     1      21.420   0.362  51.641  1.00  0.00     0.054 C 
HETATM    3  C4  UNL     1      21.706  -0.311  52.903  1.00  0.00     0.037 A 
HETATM    4  C5  UNL     1      20.859  -1.065  53.688  1.00  0.00     0.053 A 
HETATM    5  N1  UNL     1      21.278  -1.623  54.833  1.00  0.00    -0.245 NA
HETATM    6  C6  UNL     1      22.553  -1.452  55.239  1.00  0.00     0.235 A 
HETATM    7  N2  UNL     1      23.397  -0.718  54.486  1.00  0.00    -0.224 NA
HETATM    8  C7  UNL     1      23.020  -0.149  53.344  1.00  0.00     0.141 A 
HETATM    9  C16 UNL     1      19.437  -1.437  53.533  1.00  0.00     0.088 C 
HETATM   10  C17 UNL     1      18.652  -0.530  52.694  1.00  0.00    -0.011 C 
HETATM   11  C18 UNL     1      18.912   0.326  51.718  1.00  0.00    -0.032 C 
HETATM   12  C19 UNL     1      17.824   1.107  51.072  1.00  0.00     0.050 C 
ENDROOT
BRANCH   8  13
HETATM   13  N3  UNL     1      23.930   0.621  52.564  1.00  0.00    -0.350 N 
HETATM   14  H6  UNL     1      23.958   0.725  51.523  1.00  0.00     0.166 HD
BRANCH  13  15
HETATM   15  C8  UNL     1      25.059   1.476  52.836  1.00  0.00     0.097 C 
HETATM   16  C9  UNL     1      26.281   0.998  53.018  1.00  0.00    -0.039 A 
HETATM   17  C10 UNL     1      27.454   1.814  53.295  1.00  0.00     0.009 A 
HETATM   18  C15 UNL     1      26.447  -0.484  52.931  1.00  0.00     0.067 A 
HETATM   19  C11 UNL     1      28.661   1.328  53.473  1.00  0.00     0.007 A 
HETATM   20  C12 UNL     1      28.896  -0.098  53.402  1.00  0.00    -0.066 A 
HETATM   21  C13 UNL     1      30.244  -0.697  53.597  1.00  0.00     0.048 C 
HETATM   22  C14 UNL     1      27.862  -0.878  53.154  1.00  0.00    -0.015 A 
ENDBRANCH  13  15
ENDBRANCH   8  13
BRANCH   1  23
HETATM   23  O1  UNL     1      20.337   1.279  49.925  1.00  0.00    -0.355 OA
HETATM   24  C1  UNL     1      21.369   0.963  49.004  1.00  0.00     0.210 C 
ENDBRANCH   1  23
TORSDOF 3
ENDMDL
MODEL 4
REMARK VINA RESULT:      -8.5      2.279      3.767
REMARK  3 active torsions:
REMARK  status: ('A' for Active; 'I' for Inactive)
REMARK    1  A    between atoms: O1_2  and  C2_3 
REMARK    2  A    between atoms: C7_10  and  N3_11 
REMARK    3  A    between atoms: N3_11  and  C8_12 
ROOT
HETATM    1  C2  UNL     1      22.313   0.357  52.594  1.00  0.00     0.074 C 
HETATM    2  C3  UNL     1      23.351   0.917  51.994  1.00  0.00     0.054 C 
HETATM    3  C4  UNL     1      24.721   0.954  52.494  1.00  0.00     0.037 A 
HETATM    4  C5  UNL     1      25.293   0.194  53.493  1.00  0.00     0.053 A 
HETATM    5  N1  UNL     1      26.579   0.349  53.841  1.00  0.00    -0.245 NA
HETATM    6  C6  UNL     1      27.342   1.265  53.208  1.00  0.00     0.235 A 
HETATM    7  N2  UNL     1      26.801   2.018  52.229  1.00  0.00    -0.224 NA
HETATM    8  C7  UNL     1      25.530   1.894  51.855  1.00  0.00     0.141 A 
HETATM    9  C16 UNL     1      24.747  -0.870  54.361  1.00  0.00     0.088 C 
HETATM   10  C17 UNL     1      23.295  -0.828  54.546  1.00  0.00    -0.011 C 
HETATM   11  C18 UNL     1      22.265  -0.348  53.870  1.00  0.00    -0.032 C 
HETATM   12  C19 UNL     1      20.876  -0.494  54.380  1.00  0.00     0.050 C 
ENDROOT
BRANCH   8  13
HETATM   13  N3  UNL     1      24.981   2.699  50.816  1.00  0.00    -0.350 N 
HETATM   14  H6  UNL     1      24.521   2.383  49.931  1.00  0.00     0.166 HD
BRANCH  13  15
HETATM   15  C8  UNL     1      24.841   4.113  50.569  1.00  0.00     0.097 C 
HETATM   16  C9  UNL     1      25.727   4.798  49.861  1.00  0.00    -0.039 A 
HETATM   17  C10 UNL     1      25.635   6.224  49.581  1.00  0.00     0.009 A 
HETATM   18  C15 UNL     1      26.896   4.039  49.323  1.00  0.00     0.067 A 
HETATM   19  C11 UNL     1      26.519   6.892  48.878  1.00  0.00     0.007 A 
HETATM   20  C12 UNL     1      27.676   6.221  48.324  1.00  0.00    -0.066 A 
HETATM   21  C13 UNL     1      28.706   6.934  47.522  1.00  0.00     0.048 C 
HETATM   22  C14 UNL     1      27.803   4.929  48.553  1.00  0.00    -0.015 A 
ENDBRANCH  13  15
ENDBRANCH   8  13
BRANCH   1  23
HETATM   23  O1  UNL     1      21.167   0.519  51.820  1.00  0.00    -0.355 OA
HETATM   24  C1  UNL     1      21.227   0.626  50.407  1.00  0.00     0.210 C 
ENDBRANCH   1  23
TORSDOF 3
ENDMDL
MODEL 5
REMARK VINA RESULT:      -8.3      4.242      6.329
REMARK  3 active torsions:
REMARK  status: ('A' for Active; 'I' for Inactive)
REMARK    1  A    between atoms: O1_2  and  C2_3 
REMARK    2  A    between atoms: C7_10  and  N3_11 
REMARK    3  A    between atoms: N3_11  and  C8_12 
ROOT
HETATM    1  C2  UNL     1      20.587  -0.231  53.378  1.00  0.00     0.074 C 
HETATM    2  C3  UNL     1      21.587   0.456  52.849  1.00  0.00     0.054 C 
HETATM    3  C4  UNL     1      21.599   1.091  51.535  1.00  0.00     0.037 A 
HETATM    4  C5  UNL     1      20.533   1.380  50.710  1.00  0.00     0.053 A 
HETATM    5  N1  UNL     1      20.710   1.971  49.520  1.00  0.00    -0.245 NA
HETATM    6  C6  UNL     1      21.953   2.296  49.108  1.00  0.00     0.235 A 
HETATM    7  N2  UNL     1      23.009   2.022  49.900  1.00  0.00    -0.224 NA
HETATM    8  C7  UNL     1      22.875   1.436  51.088  1.00  0.00     0.141 A 
HETATM    9  C16 UNL     1      19.079   1.160  50.859  1.00  0.00     0.088 C 
HETATM   10  C17 UNL     1      18.711   0.080  51.776  1.00  0.00    -0.011 C 
HETATM   11  C18 UNL     1      19.277  -0.524  52.809  1.00  0.00    -0.032 C 
HETATM   12  C19 UNL     1      18.584  -1.625  53.529  1.00  0.00     0.050 C 
ENDROOT
BRANCH   8  13
HETATM   13  N3  UNL     1      24.004   1.158  51.909  1.00  0.00    -0.350 N 
HETATM   14  H6  UNL     1      24.207   0.286  52.452  1.00  0.00     0.166 HD
BRANCH  13  15
HETATM   15  C8  UNL     1      25.200   1.864  52.297  1.00  0.00     0.097 C 
HETATM   16  C9  UNL     1      26.316   1.234  52.633  1.00  0.00    -0.039 A 
HETATM   17  C10 UNL     1      27.549   1.896  53.032  1.00  0.00     0.009 A 
HETATM   18  C15 UNL     1      26.287  -0.259  52.597  1.00  0.00     0.067 A 
HETATM   19  C11 UNL     1      28.649   1.260  53.363  1.00  0.00     0.007 A 
HETATM   20  C12 UNL     1      28.694  -0.186  53.349  1.00  0.00    -0.066 A 
HETATM   21  C13 UNL     1      29.916  -0.952  53.716  1.00  0.00     0.048 C 
HETATM   22  C14 UNL     1      27.600  -0.830  52.995  1.00  0.00    -0.015 A 
ENDBRANCH  13  15
ENDBRANCH   8  13
BRANCH   1  23
HETATM   23  O1  UNL     1      20.936  -0.687  54.646  1.00  0.00    -0.355 OA
HETATM   24  C1  UNL     1      22.238  -1.170  54.935  1.00  0.00     0.210 C 
ENDBRANCH   1  23
TORSDOF 3
ENDMDL
MODEL 6
REMARK VINA RESULT:      -8.1      4.119      6.638
REMARK  3 active torsions:
REMARK  status: ('A' for Active; 'I' for Inactive)
REMARK    1  A    between atoms: O1_2  and  C2_3 
REMARK    2  A    between atoms: C7_10  and  N3_11 
REMARK    3  A    between atoms: N3_11  and  C8_12 
ROOT
HETATM    1  C2  UNL     1      22.893   2.732  52.175  1.00  0.00     0.074 C 
HETATM    2  C3  UNL     1      22.962   1.456  52.519  1.00  0.00     0.054 C 
HETATM    3  C4  UNL     1      21.840   0.598  52.886  1.00  0.00     0.037 A 
HETATM    4  C5  UNL     1      20.493   0.806  52.673  1.00  0.00     0.053 A 
HETATM    5  N1  UNL     1      19.576  -0.086  53.075  1.00  0.00    -0.245 NA
HETATM    6  C6  UNL     1      19.965  -1.216  53.701  1.00  0.00     0.235 A 
HETATM    7  N2  UNL     1      21.277  -1.438  53.918  1.00  0.00    -0.224 NA
HETATM    8  C7  UNL     1      22.218  -0.578  53.535  1.00  0.00     0.141 A 
HETATM    9  C16 UNL     1      19.752   1.912  52.033  1.00  0.00     0.088 C 
HETATM   10  C17 UNL     1      20.455   3.197  52.019  1.00  0.00    -0.011 C 
HETATM   11  C18 UNL     1      21.718   3.590  52.074  1.00  0.00    -0.032 C 
HETATM   12  C19 UNL     1      22.075   5.032  52.035  1.00  0.00     0.050 C 
ENDROOT
BRANCH   8  13
HETATM   13  N3  UNL     1      23.598  -0.833  53.773  1.00  0.00    -0.350 N 
HETATM   14  H6  UNL     1      24.212  -1.542  53.308  1.00  0.00     0.166 HD
BRANCH  13  15
HETATM   15  C8  UNL     1      24.614  -0.297  54.646  1.00  0.00     0.097 C 
HETATM   16  C9  UNL     1      25.905  -0.370  54.357  1.00  0.00    -0.039 A 
HETATM   17  C10 UNL     1      26.970   0.153  55.200  1.00  0.00     0.009 A 
HETATM   18  C15 UNL     1      26.274  -1.041  53.074  1.00  0.00     0.067 A 
HETATM   19  C11 UNL     1      28.246   0.075  54.902  1.00  0.00     0.007 A 
HETATM   20  C12 UNL     1      28.677  -0.560  53.675  1.00  0.00    -0.066 A 
HETATM   21  C13 UNL     1      30.110  -0.673  53.294  1.00  0.00     0.048 C 
HETATM   22  C14 UNL     1      27.747  -1.050  52.880  1.00  0.00    -0.015 A 
ENDBRANCH  13  15
ENDBRANCH   8  13
BRANCH   1  23
HETATM   23  O1  UNL     1      24.165   3.222  51.892  1.00  0.00    -0.355 OA
HETATM   24  C1  UNL     1      25.286   2.363  51.763  1.00  0.00     0.210 C 
ENDBRANCH   1  23
TORSDOF 3
ENDMDL
MODEL 7
REMARK VINA RESULT:      -7.9      3.238      7.798
REMARK  3 active torsions:
REMARK  status: ('A' for Active; 'I' for Inactive)
REMARK    1  A    between atoms: O1_2  and  C2_3 
REMARK    2  A    between atoms: C7_10  and  N3_11 
REMARK    3  A    between atoms: N3_11  and  C8_12 
ROOT
HETATM    1  C2  UNL     1      24.386   3.044  51.239  1.00  0.00     0.074 C 
HETATM    2  C3  UNL     1      23.751   2.300  52.131  1.00  0.00     0.054 C 
HETATM    3  C4  UNL     1      24.329   1.221  52.924  1.00  0.00     0.037 A 
HETATM    4  C5  UNL     1      25.659   0.938  53.152  1.00  0.00     0.053 A 
HETATM    5  N1  UNL     1      26.032  -0.102  53.912  1.00  0.00    -0.245 NA
HETATM    6  C6  UNL     1      25.097  -0.898  54.471  1.00  0.00     0.235 A 
HETATM    7  N2  UNL     1      23.791  -0.638  54.259  1.00  0.00    -0.224 NA
HETATM    8  C7  UNL     1      23.380   0.383  53.512  1.00  0.00     0.141 A 
HETATM    9  C16 UNL     1      26.902   1.596  52.698  1.00  0.00     0.088 C 
HETATM   10  C17 UNL     1      26.770   2.376  51.466  1.00  0.00    -0.011 C 
HETATM   11  C18 UNL     1      25.784   2.984  50.827  1.00  0.00    -0.032 C 
HETATM   12  C19 UNL     1      26.026   3.707  49.551  1.00  0.00     0.050 C 
ENDROOT
BRANCH   8  13
HETATM   13  N3  UNL     1      21.995   0.640  53.304  1.00  0.00    -0.350 N 
HETATM   14  H6  UNL     1      21.555   1.472  52.847  1.00  0.00     0.166 HD
BRANCH  13  15
HETATM   15  C8  UNL     1      20.761  -0.047  53.596  1.00  0.00     0.097 C 
HETATM   16  C9  UNL     1      19.757  -0.096  52.732  1.00  0.00    -0.039 A 
HETATM   17  C10 UNL     1      18.492  -0.773  52.974  1.00  0.00     0.009 A 
HETATM   18  C15 UNL     1      19.955   0.601  51.425  1.00  0.00     0.067 A 
HETATM   19  C11 UNL     1      17.504  -0.815  52.110  1.00  0.00     0.007 A 
HETATM   20  C12 UNL     1      17.627  -0.163  50.823  1.00  0.00    -0.066 A 
HETATM   21  C13 UNL     1      16.536  -0.181  49.811  1.00  0.00     0.048 C 
HETATM   22  C14 UNL     1      18.755   0.465  50.560  1.00  0.00    -0.015 A 
ENDBRANCH  13  15
ENDBRANCH   8  13
BRANCH   1  23
HETATM   23  O1  UNL     1      23.514   3.975  50.681  1.00  0.00    -0.355 OA
HETATM   24  C1  UNL     1      22.934   5.013  51.454  1.00  0.00     0.210 C 
ENDBRANCH   1  23
TORSDOF 3
ENDMDL
MODEL 8
REMARK VINA RESULT:      -7.8      2.555      7.673
REMARK  3 active torsions:
REMARK  status: ('A' for Active; 'I' for Inactive)
REMARK    1  A    between atoms: O1_2  and  C2_3 
REMARK    2  A    between atoms: C7_10  and  N3_11 
REMARK    3  A    between atoms: N3_11  and  C8_12 
ROOT
HETATM    1  C2  UNL     1      23.290   6.230  50.696  1.00  0.00     0.074 C 
HETATM    2  C3  UNL     1      24.237   5.305  50.699  1.00  0.00     0.054 C 
HETATM    3  C4  UNL     1      25.478   5.337  49.932  1.00  0.00     0.037 A 
HETATM    4  C5  UNL     1      26.072   6.410  49.302  1.00  0.00     0.053 A 
HETATM    5  N1  UNL     1      27.224   6.275  48.628  1.00  0.00    -0.245 NA
HETATM    6  C6  UNL     1      27.826   5.069  48.558  1.00  0.00     0.235 A 
HETATM    7  N2  UNL     1      27.260   4.008  49.168  1.00  0.00    -0.224 NA
HETATM    8  C7  UNL     1      26.119   4.101  49.845  1.00  0.00     0.141 A 
HETATM    9  C16 UNL     1      25.682   7.831  49.188  1.00  0.00     0.088 C 
HETATM   10  C17 UNL     1      24.251   8.091  49.355  1.00  0.00    -0.011 C 
HETATM   11  C18 UNL     1      23.238   7.483  49.951  1.00  0.00    -0.032 C 
HETATM   12  C19 UNL     1      21.867   8.058  49.913  1.00  0.00     0.050 C 
ENDROOT
BRANCH   8  13
HETATM   13  N3  UNL     1      25.541   2.967  50.483  1.00  0.00    -0.350 N 
HETATM   14  H6  UNL     1      24.590   2.556  50.330  1.00  0.00     0.166 HD
BRANCH  13  15
HETATM   15  C8  UNL     1      25.961   2.018  51.485  1.00  0.00     0.097 C 
HETATM   16  C9  UNL     1      25.100   1.247  52.134  1.00  0.00    -0.039 A 
HETATM   17  C10 UNL     1      25.468   0.274  53.152  1.00  0.00     0.009 A 
HETATM   18  C15 UNL     1      23.656   1.401  51.782  1.00  0.00     0.067 A 
HETATM   19  C11 UNL     1      24.606  -0.485  53.787  1.00  0.00     0.007 A 
HETATM   20  C12 UNL     1      23.191  -0.391  53.498  1.00  0.00    -0.066 A 
HETATM   21  C13 UNL     1      22.175  -1.228  54.191  1.00  0.00     0.048 C 
HETATM   22  C14 UNL     1      22.810   0.478  52.582  1.00  0.00    -0.015 A 
ENDBRANCH  13  15
ENDBRANCH   8  13
BRANCH   1  23
HETATM   23  O1  UNL     1      22.255   5.860  51.550  1.00  0.00    -0.355 OA
HETATM   24  C1  UNL     1      22.340   4.708  52.372  1.00  0.00     0.210 C 
ENDBRANCH   1  23
TORSDOF 3
ENDMDL
MODEL 9
REMARK VINA RESULT:      -7.8      1.573      2.152
REMARK  3 active torsions:
REMARK  status: ('A' for Active; 'I' for Inactive)
REMARK    1  A    between atoms: O1_2  and  C2_3 
REMARK    2  A    between atoms: C7_10  and  N3_11 
REMARK    3  A    between atoms: N3_11  and  C8_12 
ROOT
HETATM    1  C2  UNL     1      25.324   1.011  52.562  1.00  0.00     0.074 C 
HETATM    2  C3  UNL     1      24.470   1.978  52.266  1.00  0.00     0.054 C 
HETATM    3  C4  UNL     1      23.019   1.920  52.409  1.00  0.00     0.037 A 
HETATM    4  C5  UNL     1      22.260   1.023  53.131  1.00  0.00     0.053 A 
HETATM    5  N1  UNL     1      20.922   1.104  53.161  1.00  0.00    -0.245 NA
HETATM    6  C6  UNL     1      20.291   2.079  52.474  1.00  0.00     0.235 A 
HETATM    7  N2  UNL     1      21.015   2.965  51.762  1.00  0.00    -0.224 NA
HETATM    8  C7  UNL     1      22.343   2.919  51.707  1.00  0.00     0.141 A 
HETATM    9  C16 UNL     1      22.631  -0.134  53.971  1.00  0.00     0.088 C 
HETATM   10  C17 UNL     1      23.930  -0.732  53.656  1.00  0.00    -0.011 C 
HETATM   11  C18 UNL     1      25.053  -0.321  53.089  1.00  0.00    -0.032 C 
HETATM   12  C19 UNL     1      26.212  -1.237  52.929  1.00  0.00     0.050 C 
ENDROOT
BRANCH   8  13
HETATM   13  N3  UNL     1      23.087   3.868  50.950  1.00  0.00    -0.350 N 
HETATM   14  H6  UNL     1      23.477   3.759  49.984  1.00  0.00     0.166 HD
BRANCH  13  15
HETATM   15  C8  UNL     1      23.564   5.213  51.159  1.00  0.00     0.097 C 
HETATM   16  C9  UNL     1      24.573   5.721  50.466  1.00  0.00    -0.039 A 
HETATM   17  C10 UNL     1      25.095   7.069  50.636  1.00  0.00     0.009 A 
HETATM   18  C15 UNL     1      25.208   4.833  49.445  1.00  0.00     0.067 A 
HETATM   19  C11 UNL     1      26.095   7.562  49.942  1.00  0.00     0.007 A 
HETATM   20  C12 UNL     1      26.757   6.759  48.936  1.00  0.00    -0.066 A 
HETATM   21  C13 UNL     1      27.894   7.272  48.126  1.00  0.00     0.048 C 
HETATM   22  C14 UNL     1      26.320   5.530  48.748  1.00  0.00    -0.015 A 
ENDBRANCH  13  15
ENDBRANCH   8  13
BRANCH   1  23
HETATM   23  O1  UNL     1      26.627   1.425  52.297  1.00  0.00    -0.355 OA
HETATM   24  C1  UNL     1      26.905   2.502  51.416  1.00  0.00     0.210 C 
ENDBRANCH   1  23
TORSDOF 3
ENDMDL
