MODEL 1
REMARK VINA RESULT:      -7.3      0.000      0.000
REMARK  1 active torsions:
REMARK  status: ('A' for Active; 'I' for Inactive)
REMARK    1  A    between atoms: C2_2  and  O1_3 
ROOT
HETATM    1  C1  UNL     1      28.042  -1.015  53.023  1.00  0.00     0.013 C 
HETATM    2  C2  UNL     1      27.010  -0.578  53.803  1.00  0.00    -0.013 A 
HETATM    3  C4  UNL     1      26.978   0.734  54.538  1.00  0.00    -0.010 A 
HETATM    4  C5  UNL     1      25.830   0.266  54.722  1.00  0.00     0.046 A 
HETATM    5  C6  UNL     1      24.897  -0.764  54.529  1.00  0.00     0.256 C 
HETATM    6  N1  UNL     1      23.756  -1.316  54.580  1.00  0.00    -0.399 NA
HETATM    7  C7  UNL     1      22.586  -0.736  55.081  1.00  0.00     0.401 C 
HETATM    8  N2  UNL     1      21.977  -0.236  54.085  1.00  0.00    -0.408 NA
HETATM    9  C8  UNL     1      22.400  -0.260  52.741  1.00  0.00     0.231 C 
HETATM   10  N3  UNL     1      22.388   1.073  52.140  1.00  0.00    -0.379 N 
HETATM   11  C9  UNL     1      21.131   1.640  52.672  1.00  0.00     0.150 C 
HETATM   12  C10 UNL     1      23.243   1.823  51.249  1.00  0.00     0.086 C 
HETATM   13  C11 UNL     1      24.182   2.439  50.636  1.00  0.00     0.017 C 
HETATM   14  C12 UNL     1      25.561   2.880  50.542  1.00  0.00     0.001 C 
HETATM   15  C13 UNL     1      26.631   2.742  51.291  1.00  0.00    -0.000 C 
HETATM   16  C14 UNL     1      27.264   2.193  52.522  1.00  0.00    -0.004 C 
HETATM   17  C15 UNL     1      28.442   2.147  53.185  1.00  0.00    -0.026 C 
HETATM   18  C16 UNL     1      28.282   1.353  54.428  1.00  0.00     0.039 C 
ENDROOT
BRANCH   2  19
HETATM   19  O1  UNL     1      26.777  -1.861  53.224  1.00  0.00     0.000 OA
HETATM   20  C3  UNL     1      27.959  -2.604  52.771  1.00  0.00     0.000 C 
ENDBRANCH   2  19
TORSDOF 1
ENDMDL
MODEL 2
REMARK VINA RESULT:      -7.0      3.208      5.663
REMARK  1 active torsions:
REMARK  status: ('A' for Active; 'I' for Inactive)
REMARK    1  A    between atoms: C2_2  and  O1_3 
ROOT
HETATM    1  C1  UNL     1      24.120   3.313  53.142  1.00  0.00     0.013 C 
HETATM    2  C2  UNL     1      23.481   2.789  52.056  1.00  0.00    -0.013 A 
HETATM    3  C4  UNL     1      23.901   1.543  51.324  1.00  0.00    -0.010 A 
HETATM    4  C5  UNL     1      22.815   1.851  50.780  1.00  0.00     0.046 A 
HETATM    5  C6  UNL     1      21.717   2.718  50.674  1.00  0.00     0.256 C 
HETATM    6  N1  UNL     1      20.580   3.101  50.260  1.00  0.00    -0.399 NA
HETATM    7  C7  UNL     1      19.745   2.395  49.388  1.00  0.00     0.401 C 
HETATM    8  N2  UNL     1      18.936   1.740  50.114  1.00  0.00    -0.408 NA
HETATM    9  C8  UNL     1      18.890   1.729  51.523  1.00  0.00     0.231 C 
HETATM   10  N3  UNL     1      18.899   0.367  52.059  1.00  0.00    -0.379 N 
HETATM   11  C9  UNL     1      17.991  -0.336  51.129  1.00  0.00     0.150 C 
HETATM   12  C10 UNL     1      19.529  -0.313  53.167  1.00  0.00     0.086 C 
HETATM   13  C11 UNL     1      20.305  -0.829  54.044  1.00  0.00     0.017 C 
HETATM   14  C12 UNL     1      21.631  -1.071  54.580  1.00  0.00     0.001 C 
HETATM   15  C13 UNL     1      22.849  -0.724  54.231  1.00  0.00    -0.000 C 
HETATM   16  C14 UNL     1      23.750  -0.002  53.291  1.00  0.00    -0.004 C 
HETATM   17  C15 UNL     1      25.055   0.263  53.057  1.00  0.00    -0.026 C 
HETATM   18  C16 UNL     1      25.181   1.113  51.847  1.00  0.00     0.039 C 
ENDROOT
BRANCH   2  19
HETATM   19  O1  UNL     1      22.870   3.979  52.551  1.00  0.00     0.000 OA
HETATM   20  C3  UNL     1      23.560   5.242  52.266  1.00  0.00     0.000 C 
ENDBRANCH   2  19
TORSDOF 1
ENDMDL
MODEL 3
REMARK VINA RESULT:      -7.0      2.502      6.254
REMARK  1 active torsions:
REMARK  status: ('A' for Active; 'I' for Inactive)
REMARK    1  A    between atoms: C2_2  and  O1_3 
ROOT
HETATM    1  C1  UNL     1      21.329   2.024  49.722  1.00  0.00     0.013 C 
HETATM    2  C2  UNL     1      22.345   2.523  50.485  1.00  0.00    -0.013 A 
HETATM    3  C4  UNL     1      22.168   3.389  51.702  1.00  0.00    -0.010 A 
HETATM    4  C5  UNL     1      23.401   3.166  51.677  1.00  0.00     0.046 A 
HETATM    5  C6  UNL     1      24.512   2.573  51.060  1.00  0.00     0.256 C 
HETATM    6  N1  UNL     1      25.725   2.215  50.956  1.00  0.00    -0.399 NA
HETATM    7  C7  UNL     1      26.726   2.428  51.909  1.00  0.00     0.401 C 
HETATM    8  N2  UNL     1      26.780   1.377  52.618  1.00  0.00    -0.408 NA
HETATM    9  C8  UNL     1      25.984   0.223  52.473  1.00  0.00     0.231 C 
HETATM   10  N3  UNL     1      25.355  -0.169  53.734  1.00  0.00    -0.379 N 
HETATM   11  C9  UNL     1      26.447   0.047  54.705  1.00  0.00     0.150 C 
HETATM   12  C10 UNL     1      24.060  -0.663  54.143  1.00  0.00     0.086 C 
HETATM   13  C11 UNL     1      22.825  -0.888  54.392  1.00  0.00     0.017 C 
HETATM   14  C12 UNL     1      21.425  -0.517  54.307  1.00  0.00     0.001 C 
HETATM   15  C13 UNL     1      20.762   0.484  53.773  1.00  0.00    -0.000 C 
HETATM   16  C14 UNL     1      20.780   1.760  53.005  1.00  0.00    -0.004 C 
HETATM   17  C15 UNL     1      19.964   2.723  52.521  1.00  0.00    -0.026 C 
HETATM   18  C16 UNL     1      20.769   3.747  51.810  1.00  0.00     0.039 C 
ENDROOT
BRANCH   2  19
HETATM   19  O1  UNL     1      22.798   1.733  49.387  1.00  0.00     0.000 OA
HETATM   20  C3  UNL     1      21.936   1.699  48.200  1.00  0.00     0.000 C 
ENDBRANCH   2  19
TORSDOF 1
ENDMDL
MODEL 4
REMARK VINA RESULT:      -7.0      2.224      5.136
REMARK  1 active torsions:
REMARK  status: ('A' for Active; 'I' for Inactive)
REMARK    1  A    between atoms: C2_2  and  O1_3 
ROOT
HETATM    1  C1  UNL     1      24.103   3.512  50.226  1.00  0.00     0.013 C 
HETATM    2  C2  UNL     1      24.448   3.281  51.526  1.00  0.00    -0.013 A 
HETATM    3  C4  UNL     1      23.811   3.939  52.719  1.00  0.00    -0.010 A 
HETATM    4  C5  UNL     1      24.585   3.094  53.228  1.00  0.00     0.046 A 
HETATM    5  C6  UNL     1      25.545   2.083  53.072  1.00  0.00     0.256 C 
HETATM    6  N1  UNL     1      26.312   1.146  53.452  1.00  0.00    -0.399 NA
HETATM    7  C7  UNL     1      26.428   0.661  54.758  1.00  0.00     0.401 C 
HETATM    8  N2  UNL     1      25.647  -0.336  54.844  1.00  0.00    -0.408 NA
HETATM    9  C8  UNL     1      24.825  -0.851  53.822  1.00  0.00     0.231 C 
HETATM   10  N3  UNL     1      23.438  -1.003  54.261  1.00  0.00    -0.379 N 
HETATM   11  C9  UNL     1      23.604  -1.538  55.628  1.00  0.00     0.150 C 
HETATM   12  C10 UNL     1      22.132  -0.772  53.688  1.00  0.00     0.086 C 
HETATM   13  C11 UNL     1      21.061  -0.328  53.146  1.00  0.00     0.017 C 
HETATM   14  C12 UNL     1      20.297   0.744  52.537  1.00  0.00     0.001 C 
HETATM   15  C13 UNL     1      20.535   2.004  52.250  1.00  0.00    -0.000 C 
HETATM   16  C14 UNL     1      21.476   3.158  52.257  1.00  0.00    -0.004 C 
HETATM   17  C15 UNL     1      21.565   4.462  51.912  1.00  0.00    -0.026 C 
HETATM   18  C16 UNL     1      22.916   4.975  52.249  1.00  0.00     0.039 C 
ENDROOT
BRANCH   2  19
HETATM   19  O1  UNL     1      25.217   2.523  50.594  1.00  0.00     0.000 OA
HETATM   20  C3  UNL     1      26.108   3.279  49.705  1.00  0.00     0.000 C 
ENDBRANCH   2  19
TORSDOF 1
ENDMDL
MODEL 5
REMARK VINA RESULT:      -6.7      3.889      6.160
REMARK  1 active torsions:
REMARK  status: ('A' for Active; 'I' for Inactive)
REMARK    1  A    between atoms: C2_2  and  O1_3 
ROOT
HETATM    1  C1  UNL     1      21.435   0.616  50.639  1.00  0.00     0.013 C 
HETATM    2  C2  UNL     1      21.510   1.849  51.220  1.00  0.00    -0.013 A 
HETATM    3  C4  UNL     1      22.025   2.121  52.607  1.00  0.00    -0.010 A 
HETATM    4  C5  UNL     1      21.832   3.266  52.136  1.00  0.00     0.046 A 
HETATM    5  C6  UNL     1      21.409   4.084  51.078  1.00  0.00     0.256 C 
HETATM    6  N1  UNL     1      21.235   5.178  50.458  1.00  0.00    -0.399 NA
HETATM    7  C7  UNL     1      21.623   6.444  50.907  1.00  0.00     0.401 C 
HETATM    8  N2  UNL     1      22.763   6.674  50.397  1.00  0.00    -0.408 NA
HETATM    9  C8  UNL     1      23.492   5.818  49.548  1.00  0.00     0.231 C 
HETATM   10  N3  UNL     1      24.861   5.615  50.021  1.00  0.00    -0.379 N 
HETATM   11  C9  UNL     1      25.241   6.974  50.461  1.00  0.00     0.150 C 
HETATM   12  C10 UNL     1      25.777   4.501  50.115  1.00  0.00     0.086 C 
HETATM   13  C11 UNL     1      26.400   3.405  50.335  1.00  0.00     0.017 C 
HETATM   14  C12 UNL     1      26.463   2.074  50.908  1.00  0.00     0.001 C 
HETATM   15  C13 UNL     1      25.639   1.325  51.603  1.00  0.00    -0.000 C 
HETATM   16  C14 UNL     1      24.309   1.154  52.251  1.00  0.00    -0.004 C 
HETATM   17  C15 UNL     1      23.582   0.273  52.975  1.00  0.00    -0.026 C 
HETATM   18  C16 UNL     1      22.249   0.853  53.270  1.00  0.00     0.039 C 
ENDROOT
BRANCH   2  19
HETATM   19  O1  UNL     1      20.978   1.879  49.897  1.00  0.00     0.000 OA
HETATM   20  C3  UNL     1      21.615   0.999  48.910  1.00  0.00     0.000 C 
ENDBRANCH   2  19
TORSDOF 1
ENDMDL
MODEL 6
REMARK VINA RESULT:      -6.6      2.457      5.244
REMARK  1 active torsions:
REMARK  status: ('A' for Active; 'I' for Inactive)
REMARK    1  A    between atoms: C2_2  and  O1_3 
ROOT
HETATM    1  C1  UNL     1      24.151   5.170  51.181  1.00  0.00     0.013 C 
HETATM    2  C2  UNL     1      23.491   4.041  50.790  1.00  0.00    -0.013 A 
HETATM    3  C4  UNL     1      23.992   3.056  49.770  1.00  0.00    -0.010 A 
HETATM    4  C5  UNL     1      22.953   2.515  50.215  1.00  0.00     0.046 A 
HETATM    5  C6  UNL     1      21.841   2.549  51.069  1.00  0.00     0.256 C 
HETATM    6  N1  UNL     1      20.814   2.084  51.653  1.00  0.00    -0.399 NA
HETATM    7  C7  UNL     1      20.311   0.786  51.515  1.00  0.00     0.401 C 
HETATM    8  N2  UNL     1      20.802   0.106  52.469  1.00  0.00    -0.408 NA
HETATM    9  C8  UNL     1      21.682   0.570  53.467  1.00  0.00     0.231 C 
HETATM   10  N3  UNL     1      22.868  -0.278  53.587  1.00  0.00    -0.379 N 
HETATM   11  C9  UNL     1      22.293  -1.633  53.461  1.00  0.00     0.150 C 
HETATM   12  C10 UNL     1      24.284  -0.068  53.784  1.00  0.00     0.086 C 
HETATM   13  C11 UNL     1      25.519   0.265  53.749  1.00  0.00     0.017 C 
HETATM   14  C12 UNL     1      26.623   0.983  53.141  1.00  0.00     0.001 C 
HETATM   15  C13 UNL     1      26.752   1.781  52.106  1.00  0.00    -0.000 C 
HETATM   16  C14 UNL     1      26.125   2.487  50.954  1.00  0.00    -0.004 C 
HETATM   17  C15 UNL     1      26.417   3.309  49.922  1.00  0.00    -0.026 C 
HETATM   18  C16 UNL     1      25.183   3.600  49.153  1.00  0.00     0.039 C 
ENDROOT
BRANCH   2  19
HETATM   19  O1  UNL     1      22.785   4.797  51.773  1.00  0.00     0.000 OA
HETATM   20  C3  UNL     1      22.159   6.045  51.320  1.00  0.00     0.000 C 
ENDBRANCH   2  19
TORSDOF 1
ENDMDL
MODEL 7
REMARK VINA RESULT:      -6.1      8.275     11.040
REMARK  1 active torsions:
REMARK  status: ('A' for Active; 'I' for Inactive)
REMARK    1  A    between atoms: C2_2  and  O1_3 
ROOT
HETATM    1  C1  UNL     1      25.127   9.221  47.504  1.00  0.00     0.013 C 
HETATM    2  C2  UNL     1      26.133   9.498  48.383  1.00  0.00    -0.013 A 
HETATM    3  C4  UNL     1      26.149   9.097  49.833  1.00  0.00    -0.010 A 
HETATM    4  C5  UNL     1      27.286   9.591  49.653  1.00  0.00     0.046 A 
HETATM    5  C6  UNL     1      28.217  10.209  48.805  1.00  0.00     0.256 C 
HETATM    6  N1  UNL     1      29.352  10.669  48.471  1.00  0.00    -0.399 NA
HETATM    7  C7  UNL     1      30.508  10.651  49.258  1.00  0.00     0.401 C 
HETATM    8  N2  UNL     1      31.156   9.611  48.925  1.00  0.00    -0.408 NA
HETATM    9  C8  UNL     1      30.781   8.662  47.952  1.00  0.00     0.231 C 
HETATM   10  N3  UNL     1      30.824   7.297  48.476  1.00  0.00    -0.379 N 
HETATM   11  C9  UNL     1      32.065   7.313  49.278  1.00  0.00     0.150 C 
HETATM   12  C10 UNL     1      30.006   6.111  48.364  1.00  0.00     0.086 C 
HETATM   13  C11 UNL     1      29.094   5.213  48.352  1.00  0.00     0.017 C 
HETATM   14  C12 UNL     1      27.723   4.794  48.572  1.00  0.00     0.001 C 
HETATM   15  C13 UNL     1      26.626   5.390  48.979  1.00  0.00    -0.000 C 
HETATM   16  C14 UNL     1      25.945   6.630  49.444  1.00  0.00    -0.004 C 
HETATM   17  C15 UNL     1      24.745   7.097  49.855  1.00  0.00    -0.026 C 
HETATM   18  C16 UNL     1      24.854   8.542  50.170  1.00  0.00     0.039 C 
ENDROOT
BRANCH   2  19
HETATM   19  O1  UNL     1      26.377   9.998  47.070  1.00  0.00     0.000 OA
HETATM   20  C3  UNL     1      25.238  10.003  46.145  1.00  0.00     0.000 C 
ENDBRANCH   2  19
TORSDOF 1
ENDMDL
MODEL 8
REMARK VINA RESULT:      -6.1      3.453      6.074
REMARK  1 active torsions:
REMARK  status: ('A' for Active; 'I' for Inactive)
REMARK    1  A    between atoms: C2_2  and  O1_3 
ROOT
HETATM    1  C1  UNL     1      24.529   5.558  50.926  1.00  0.00     0.013 C 
HETATM    2  C2  UNL     1      23.734   4.757  50.158  1.00  0.00    -0.013 A 
HETATM    3  C4  UNL     1      24.213   3.580  49.353  1.00  0.00    -0.010 A 
HETATM    4  C5  UNL     1      22.967   3.530  49.233  1.00  0.00     0.046 A 
HETATM    5  C6  UNL     1      21.701   4.067  49.512  1.00  0.00     0.256 C 
HETATM    6  N1  UNL     1      20.433   4.093  49.529  1.00  0.00    -0.399 NA
HETATM    7  C7  UNL     1      19.586   3.094  49.036  1.00  0.00     0.401 C 
HETATM    8  N2  UNL     1      19.294   2.350  50.022  1.00  0.00    -0.408 NA
HETATM    9  C8  UNL     1      19.738   2.501  51.351  1.00  0.00     0.231 C 
HETATM   10  N3  UNL     1      20.315   1.264  51.878  1.00  0.00    -0.379 N 
HETATM   11  C9  UNL     1      19.383   0.242  51.358  1.00  0.00     0.150 C 
HETATM   12  C10 UNL     1      21.451   0.910  52.699  1.00  0.00     0.086 C 
HETATM   13  C11 UNL     1      22.592   0.722  53.246  1.00  0.00     0.017 C 
HETATM   14  C12 UNL     1      24.032   0.896  53.271  1.00  0.00     0.001 C 
HETATM   15  C13 UNL     1      24.906   1.497  52.496  1.00  0.00    -0.000 C 
HETATM   16  C14 UNL     1      25.187   2.303  51.276  1.00  0.00    -0.004 C 
HETATM   17  C15 UNL     1      26.202   2.862  50.579  1.00  0.00    -0.026 C 
HETATM   18  C16 UNL     1      25.661   3.560  49.387  1.00  0.00     0.039 C 
ENDROOT
BRANCH   2  19
HETATM   19  O1  UNL     1      23.019   5.803  50.813  1.00  0.00     0.000 OA
HETATM   20  C3  UNL     1      23.574   7.156  50.694  1.00  0.00     0.000 C 
ENDBRANCH   2  19
TORSDOF 1
ENDMDL
MODEL 9
REMARK VINA RESULT:      -6.0      5.400      7.868
REMARK  1 active torsions:
REMARK  status: ('A' for Active; 'I' for Inactive)
REMARK    1  A    between atoms: C2_2  and  O1_3 
ROOT
HETATM    1  C1  UNL     1      23.052   2.791  48.633  1.00  0.00     0.013 C 
HETATM    2  C2  UNL     1      22.975   3.961  49.333  1.00  0.00    -0.013 A 
HETATM    3  C4  UNL     1      23.601   4.206  50.679  1.00  0.00    -0.010 A 
HETATM    4  C5  UNL     1      23.147   5.329  50.356  1.00  0.00     0.046 A 
HETATM    5  C6  UNL     1      22.456   6.139  49.444  1.00  0.00     0.256 C 
HETATM    6  N1  UNL     1      22.012   7.228  48.968  1.00  0.00    -0.399 NA
HETATM    7  C7  UNL     1      22.218   8.502  49.506  1.00  0.00     0.401 C 
HETATM    8  N2  UNL     1      23.226   8.989  48.907  1.00  0.00    -0.408 NA
HETATM    9  C8  UNL     1      23.987   8.365  47.897  1.00  0.00     0.231 C 
HETATM   10  N3  UNL     1      25.418   8.388  48.199  1.00  0.00    -0.379 N 
HETATM   11  C9  UNL     1      25.598   9.751  48.740  1.00  0.00     0.150 C 
HETATM   12  C10 UNL     1      26.524   7.467  48.076  1.00  0.00     0.086 C 
HETATM   13  C11 UNL     1      27.356   6.495  48.108  1.00  0.00     0.017 C 
HETATM   14  C12 UNL     1      27.729   5.157  48.525  1.00  0.00     0.001 C 
HETATM   15  C13 UNL     1      27.146   4.206  49.218  1.00  0.00    -0.000 C 
HETATM   16  C14 UNL     1      25.959   3.728  49.981  1.00  0.00    -0.004 C 
HETATM   17  C15 UNL     1      25.499   2.666  50.679  1.00  0.00    -0.026 C 
HETATM   18  C16 UNL     1      24.129   2.952  51.174  1.00  0.00     0.039 C 
ENDROOT
BRANCH   2  19
HETATM   19  O1  UNL     1      22.287   4.002  48.084  1.00  0.00     0.000 OA
HETATM   20  C3  UNL     1      21.996   2.712  47.448  1.00  0.00     0.000 C 
ENDBRANCH   2  19
TORSDOF 1
ENDMDL
