MODEL 1
REMARK VINA RESULT:      -8.6      0.000      0.000
REMARK  1 active torsions:
REMARK  status: ('A' for Active; 'I' for Inactive)
REMARK    1  A    between atoms: C5_7  and  C14_19 
ROOT
HETATM    1  C1  UNL     1      26.827   0.690  54.583  1.00  0.00     0.067 C 
HETATM    2  C2  UNL     1      25.988   0.990  53.375  1.00  0.00     0.026 C 
HETATM    3  N1  UNL     1      26.185   2.178  52.873  1.00  0.00    -0.257 NA
HETATM    4  C3  UNL     1      25.416   2.531  51.720  1.00  0.00     0.184 C 
HETATM    5  N2  UNL     1      24.435   3.373  51.538  1.00  0.00    -0.224 NA
HETATM    6  C4  UNL     1      23.932   3.411  50.176  1.00  0.00     0.074 A 
HETATM    7  C5  UNL     1      22.843   2.905  50.780  1.00  0.00     0.075 A 
HETATM    8  C6  UNL     1      23.195   2.800  52.315  1.00  0.00     0.129 A 
HETATM    9  C7  UNL     1      22.023   3.275  52.067  1.00  0.00     0.132 A 
HETATM   10  O1  UNL     1      22.190   4.623  52.322  1.00  0.00    -0.355 OA
HETATM   11  C8  UNL     1      22.096   5.590  51.250  1.00  0.00     0.288 C 
HETATM   12  N3  UNL     1      23.357   5.947  50.766  1.00  0.00    -0.395 N 
HETATM   13  C9  UNL     1      24.168   6.640  51.685  1.00  0.00     0.145 C 
HETATM   14  C10 UNL     1      23.659   6.129  49.436  1.00  0.00     0.138 C 
HETATM   15  C11 UNL     1      23.625   4.898  48.561  1.00  0.00     0.140 C 
HETATM   16  N4  UNL     1      24.508   3.845  48.957  1.00  0.00    -0.381 N 
HETATM   17  C12 UNL     1      21.750   1.819  51.768  1.00  0.00     0.116 A 
HETATM   18  C13 UNL     1      20.584   2.272  51.476  1.00  0.00    -0.008 A 
HETATM   19  C14 UNL     1      21.488   2.465  50.247  1.00  0.00     0.085 A 
HETATM   20  O2  UNL     1      22.404   0.596  51.791  1.00  0.00    -0.349 OA
HETATM   21  C15 UNL     1      22.574  -0.214  52.903  1.00  0.00     0.220 C 
HETATM   22  C16 UNL     1      21.545   0.237  53.951  1.00  0.00     0.054 C 
HETATM   23  C17 UNL     1      21.433  -0.857  54.957  1.00  0.00     0.006 C 
HETATM   24  C18 UNL     1      22.667  -1.683  55.025  1.00  0.00     0.020 C 
HETATM   25  C19 UNL     1      23.950  -0.959  54.715  1.00  0.00     0.119 C 
HETATM   26  N5  UNL     1      23.842  -0.079  53.586  1.00  0.00    -0.382 N 
HETATM   27  C20 UNL     1      24.987   0.040  52.762  1.00  0.00     0.173 C 
HETATM   28  H15 UNL     1      25.292   3.190  48.942  1.00  0.00     0.160 HD
ENDROOT
TORSDOF 1
ENDMDL
MODEL 2
REMARK VINA RESULT:      -8.5      2.215      5.656
REMARK  1 active torsions:
REMARK  status: ('A' for Active; 'I' for Inactive)
REMARK    1  A    between atoms: C5_7  and  C14_19 
ROOT
HETATM    1  C1  UNL     1      20.578   0.239  54.624  1.00  0.00     0.067 C 
HETATM    2  C2  UNL     1      21.788   0.113  53.745  1.00  0.00     0.026 C 
HETATM    3  N1  UNL     1      22.819  -0.430  54.334  1.00  0.00    -0.257 NA
HETATM    4  C3  UNL     1      24.009  -0.578  53.554  1.00  0.00     0.184 C 
HETATM    5  N2  UNL     1      25.170   0.016  53.596  1.00  0.00    -0.224 NA
HETATM    6  C4  UNL     1      26.110  -0.450  52.592  1.00  0.00     0.074 A 
HETATM    7  C5  UNL     1      25.942   0.806  52.144  1.00  0.00     0.075 A 
HETATM    8  C6  UNL     1      24.937   1.502  53.141  1.00  0.00     0.129 A 
HETATM    9  C7  UNL     1      25.950   2.227  52.813  1.00  0.00     0.132 A 
HETATM   10  O1  UNL     1      26.734   2.171  53.950  1.00  0.00    -0.355 OA
HETATM   11  C8  UNL     1      28.020   1.511  53.924  1.00  0.00     0.288 C 
HETATM   12  N3  UNL     1      27.940   0.207  54.417  1.00  0.00    -0.395 N 
HETATM   13  C9  UNL     1      27.614   0.110  55.783  1.00  0.00     0.145 C 
HETATM   14  C10 UNL     1      28.597  -0.874  53.874  1.00  0.00     0.138 C 
HETATM   15  C11 UNL     1      28.147  -1.319  52.502  1.00  0.00     0.140 C 
HETATM   16  N4  UNL     1      26.769  -1.689  52.404  1.00  0.00    -0.381 N 
HETATM   17  C12 UNL     1      25.159   2.343  51.531  1.00  0.00     0.116 A 
HETATM   18  C13 UNL     1      26.176   3.036  51.164  1.00  0.00    -0.008 A 
HETATM   19  C14 UNL     1      26.513   1.551  50.947  1.00  0.00     0.085 A 
HETATM   20  O2  UNL     1      23.949   1.926  50.996  1.00  0.00    -0.349 OA
HETATM   21  C15 UNL     1      22.722   2.544  51.185  1.00  0.00     0.220 C 
HETATM   22  C16 UNL     1      23.006   3.971  51.677  1.00  0.00     0.054 C 
HETATM   23  C17 UNL     1      21.753   4.758  51.489  1.00  0.00     0.006 C 
HETATM   24  C18 UNL     1      20.543   3.895  51.499  1.00  0.00     0.020 C 
HETATM   25  C19 UNL     1      20.635   2.659  52.354  1.00  0.00     0.119 C 
HETATM   26  N5  UNL     1      21.894   1.979  52.228  1.00  0.00    -0.382 N 
HETATM   27  C20 UNL     1      21.861   0.565  52.306  1.00  0.00     0.173 C 
HETATM   28  H15 UNL     1      25.935  -2.266  52.286  1.00  0.00     0.160 HD
ENDROOT
TORSDOF 1
ENDMDL
MODEL 3
REMARK VINA RESULT:      -8.3      2.039      3.956
REMARK  1 active torsions:
REMARK  status: ('A' for Active; 'I' for Inactive)
REMARK    1  A    between atoms: C5_7  and  C14_19 
ROOT
HETATM    1  C1  UNL     1      21.913  -1.274  53.454  1.00  0.00     0.067 C 
HETATM    2  C2  UNL     1      22.159   0.168  53.118  1.00  0.00     0.026 C 
HETATM    3  N1  UNL     1      21.277   0.682  52.305  1.00  0.00    -0.257 NA
HETATM    4  C3  UNL     1      21.452   2.054  51.941  1.00  0.00     0.184 C 
HETATM    5  N2  UNL     1      21.800   2.632  50.824  1.00  0.00    -0.224 NA
HETATM    6  C4  UNL     1      21.859   4.081  50.900  1.00  0.00     0.074 A 
HETATM    7  C5  UNL     1      23.165   3.835  50.703  1.00  0.00     0.075 A 
HETATM    8  C6  UNL     1      23.308   2.269  50.575  1.00  0.00     0.129 A 
HETATM    9  C7  UNL     1      23.982   2.940  49.705  1.00  0.00     0.132 A 
HETATM   10  O1  UNL     1      23.233   2.769  48.555  1.00  0.00    -0.355 OA
HETATM   11  C8  UNL     1      22.561   3.894  47.943  1.00  0.00     0.288 C 
HETATM   12  N3  UNL     1      21.216   3.956  48.315  1.00  0.00    -0.395 N 
HETATM   13  C9  UNL     1      20.426   2.886  47.854  1.00  0.00     0.145 C 
HETATM   14  C10 UNL     1      20.544   5.117  48.618  1.00  0.00     0.138 C 
HETATM   15  C11 UNL     1      20.969   5.835  49.878  1.00  0.00     0.140 C 
HETATM   16  N4  UNL     1      20.861   5.069  51.081  1.00  0.00    -0.381 N 
HETATM   17  C12 UNL     1      24.861   3.177  50.910  1.00  0.00     0.116 A 
HETATM   18  C13 UNL     1      25.530   3.886  50.072  1.00  0.00    -0.008 A 
HETATM   19  C14 UNL     1      24.378   4.751  50.609  1.00  0.00     0.085 A 
HETATM   20  O2  UNL     1      24.935   2.823  52.249  1.00  0.00    -0.349 OA
HETATM   21  C15 UNL     1      25.476   1.649  52.750  1.00  0.00     0.220 C 
HETATM   22  C16 UNL     1      26.365   1.055  51.647  1.00  0.00     0.054 C 
HETATM   23  C17 UNL     1      27.255   0.048  52.293  1.00  0.00     0.006 C 
HETATM   24  C18 UNL     1      26.660  -0.507  53.537  1.00  0.00     0.020 C 
HETATM   25  C19 UNL     1      25.157  -0.582  53.561  1.00  0.00     0.119 C 
HETATM   26  N5  UNL     1      24.526   0.595  53.031  1.00  0.00    -0.382 N 
HETATM   27  C20 UNL     1      23.311   0.992  53.640  1.00  0.00     0.173 C 
HETATM   28  H15 UNL     1      20.535   4.760  51.998  1.00  0.00     0.160 HD
ENDROOT
TORSDOF 1
ENDMDL
MODEL 4
REMARK VINA RESULT:      -8.3      1.576      1.890
REMARK  1 active torsions:
REMARK  status: ('A' for Active; 'I' for Inactive)
REMARK    1  A    between atoms: C5_7  and  C14_19 
ROOT
HETATM    1  C1  UNL     1      26.760   2.127  53.598  1.00  0.00     0.067 C 
HETATM    2  C2  UNL     1      25.661   1.835  52.617  1.00  0.00     0.026 C 
HETATM    3  N1  UNL     1      25.228   2.887  51.976  1.00  0.00    -0.257 NA
HETATM    4  C3  UNL     1      24.179   2.681  51.026  1.00  0.00     0.184 C 
HETATM    5  N2  UNL     1      22.917   3.014  51.022  1.00  0.00    -0.224 NA
HETATM    6  C4  UNL     1      22.198   2.592  49.832  1.00  0.00     0.074 A 
HETATM    7  C5  UNL     1      21.569   1.819  50.734  1.00  0.00     0.075 A 
HETATM    8  C6  UNL     1      22.216   2.152  52.134  1.00  0.00     0.129 A 
HETATM    9  C7  UNL     1      20.930   2.066  52.147  1.00  0.00     0.132 A 
HETATM   10  O1  UNL     1      20.546   3.391  52.228  1.00  0.00    -0.355 OA
HETATM   11  C8  UNL     1      19.844   4.021  51.131  1.00  0.00     0.288 C 
HETATM   12  N3  UNL     1      20.711   4.752  50.317  1.00  0.00    -0.395 N 
HETATM   13  C9  UNL     1      21.303   5.869  50.936  1.00  0.00     0.145 C 
HETATM   14  C10 UNL     1      20.647   4.786  48.942  1.00  0.00     0.138 C 
HETATM   15  C11 UNL     1      20.981   3.502  48.219  1.00  0.00     0.140 C 
HETATM   16  N4  UNL     1      22.288   2.982  48.474  1.00  0.00    -0.381 N 
HETATM   17  C12 UNL     1      21.259   0.594  52.058  1.00  0.00     0.116 A 
HETATM   18  C13 UNL     1      19.979   0.482  52.029  1.00  0.00    -0.008 A 
HETATM   19  C14 UNL     1      20.461   0.784  50.600  1.00  0.00     0.085 A 
HETATM   20  O2  UNL     1      22.367  -0.241  52.026  1.00  0.00    -0.349 OA
HETATM   21  C15 UNL     1      23.076  -0.691  53.129  1.00  0.00     0.220 C 
HETATM   22  C16 UNL     1      22.173  -0.498  54.357  1.00  0.00     0.054 C 
HETATM   23  C17 UNL     1      22.736  -1.337  55.454  1.00  0.00     0.006 C 
HETATM   24  C18 UNL     1      24.193  -1.575  55.284  1.00  0.00     0.020 C 
HETATM   25  C19 UNL     1      24.955  -0.473  54.597  1.00  0.00     0.119 C 
HETATM   26  N5  UNL     1      24.267   0.062  53.456  1.00  0.00    -0.382 N 
HETATM   27  C20 UNL     1      25.070   0.469  52.364  1.00  0.00     0.173 C 
HETATM   28  H15 UNL     1      23.259   2.702  48.321  1.00  0.00     0.160 HD
ENDROOT
TORSDOF 1
ENDMDL
MODEL 5
REMARK VINA RESULT:      -8.0      8.401     10.746
REMARK  1 active torsions:
REMARK  status: ('A' for Active; 'I' for Inactive)
REMARK    1  A    between atoms: C5_7  and  C14_19 
ROOT
HETATM    1  C1  UNL     1      32.005   3.732  47.208  1.00  0.00     0.067 C 
HETATM    2  C2  UNL     1      31.362   4.850  47.977  1.00  0.00     0.026 C 
HETATM    3  N1  UNL     1      30.111   5.058  47.665  1.00  0.00    -0.257 NA
HETATM    4  C3  UNL     1      29.437   6.112  48.359  1.00  0.00     0.184 C 
HETATM    5  N2  UNL     1      29.008   7.284  47.979  1.00  0.00    -0.224 NA
HETATM    6  C4  UNL     1      28.369   8.051  49.034  1.00  0.00     0.074 A 
HETATM    7  C5  UNL     1      29.443   8.834  48.837  1.00  0.00     0.075 A 
HETATM    8  C6  UNL     1      30.280   8.158  47.682  1.00  0.00     0.129 A 
HETATM    9  C7  UNL     1      30.154   9.436  47.572  1.00  0.00     0.132 A 
HETATM   10  O1  UNL     1      29.220   9.556  46.560  1.00  0.00    -0.355 OA
HETATM   11  C8  UNL     1      27.909  10.103  46.831  1.00  0.00     0.288 C 
HETATM   12  N3  UNL     1      26.960   9.096  47.024  1.00  0.00    -0.395 N 
HETATM   13  C9  UNL     1      26.695   8.308  45.889  1.00  0.00     0.145 C 
HETATM   14  C10 UNL     1      25.973   9.129  47.982  1.00  0.00     0.138 C 
HETATM   15  C11 UNL     1      26.424   9.040  49.421  1.00  0.00     0.140 C 
HETATM   16  N4  UNL     1      27.165   7.864  49.755  1.00  0.00    -0.381 N 
HETATM   17  C12 UNL     1      31.178   9.400  48.683  1.00  0.00     0.116 A 
HETATM   18  C13 UNL     1      31.042  10.676  48.622  1.00  0.00    -0.008 A 
HETATM   19  C14 UNL     1      29.910  10.120  49.503  1.00  0.00     0.085 A 
HETATM   20  O2  UNL     1      31.911   8.476  49.413  1.00  0.00    -0.349 OA
HETATM   21  C15 UNL     1      33.101   7.887  49.016  1.00  0.00     0.220 C 
HETATM   22  C16 UNL     1      33.681   8.756  47.889  1.00  0.00     0.054 C 
HETATM   23  C17 UNL     1      35.118   8.385  47.743  1.00  0.00     0.006 C 
HETATM   24  C18 UNL     1      35.389   7.000  48.209  1.00  0.00     0.020 C 
HETATM   25  C19 UNL     1      34.253   6.026  48.043  1.00  0.00     0.119 C 
HETATM   26  N5  UNL     1      32.979   6.578  48.413  1.00  0.00    -0.382 N 
HETATM   27  C20 UNL     1      32.056   5.692  49.020  1.00  0.00     0.173 C 
HETATM   28  H15 UNL     1      27.403   6.964  50.177  1.00  0.00     0.160 HD
ENDROOT
TORSDOF 1
ENDMDL
MODEL 6
REMARK VINA RESULT:      -7.9      8.744     11.464
REMARK  1 active torsions:
REMARK  status: ('A' for Active; 'I' for Inactive)
REMARK    1  A    between atoms: C5_7  and  C14_19 
ROOT
HETATM    1  C1  UNL     1      33.046   2.881  47.761  1.00  0.00     0.067 C 
HETATM    2  C2  UNL     1      32.828   4.363  47.858  1.00  0.00     0.026 C 
HETATM    3  N1  UNL     1      31.788   4.702  48.571  1.00  0.00    -0.257 NA
HETATM    4  C3  UNL     1      31.520   6.101  48.703  1.00  0.00     0.184 C 
HETATM    5  N2  UNL     1      30.578   6.867  48.225  1.00  0.00    -0.224 NA
HETATM    6  C4  UNL     1      30.693   8.261  48.615  1.00  0.00     0.074 A 
HETATM    7  C5  UNL     1      30.911   8.401  47.296  1.00  0.00     0.075 A 
HETATM    8  C6  UNL     1      30.807   6.955  46.673  1.00  0.00     0.129 A 
HETATM    9  C7  UNL     1      30.203   7.871  45.998  1.00  0.00     0.132 A 
HETATM   10  O1  UNL     1      28.874   7.627  46.291  1.00  0.00    -0.355 OA
HETATM   11  C8  UNL     1      28.102   8.586  47.049  1.00  0.00     0.288 C 
HETATM   12  N3  UNL     1      28.035   8.241  48.401  1.00  0.00    -0.395 N 
HETATM   13  C9  UNL     1      27.333   7.052  48.674  1.00  0.00     0.145 C 
HETATM   14  C10 UNL     1      28.132   9.138  49.441  1.00  0.00     0.138 C 
HETATM   15  C11 UNL     1      29.474   9.806  49.633  1.00  0.00     0.140 C 
HETATM   16  N4  UNL     1      30.569   8.917  49.864  1.00  0.00    -0.381 N 
HETATM   17  C12 UNL     1      31.627   8.209  45.622  1.00  0.00     0.116 A 
HETATM   18  C13 UNL     1      31.052   9.157  44.972  1.00  0.00    -0.008 A 
HETATM   19  C14 UNL     1      31.216   9.615  46.431  1.00  0.00     0.085 A 
HETATM   20  O2  UNL     1      32.916   7.748  45.846  1.00  0.00    -0.349 OA
HETATM   21  C15 UNL     1      33.541   6.718  45.160  1.00  0.00     0.220 C 
HETATM   22  C16 UNL     1      32.761   6.508  43.853  1.00  0.00     0.054 C 
HETATM   23  C17 UNL     1      33.637   5.717  42.941  1.00  0.00     0.006 C 
HETATM   24  C18 UNL     1      34.623   4.893  43.688  1.00  0.00     0.020 C 
HETATM   25  C19 UNL     1      34.174   4.411  45.042  1.00  0.00     0.119 C 
HETATM   26  N5  UNL     1      33.493   5.422  45.802  1.00  0.00    -0.382 N 
HETATM   27  C20 UNL     1      33.698   5.408  47.202  1.00  0.00     0.173 C 
HETATM   28  H15 UNL     1      31.333   8.435  50.341  1.00  0.00     0.160 HD
ENDROOT
TORSDOF 1
ENDMDL
MODEL 7
REMARK VINA RESULT:      -7.7      9.493     11.677
REMARK  1 active torsions:
REMARK  status: ('A' for Active; 'I' for Inactive)
REMARK    1  A    between atoms: C5_7  and  C14_19 
ROOT
HETATM    1  C1  UNL     1      34.581   6.990  43.037  1.00  0.00     0.067 C 
HETATM    2  C2  UNL     1      33.339   6.869  43.870  1.00  0.00     0.026 C 
HETATM    3  N1  UNL     1      32.757   8.010  44.126  1.00  0.00    -0.257 NA
HETATM    4  C3  UNL     1      31.567   7.968  44.919  1.00  0.00     0.184 C 
HETATM    5  N2  UNL     1      31.307   8.350  46.139  1.00  0.00    -0.224 NA
HETATM    6  C4  UNL     1      29.937   8.111  46.556  1.00  0.00     0.074 A 
HETATM    7  C5  UNL     1      30.554   7.257  47.390  1.00  0.00     0.075 A 
HETATM    8  C6  UNL     1      32.099   7.385  47.095  1.00  0.00     0.129 A 
HETATM    9  C7  UNL     1      31.795   7.351  48.347  1.00  0.00     0.132 A 
HETATM   10  O1  UNL     1      31.957   8.671  48.727  1.00  0.00    -0.355 OA
HETATM   11  C8  UNL     1      30.818   9.461  49.139  1.00  0.00     0.288 C 
HETATM   12  N3  UNL     1      30.335  10.252  48.094  1.00  0.00    -0.395 N 
HETATM   13  C9  UNL     1      31.218  11.258  47.657  1.00  0.00     0.145 C 
HETATM   14  C10 UNL     1      29.002  10.461  47.826  1.00  0.00     0.138 C 
HETATM   15  C11 UNL     1      28.215   9.265  47.340  1.00  0.00     0.140 C 
HETATM   16  N4  UNL     1      28.702   8.664  46.138  1.00  0.00    -0.381 N 
HETATM   17  C12 UNL     1      31.595   5.889  48.022  1.00  0.00     0.116 A 
HETATM   18  C13 UNL     1      31.249   5.835  49.258  1.00  0.00    -0.008 A 
HETATM   19  C14 UNL     1      30.027   6.294  48.444  1.00  0.00     0.085 A 
HETATM   20  O2  UNL     1      31.717   5.021  46.947  1.00  0.00    -0.349 OA
HETATM   21  C15 UNL     1      32.887   4.407  46.528  1.00  0.00     0.220 C 
HETATM   22  C16 UNL     1      33.880   4.481  47.697  1.00  0.00     0.054 C 
HETATM   23  C17 UNL     1      34.959   3.490  47.422  1.00  0.00     0.006 C 
HETATM   24  C18 UNL     1      35.109   3.215  45.969  1.00  0.00     0.020 C 
HETATM   25  C19 UNL     1      34.774   4.362  45.054  1.00  0.00     0.119 C 
HETATM   26  N5  UNL     1      33.582   5.064  45.443  1.00  0.00    -0.382 N 
HETATM   27  C20 UNL     1      32.775   5.571  44.397  1.00  0.00     0.173 C 
HETATM   28  H15 UNL     1      28.748   8.365  45.162  1.00  0.00     0.160 HD
ENDROOT
TORSDOF 1
ENDMDL
MODEL 8
REMARK VINA RESULT:      -7.6      8.862     11.573
REMARK  1 active torsions:
REMARK  status: ('A' for Active; 'I' for Inactive)
REMARK    1  A    between atoms: C5_7  and  C14_19 
ROOT
HETATM    1  C1  UNL     1      28.307   5.023  48.330  1.00  0.00     0.067 C 
HETATM    2  C2  UNL     1      29.246   6.175  48.549  1.00  0.00     0.026 C 
HETATM    3  N1  UNL     1      28.659   7.340  48.582  1.00  0.00    -0.257 NA
HETATM    4  C3  UNL     1      29.495   8.482  48.786  1.00  0.00     0.184 C 
HETATM    5  N2  UNL     1      29.859   9.459  48.001  1.00  0.00    -0.224 NA
HETATM    6  C4  UNL     1      30.741  10.427  48.629  1.00  0.00     0.074 A 
HETATM    7  C5  UNL     1      31.601   9.925  47.726  1.00  0.00     0.075 A 
HETATM    8  C6  UNL     1      30.803   8.837  46.909  1.00  0.00     0.129 A 
HETATM    9  C7  UNL     1      31.532   9.617  46.188  1.00  0.00     0.132 A 
HETATM   10  O1  UNL     1      30.592  10.454  45.615  1.00  0.00    -0.355 OA
HETATM   11  C8  UNL     1      30.561  11.861  45.949  1.00  0.00     0.288 C 
HETATM   12  N3  UNL     1      29.604  12.137  46.928  1.00  0.00    -0.395 N 
HETATM   13  C9  UNL     1      28.271  11.924  46.528  1.00  0.00     0.145 C 
HETATM   14  C10 UNL     1      29.789  13.010  47.975  1.00  0.00     0.138 C 
HETATM   15  C11 UNL     1      30.803  12.607  49.020  1.00  0.00     0.140 C 
HETATM   16  N4  UNL     1      30.543  11.362  49.673  1.00  0.00    -0.381 N 
HETATM   17  C12 UNL     1      32.626   8.750  46.766  1.00  0.00     0.116 A 
HETATM   18  C13 UNL     1      33.379   9.539  46.088  1.00  0.00    -0.008 A 
HETATM   19  C14 UNL     1      33.064  10.222  47.429  1.00  0.00     0.085 A 
HETATM   20  O2  UNL     1      32.772   7.653  47.603  1.00  0.00    -0.349 OA
HETATM   21  C15 UNL     1      32.646   6.324  47.229  1.00  0.00     0.220 C 
HETATM   22  C16 UNL     1      32.783   6.270  45.700  1.00  0.00     0.054 C 
HETATM   23  C17 UNL     1      33.062   4.853  45.332  1.00  0.00     0.006 C 
HETATM   24  C18 UNL     1      32.542   3.899  46.346  1.00  0.00     0.020 C 
HETATM   25  C19 UNL     1      31.306   4.345  47.083  1.00  0.00     0.119 C 
HETATM   26  N5  UNL     1      31.354   5.724  47.480  1.00  0.00    -0.382 N 
HETATM   27  C20 UNL     1      30.741   6.050  48.714  1.00  0.00     0.173 C 
HETATM   28  H15 UNL     1      30.304  10.693  50.406  1.00  0.00     0.160 HD
ENDROOT
TORSDOF 1
ENDMDL
MODEL 9
REMARK VINA RESULT:      -7.6      2.006      3.931
REMARK  1 active torsions:
REMARK  status: ('A' for Active; 'I' for Inactive)
REMARK    1  A    between atoms: C5_7  and  C14_19 
ROOT
HETATM    1  C1  UNL     1      26.906   4.476  49.537  1.00  0.00     0.067 C 
HETATM    2  C2  UNL     1      25.774   3.495  49.627  1.00  0.00     0.026 C 
HETATM    3  N1  UNL     1      24.631   3.963  49.205  1.00  0.00    -0.257 NA
HETATM    4  C3  UNL     1      23.507   3.080  49.264  1.00  0.00     0.184 C 
HETATM    5  N2  UNL     1      22.437   3.064  50.013  1.00  0.00    -0.224 NA
HETATM    6  C4  UNL     1      21.537   1.960  49.734  1.00  0.00     0.074 A 
HETATM    7  C5  UNL     1      21.913   1.606  50.975  1.00  0.00     0.075 A 
HETATM    8  C6  UNL     1      22.910   2.723  51.472  1.00  0.00     0.129 A 
HETATM    9  C7  UNL     1      22.037   2.358  52.348  1.00  0.00     0.132 A 
HETATM   10  O1  UNL     1      21.154   3.423  52.346  1.00  0.00    -0.355 OA
HETATM   11  C8  UNL     1      19.798   3.250  51.875  1.00  0.00     0.288 C 
HETATM   12  N3  UNL     1      19.656   3.666  50.549  1.00  0.00    -0.395 N 
HETATM   13  C9  UNL     1      19.842   5.045  50.339  1.00  0.00     0.145 C 
HETATM   14  C10 UNL     1      18.910   3.005  49.600  1.00  0.00     0.138 C 
HETATM   15  C11 UNL     1      19.417   1.649  49.166  1.00  0.00     0.140 C 
HETATM   16  N4  UNL     1      20.735   1.642  48.611  1.00  0.00    -0.381 N 
HETATM   17  C12 UNL     1      22.948   1.156  52.416  1.00  0.00     0.116 A 
HETATM   18  C13 UNL     1      22.072   0.750  53.263  1.00  0.00    -0.008 A 
HETATM   19  C14 UNL     1      21.558   0.415  51.853  1.00  0.00     0.085 A 
HETATM   20  O2  UNL     1      24.134   0.696  51.861  1.00  0.00    -0.349 OA
HETATM   21  C15 UNL     1      25.411   1.023  52.290  1.00  0.00     0.220 C 
HETATM   22  C16 UNL     1      25.281   1.578  53.717  1.00  0.00     0.054 C 
HETATM   23  C17 UNL     1      26.640   1.543  54.328  1.00  0.00     0.006 C 
HETATM   24  C18 UNL     1      27.716   1.598  53.304  1.00  0.00     0.020 C 
HETATM   25  C19 UNL     1      27.382   2.364  52.052  1.00  0.00     0.119 C 
HETATM   26  N5  UNL     1      26.059   2.093  51.563  1.00  0.00    -0.382 N 
HETATM   27  C20 UNL     1      25.892   2.086  50.157  1.00  0.00     0.173 C 
HETATM   28  H15 UNL     1      21.491   1.557  47.930  1.00  0.00     0.160 HD
ENDROOT
TORSDOF 1
ENDMDL
