MODEL 1
REMARK VINA RESULT:      -8.5      0.000      0.000
REMARK  3 active torsions:
REMARK  status: ('A' for Active; 'I' for Inactive)
REMARK    1  A    between atoms: C8_13  and  N5_14 
REMARK    2  A    between atoms: N5_14  and  C9_15 
REMARK    3  A    between atoms: C9_15  and  C10_16 
ROOT
HETATM    1  N1  UNL     1      30.154  -0.918  53.507  1.00  0.00    -0.172 NA
HETATM    2  C1  UNL     1      29.258  -0.244  53.712  1.00  0.00     0.179 C 
HETATM    3  N2  UNL     1      28.160   0.562  53.979  1.00  0.00    -0.315 N 
HETATM    4  C2  UNL     1      27.945   1.904  53.571  1.00  0.00     0.139 C 
HETATM    5  C3  UNL     1      26.905   2.146  52.539  1.00  0.00     0.061 C 
HETATM    6  C4  UNL     1      25.708   1.312  52.799  1.00  0.00    -0.025 A 
HETATM    7  C5  UNL     1      25.837   0.436  53.866  1.00  0.00     0.011 A 
HETATM    8  S1  UNL     1      24.275  -0.416  53.983  1.00  0.00    -0.072 SA
HETATM    9  C6  UNL     1      23.521   0.446  52.589  1.00  0.00     0.114 A 
HETATM   10  N3  UNL     1      22.279   0.266  52.111  1.00  0.00    -0.234 NA
HETATM   11  C7  UNL     1      21.890   0.996  51.060  1.00  0.00     0.236 A 
HETATM   12  N4  UNL     1      22.812   1.835  50.605  1.00  0.00    -0.224 NA
HETATM   13  C8  UNL     1      24.044   2.013  51.080  1.00  0.00     0.138 A 
HETATM   14  C16 UNL     1      24.499   1.294  52.157  1.00  0.00     0.053 A 
HETATM   15  C17 UNL     1      26.982   0.203  54.740  1.00  0.00     0.181 C 
ENDROOT
BRANCH  13  16
HETATM   16  N5  UNL     1      24.761   2.969  50.324  1.00  0.00    -0.370 N 
HETATM   17  H6  UNL     1      25.496   2.704  49.645  1.00  0.00     0.161 HD
BRANCH  16  18
HETATM   18  C9  UNL     1      24.614   4.407  50.337  1.00  0.00     0.160 C 
BRANCH  18  19
HETATM   19  C10 UNL     1      25.699   5.109  49.584  1.00  0.00    -0.041 A 
HETATM   20  C11 UNL     1      25.803   6.404  49.151  1.00  0.00     0.009 A 
HETATM   21  C12 UNL     1      26.908   6.850  48.488  1.00  0.00     0.001 A 
HETATM   22  C13 UNL     1      27.990   6.043  48.205  1.00  0.00     0.000 A 
HETATM   23  C14 UNL     1      27.916   4.749  48.623  1.00  0.00     0.001 A 
HETATM   24  C15 UNL     1      26.797   4.301  49.295  1.00  0.00     0.009 A 
ENDBRANCH  18  19
ENDBRANCH  16  18
ENDBRANCH  13  16
TORSDOF 3
ENDMDL
MODEL 2
REMARK VINA RESULT:      -8.4      3.991      6.821
REMARK  3 active torsions:
REMARK  status: ('A' for Active; 'I' for Inactive)
REMARK    1  A    between atoms: C8_13  and  N5_14 
REMARK    2  A    between atoms: N5_14  and  C9_15 
REMARK    3  A    between atoms: C9_15  and  C10_16 
ROOT
HETATM    1  N1  UNL     1      18.445   3.625  51.692  1.00  0.00    -0.172 NA
HETATM    2  C1  UNL     1      19.086   2.688  51.595  1.00  0.00     0.179 C 
HETATM    3  N2  UNL     1      19.849   1.534  51.482  1.00  0.00    -0.315 N 
HETATM    4  C2  UNL     1      21.085   1.370  50.804  1.00  0.00     0.139 C 
HETATM    5  C3  UNL     1      22.299   1.171  51.636  1.00  0.00     0.061 C 
HETATM    6  C4  UNL     1      22.013   0.256  52.765  1.00  0.00    -0.025 A 
HETATM    7  C5  UNL     1      20.689  -0.142  52.864  1.00  0.00     0.011 A 
HETATM    8  S1  UNL     1      20.619  -1.245  54.264  1.00  0.00    -0.072 SA
HETATM    9  C6  UNL     1      22.376  -1.117  54.652  1.00  0.00     0.114 A 
HETATM   10  N3  UNL     1      23.022  -1.734  55.655  1.00  0.00    -0.234 NA
HETATM   11  C7  UNL     1      24.335  -1.517  55.794  1.00  0.00     0.236 A 
HETATM   12  N4  UNL     1      24.851  -0.690  54.893  1.00  0.00    -0.224 NA
HETATM   13  C8  UNL     1      24.208  -0.079  53.899  1.00  0.00     0.138 A 
HETATM   14  C16 UNL     1      22.862  -0.265  53.705  1.00  0.00     0.053 A 
HETATM   15  C17 UNL     1      19.546   0.233  52.038  1.00  0.00     0.181 C 
ENDROOT
BRANCH  13  16
HETATM   16  N5  UNL     1      25.075   0.755  53.154  1.00  0.00    -0.370 N 
HETATM   17  H6  UNL     1      25.119   1.779  53.297  1.00  0.00     0.161 HD
BRANCH  16  18
HETATM   18  C9  UNL     1      26.014   0.372  52.125  1.00  0.00     0.160 C 
BRANCH  18  19
HETATM   19  C10 UNL     1      27.291  -0.175  52.678  1.00  0.00    -0.041 A 
HETATM   20  C11 UNL     1      27.754  -1.460  52.775  1.00  0.00     0.009 A 
HETATM   21  C12 UNL     1      28.979  -1.741  53.305  1.00  0.00     0.001 A 
HETATM   22  C13 UNL     1      29.834  -0.766  53.777  1.00  0.00     0.000 A 
HETATM   23  C14 UNL     1      29.401   0.522  53.694  1.00  0.00     0.001 A 
HETATM   24  C15 UNL     1      28.162   0.803  53.157  1.00  0.00     0.009 A 
ENDBRANCH  18  19
ENDBRANCH  16  18
ENDBRANCH  13  16
TORSDOF 3
ENDMDL
MODEL 3
REMARK VINA RESULT:      -8.3      1.478      4.778
REMARK  3 active torsions:
REMARK  status: ('A' for Active; 'I' for Inactive)
REMARK    1  A    between atoms: C8_13  and  N5_14 
REMARK    2  A    between atoms: N5_14  and  C9_15 
REMARK    3  A    between atoms: C9_15  and  C10_16 
ROOT
HETATM    1  N1  UNL     1      19.300   3.237  52.327  1.00  0.00    -0.172 NA
HETATM    2  C1  UNL     1      20.176   2.660  51.880  1.00  0.00     0.179 C 
HETATM    3  N2  UNL     1      21.236   1.940  51.347  1.00  0.00    -0.315 N 
HETATM    4  C2  UNL     1      22.070   2.296  50.256  1.00  0.00     0.139 C 
HETATM    5  C3  UNL     1      23.476   2.663  50.562  1.00  0.00     0.061 C 
HETATM    6  C4  UNL     1      24.042   1.752  51.585  1.00  0.00    -0.025 A 
HETATM    7  C5  UNL     1      23.141   0.830  52.097  1.00  0.00     0.011 A 
HETATM    8  S1  UNL     1      24.065  -0.149  53.267  1.00  0.00    -0.072 SA
HETATM    9  C6  UNL     1      25.620   0.729  53.013  1.00  0.00     0.114 A 
HETATM   10  N3  UNL     1      26.790   0.482  53.625  1.00  0.00    -0.234 NA
HETATM   11  C7  UNL     1      27.845   1.243  53.312  1.00  0.00     0.236 A 
HETATM   12  N4  UNL     1      27.594   2.180  52.406  1.00  0.00    -0.224 NA
HETATM   13  C8  UNL     1      26.432   2.424  51.800  1.00  0.00     0.138 A 
HETATM   14  C16 UNL     1      25.316   1.676  52.079  1.00  0.00     0.053 A 
HETATM   15  C17 UNL     1      21.725   0.653  51.794  1.00  0.00     0.181 C 
ENDROOT
BRANCH  13  16
HETATM   16  N5  UNL     1      26.529   3.523  50.915  1.00  0.00    -0.370 N 
HETATM   17  H6  UNL     1      26.413   4.502  51.229  1.00  0.00     0.161 HD
BRANCH  16  18
HETATM   18  C9  UNL     1      26.800   3.502  49.495  1.00  0.00     0.160 C 
BRANCH  18  19
HETATM   19  C10 UNL     1      26.895   4.871  48.902  1.00  0.00    -0.041 A 
HETATM   20  C11 UNL     1      25.953   5.854  48.750  1.00  0.00     0.009 A 
HETATM   21  C12 UNL     1      26.261   7.059  48.190  1.00  0.00     0.001 A 
HETATM   22  C13 UNL     1      27.526   7.376  47.740  1.00  0.00     0.000 A 
HETATM   23  C14 UNL     1      28.484   6.419  47.878  1.00  0.00     0.001 A 
HETATM   24  C15 UNL     1      28.170   5.201  48.445  1.00  0.00     0.009 A 
ENDBRANCH  18  19
ENDBRANCH  16  18
ENDBRANCH  13  16
TORSDOF 3
ENDMDL
MODEL 4
REMARK VINA RESULT:      -8.2      1.543      1.966
REMARK  3 active torsions:
REMARK  status: ('A' for Active; 'I' for Inactive)
REMARK    1  A    between atoms: C8_13  and  N5_14 
REMARK    2  A    between atoms: N5_14  and  C9_15 
REMARK    3  A    between atoms: C9_15  and  C10_16 
ROOT
HETATM    1  N1  UNL     1      27.753  -2.727  52.662  1.00  0.00    -0.172 NA
HETATM    2  C1  UNL     1      27.301  -1.746  53.026  1.00  0.00     0.179 C 
HETATM    3  N2  UNL     1      26.733  -0.564  53.481  1.00  0.00    -0.315 N 
HETATM    4  C2  UNL     1      27.329   0.722  53.538  1.00  0.00     0.139 C 
HETATM    5  C3  UNL     1      26.832   1.748  52.586  1.00  0.00     0.061 C 
HETATM    6  C4  UNL     1      25.355   1.684  52.475  1.00  0.00    -0.025 A 
HETATM    7  C5  UNL     1      24.768   0.651  53.189  1.00  0.00     0.011 A 
HETATM    8  S1  UNL     1      23.013   0.811  52.915  1.00  0.00    -0.072 SA
HETATM    9  C6  UNL     1      23.152   2.260  51.850  1.00  0.00     0.114 A 
HETATM   10  N3  UNL     1      22.143   2.925  51.264  1.00  0.00    -0.234 NA
HETATM   11  C7  UNL     1      22.437   3.982  50.499  1.00  0.00     0.236 A 
HETATM   12  N4  UNL     1      23.734   4.251  50.411  1.00  0.00    -0.224 NA
HETATM   13  C8  UNL     1      24.734   3.591  50.994  1.00  0.00     0.138 A 
HETATM   14  C16 UNL     1      24.494   2.499  51.791  1.00  0.00     0.053 A 
HETATM   15  C17 UNL     1      25.395  -0.386  54.002  1.00  0.00     0.181 C 
ENDROOT
BRANCH  13  16
HETATM   16  N5  UNL     1      25.990   4.142  50.651  1.00  0.00    -0.370 N 
HETATM   17  H6  UNL     1      26.489   4.813  51.262  1.00  0.00     0.161 HD
BRANCH  16  18
HETATM   18  C9  UNL     1      26.781   3.892  49.467  1.00  0.00     0.160 C 
BRANCH  18  19
HETATM   19  C10 UNL     1      27.227   5.148  48.790  1.00  0.00    -0.041 A 
HETATM   20  C11 UNL     1      26.551   6.303  48.497  1.00  0.00     0.009 A 
HETATM   21  C12 UNL     1      27.164   7.354  47.882  1.00  0.00     0.001 A 
HETATM   22  C13 UNL     1      28.493   7.336  47.513  1.00  0.00     0.000 A 
HETATM   23  C14 UNL     1      29.192   6.202  47.791  1.00  0.00     0.001 A 
HETATM   24  C15 UNL     1      28.569   5.139  48.414  1.00  0.00     0.009 A 
ENDBRANCH  18  19
ENDBRANCH  16  18
ENDBRANCH  13  16
TORSDOF 3
ENDMDL
MODEL 5
REMARK VINA RESULT:      -8.2      2.884      6.232
REMARK  3 active torsions:
REMARK  status: ('A' for Active; 'I' for Inactive)
REMARK    1  A    between atoms: C8_13  and  N5_14 
REMARK    2  A    between atoms: N5_14  and  C9_15 
REMARK    3  A    between atoms: C9_15  and  C10_16 
ROOT
HETATM    1  N1  UNL     1      23.640   6.596  51.207  1.00  0.00    -0.172 NA
HETATM    2  C1  UNL     1      23.468   5.488  51.005  1.00  0.00     0.179 C 
HETATM    3  N2  UNL     1      23.236   4.142  50.754  1.00  0.00    -0.315 N 
HETATM    4  C2  UNL     1      24.192   3.128  50.494  1.00  0.00     0.139 C 
HETATM    5  C3  UNL     1      24.408   2.104  51.548  1.00  0.00     0.061 C 
HETATM    6  C4  UNL     1      23.115   1.688  52.142  1.00  0.00    -0.025 A 
HETATM    7  C5  UNL     1      22.014   2.384  51.670  1.00  0.00     0.011 A 
HETATM    8  S1  UNL     1      20.604   1.683  52.508  1.00  0.00    -0.072 SA
HETATM    9  C6  UNL     1      21.565   0.486  53.456  1.00  0.00     0.114 A 
HETATM   10  N3  UNL     1      21.087  -0.408  54.338  1.00  0.00    -0.234 NA
HETATM   11  C7  UNL     1      21.954  -1.219  54.954  1.00  0.00     0.236 A 
HETATM   12  N4  UNL     1      23.221  -1.031  54.605  1.00  0.00    -0.224 NA
HETATM   13  C8  UNL     1      23.693  -0.145  53.730  1.00  0.00     0.138 A 
HETATM   14  C16 UNL     1      22.852   0.712  53.066  1.00  0.00     0.053 A 
HETATM   15  C17 UNL     1      21.952   3.476  50.704  1.00  0.00     0.181 C 
ENDROOT
BRANCH  13  16
HETATM   16  N5  UNL     1      25.103  -0.209  53.634  1.00  0.00    -0.370 N 
HETATM   17  H6  UNL     1      25.728   0.300  54.284  1.00  0.00     0.161 HD
BRANCH  16  18
HETATM   18  C9  UNL     1      25.899  -0.952  52.684  1.00  0.00     0.160 C 
BRANCH  18  19
HETATM   19  C10 UNL     1      27.355  -0.956  53.023  1.00  0.00    -0.041 A 
HETATM   20  C11 UNL     1      28.279  -1.967  53.015  1.00  0.00     0.009 A 
HETATM   21  C12 UNL     1      29.583  -1.746  53.347  1.00  0.00     0.001 A 
HETATM   22  C13 UNL     1      30.065  -0.506  53.711  1.00  0.00     0.000 A 
HETATM   23  C14 UNL     1      29.170   0.519  53.729  1.00  0.00     0.001 A 
HETATM   24  C15 UNL     1      27.851   0.293  53.392  1.00  0.00     0.009 A 
ENDBRANCH  18  19
ENDBRANCH  16  18
ENDBRANCH  13  16
TORSDOF 3
ENDMDL
MODEL 6
REMARK VINA RESULT:      -8.0      1.588      1.862
REMARK  3 active torsions:
REMARK  status: ('A' for Active; 'I' for Inactive)
REMARK    1  A    between atoms: C8_13  and  N5_14 
REMARK    2  A    between atoms: N5_14  and  C9_15 
REMARK    3  A    between atoms: C9_15  and  C10_16 
ROOT
HETATM    1  N1  UNL     1      27.704  -2.539  52.849  1.00  0.00    -0.172 NA
HETATM    2  C1  UNL     1      27.006  -1.671  53.090  1.00  0.00     0.179 C 
HETATM    3  N2  UNL     1      26.147  -0.626  53.399  1.00  0.00    -0.315 N 
HETATM    4  C2  UNL     1      26.269   0.739  53.035  1.00  0.00     0.139 C 
HETATM    5  C3  UNL     1      25.313   1.267  52.029  1.00  0.00     0.061 C 
HETATM    6  C4  UNL     1      23.948   0.749  52.286  1.00  0.00    -0.025 A 
HETATM    7  C5  UNL     1      23.865  -0.166  53.324  1.00  0.00     0.011 A 
HETATM    8  S1  UNL     1      22.141  -0.605  53.444  1.00  0.00    -0.072 SA
HETATM    9  C6  UNL     1      21.612   0.462  52.089  1.00  0.00     0.114 A 
HETATM   10  N3  UNL     1      20.360   0.613  51.629  1.00  0.00    -0.234 NA
HETATM   11  C7  UNL     1      20.154   1.451  50.607  1.00  0.00     0.236 A 
HETATM   12  N4  UNL     1      21.252   2.048  50.160  1.00  0.00    -0.224 NA
HETATM   13  C8  UNL     1      22.494   1.897  50.618  1.00  0.00     0.138 A 
HETATM   14  C16 UNL     1      22.766   1.053  51.665  1.00  0.00     0.053 A 
HETATM   15  C17 UNL     1      24.925  -0.705  54.170  1.00  0.00     0.181 C 
ENDROOT
BRANCH  13  16
HETATM   16  N5  UNL     1      23.419   2.670  49.877  1.00  0.00    -0.370 N 
HETATM   17  H6  UNL     1      24.235   2.251  49.396  1.00  0.00     0.161 HD
BRANCH  16  18
HETATM   18  C9  UNL     1      23.408   4.097  49.650  1.00  0.00     0.160 C 
BRANCH  18  19
HETATM   19  C10 UNL     1      24.749   4.635  49.265  1.00  0.00    -0.041 A 
HETATM   20  C11 UNL     1      25.126   5.866  48.796  1.00  0.00     0.009 A 
HETATM   21  C12 UNL     1      26.429   6.158  48.521  1.00  0.00     0.001 A 
HETATM   22  C13 UNL     1      27.454   5.249  48.690  1.00  0.00     0.000 A 
HETATM   23  C14 UNL     1      27.110   4.016  49.154  1.00  0.00     0.001 A 
HETATM   24  C15 UNL     1      25.791   3.724  49.433  1.00  0.00     0.009 A 
ENDBRANCH  18  19
ENDBRANCH  16  18
ENDBRANCH  13  16
TORSDOF 3
ENDMDL
MODEL 7
REMARK VINA RESULT:      -7.6      2.394      6.215
REMARK  3 active torsions:
REMARK  status: ('A' for Active; 'I' for Inactive)
REMARK    1  A    between atoms: C8_13  and  N5_14 
REMARK    2  A    between atoms: N5_14  and  C9_15 
REMARK    3  A    between atoms: C9_15  and  C10_16 
ROOT
HETATM    1  N1  UNL     1      26.959   8.486  49.902  1.00  0.00    -0.172 NA
HETATM    2  C1  UNL     1      26.561   7.493  49.508  1.00  0.00     0.179 C 
HETATM    3  N2  UNL     1      26.058   6.296  49.018  1.00  0.00    -0.315 N 
HETATM    4  C2  UNL     1      26.735   5.056  48.886  1.00  0.00     0.139 C 
HETATM    5  C3  UNL     1      26.339   3.959  49.806  1.00  0.00     0.061 C 
HETATM    6  C4  UNL     1      24.866   3.919  49.964  1.00  0.00    -0.025 A 
HETATM    7  C5  UNL     1      24.188   4.939  49.315  1.00  0.00     0.011 A 
HETATM    8  S1  UNL     1      22.458   4.650  49.633  1.00  0.00    -0.072 SA
HETATM    9  C6  UNL     1      22.727   3.169  50.628  1.00  0.00     0.114 A 
HETATM   10  N3  UNL     1      21.784   2.414  51.214  1.00  0.00    -0.234 NA
HETATM   11  C7  UNL     1      22.172   1.347  51.922  1.00  0.00     0.236 A 
HETATM   12  N4  UNL     1      23.486   1.163  51.958  1.00  0.00    -0.224 NA
HETATM   13  C8  UNL     1      24.421   1.914  51.376  1.00  0.00     0.138 A 
HETATM   14  C16 UNL     1      24.083   3.019  50.636  1.00  0.00     0.053 A 
HETATM   15  C17 UNL     1      24.718   6.050  48.530  1.00  0.00     0.181 C 
ENDROOT
BRANCH  13  16
HETATM   16  N5  UNL     1      25.721   1.434  51.657  1.00  0.00    -0.370 N 
HETATM   17  H6  UNL     1      26.169   0.684  51.100  1.00  0.00     0.161 HD
BRANCH  16  18
HETATM   18  C9  UNL     1      26.628   1.869  52.695  1.00  0.00     0.160 C 
BRANCH  18  19
HETATM   19  C10 UNL     1      27.690   0.861  52.998  1.00  0.00    -0.041 A 
HETATM   20  C11 UNL     1      28.956   1.010  53.500  1.00  0.00     0.009 A 
HETATM   21  C12 UNL     1      29.768  -0.063  53.723  1.00  0.00     0.001 A 
HETATM   22  C13 UNL     1      29.382  -1.362  53.464  1.00  0.00     0.000 A 
HETATM   23  C14 UNL     1      28.129  -1.542  52.964  1.00  0.00     0.001 A 
HETATM   24  C15 UNL     1      27.309  -0.454  52.740  1.00  0.00     0.009 A 
ENDBRANCH  18  19
ENDBRANCH  16  18
ENDBRANCH  13  16
TORSDOF 3
ENDMDL
MODEL 8
REMARK VINA RESULT:      -7.6      2.718      5.865
REMARK  3 active torsions:
REMARK  status: ('A' for Active; 'I' for Inactive)
REMARK    1  A    between atoms: C8_13  and  N5_14 
REMARK    2  A    between atoms: N5_14  and  C9_15 
REMARK    3  A    between atoms: C9_15  and  C10_16 
ROOT
HETATM    1  N1  UNL     1      18.530   3.764  50.339  1.00  0.00    -0.172 NA
HETATM    2  C1  UNL     1      19.062   2.759  50.411  1.00  0.00     0.179 C 
HETATM    3  N2  UNL     1      19.690   1.525  50.506  1.00  0.00    -0.315 N 
HETATM    4  C2  UNL     1      20.934   1.136  49.945  1.00  0.00     0.139 C 
HETATM    5  C3  UNL     1      22.069   0.925  50.879  1.00  0.00     0.061 C 
HETATM    6  C4  UNL     1      21.616   0.212  52.097  1.00  0.00    -0.025 A 
HETATM    7  C5  UNL     1      20.252  -0.023  52.154  1.00  0.00     0.011 A 
HETATM    8  S1  UNL     1      19.976  -0.905  53.679  1.00  0.00    -0.072 SA
HETATM    9  C6  UNL     1      21.712  -0.915  54.170  1.00  0.00     0.114 A 
HETATM   10  N3  UNL     1      22.226  -1.452  55.289  1.00  0.00    -0.234 NA
HETATM   11  C7  UNL     1      23.545  -1.361  55.490  1.00  0.00     0.236 A 
HETATM   12  N4  UNL     1      24.203  -0.728  54.526  1.00  0.00    -0.224 NA
HETATM   13  C8  UNL     1      23.692  -0.196  53.417  1.00  0.00     0.138 A 
HETATM   14  C16 UNL     1      22.346  -0.261  53.155  1.00  0.00     0.053 A 
HETATM   15  C17 UNL     1      19.207   0.354  51.207  1.00  0.00     0.181 C 
ENDROOT
BRANCH  13  16
HETATM   16  N5  UNL     1      24.689   0.427  52.631  1.00  0.00    -0.370 N 
HETATM   17  H6  UNL     1      25.024   0.026  51.737  1.00  0.00     0.161 HD
BRANCH  16  18
HETATM   18  C9  UNL     1      25.386   1.665  52.894  1.00  0.00     0.160 C 
BRANCH  18  19
HETATM   19  C10 UNL     1      25.310   2.628  51.752  1.00  0.00    -0.041 A 
HETATM   20  C11 UNL     1      24.413   3.625  51.472  1.00  0.00     0.009 A 
HETATM   21  C12 UNL     1      24.542   4.413  50.366  1.00  0.00     0.001 A 
HETATM   22  C13 UNL     1      25.571   4.269  49.458  1.00  0.00     0.000 A 
HETATM   23  C14 UNL     1      26.478   3.286  49.709  1.00  0.00     0.001 A 
HETATM   24  C15 UNL     1      26.345   2.490  50.829  1.00  0.00     0.009 A 
ENDBRANCH  18  19
ENDBRANCH  16  18
ENDBRANCH  13  16
TORSDOF 3
ENDMDL
MODEL 9
REMARK VINA RESULT:      -7.6      2.181      3.215
REMARK  3 active torsions:
REMARK  status: ('A' for Active; 'I' for Inactive)
REMARK    1  A    between atoms: C8_13  and  N5_14 
REMARK    2  A    between atoms: N5_14  and  C9_15 
REMARK    3  A    between atoms: C9_15  and  C10_16 
ROOT
HETATM    1  N1  UNL     1      27.546  -2.188  52.777  1.00  0.00    -0.172 NA
HETATM    2  C1  UNL     1      26.755  -1.433  53.096  1.00  0.00     0.179 C 
HETATM    3  N2  UNL     1      25.789  -0.523  53.504  1.00  0.00    -0.315 N 
HETATM    4  C2  UNL     1      25.498   0.747  52.945  1.00  0.00     0.139 C 
HETATM    5  C3  UNL     1      24.219   0.891  52.204  1.00  0.00     0.061 C 
HETATM    6  C4  UNL     1      23.123   0.190  52.913  1.00  0.00    -0.025 A 
HETATM    7  C5  UNL     1      23.522  -0.511  54.040  1.00  0.00     0.011 A 
HETATM    8  S1  UNL     1      22.035  -1.227  54.716  1.00  0.00    -0.072 SA
HETATM    9  C6  UNL     1      20.946  -0.550  53.448  1.00  0.00     0.114 A 
HETATM   10  N3  UNL     1      19.616  -0.721  53.358  1.00  0.00    -0.234 NA
HETATM   11  C7  UNL     1      18.968  -0.143  52.340  1.00  0.00     0.236 A 
HETATM   12  N4  UNL     1      19.747   0.549  51.518  1.00  0.00    -0.224 NA
HETATM   13  C8  UNL     1      21.066   0.717  51.608  1.00  0.00     0.138 A 
HETATM   14  C16 UNL     1      21.784   0.151  52.631  1.00  0.00     0.053 A 
HETATM   15  C17 UNL     1      24.859  -0.677  54.603  1.00  0.00     0.181 C 
ENDROOT
BRANCH  13  16
HETATM   16  N5  UNL     1      21.566   1.492  50.536  1.00  0.00    -0.370 N 
HETATM   17  H6  UNL     1      22.047   1.069  49.722  1.00  0.00     0.161 HD
BRANCH  16  18
HETATM   18  C9  UNL     1      21.502   2.925  50.365  1.00  0.00     0.160 C 
BRANCH  18  19
HETATM   19  C10 UNL     1      22.848   3.549  50.179  1.00  0.00    -0.041 A 
HETATM   20  C11 UNL     1      23.895   3.206  49.364  1.00  0.00     0.009 A 
HETATM   21  C12 UNL     1      25.047   3.936  49.335  1.00  0.00     0.001 A 
HETATM   22  C13 UNL     1      25.244   5.058  50.113  1.00  0.00     0.000 A 
HETATM   23  C14 UNL     1      24.221   5.424  50.933  1.00  0.00     0.001 A 
HETATM   24  C15 UNL     1      23.057   4.684  50.961  1.00  0.00     0.009 A 
ENDBRANCH  18  19
ENDBRANCH  16  18
ENDBRANCH  13  16
TORSDOF 3
ENDMDL
