MODEL 1
REMARK VINA RESULT:      -8.6      0.000      0.000
REMARK  5 active torsions:
REMARK  status: ('A' for Active; 'I' for Inactive)
REMARK    1  A    between atoms: C1_2  and  C2_4 
REMARK    2  A    between atoms: C2_4  and  O1_6 
REMARK    3  A    between atoms: O1_6  and  C3_7 
REMARK    4  A    between atoms: C4_8  and  C5_9 
REMARK    5  A    between atoms: C6_10  and  C7_11 
ROOT
HETATM    1  C7  UNL     1      24.040   1.677  51.562  1.00  0.00     0.032 C 
HETATM    2  C8  UNL     1      22.795   1.758  51.039  1.00  0.00     0.043 C 
HETATM    3  C9  UNL     1      21.414   1.191  51.303  1.00  0.00    -0.004 A 
HETATM    4  C10 UNL     1      20.557   1.538  50.375  1.00  0.00     0.128 A 
HETATM    5  N1  UNL     1      19.400   0.919  50.597  1.00  0.00    -0.272 NA
HETATM    6  C11 UNL     1      19.114   0.073  51.588  1.00  0.00     0.117 A 
HETATM    7  C12 UNL     1      20.041  -0.296  52.582  1.00  0.00     0.034 A 
HETATM    8  C13 UNL     1      21.258   0.353  52.359  1.00  0.00     0.013 A 
HETATM    9  C14 UNL     1      21.931  -0.303  53.528  1.00  0.00     0.173 A 
HETATM   10  C15 UNL     1      21.138  -0.907  54.548  1.00  0.00     0.066 A 
HETATM   11  C16 UNL     1      22.512  -1.192  54.975  1.00  0.00     0.353 A 
HETATM   12  N2  UNL     1      23.595  -0.819  54.342  1.00  0.00    -0.032 NA
HETATM   13  C17 UNL     1      24.317  -0.311  53.503  1.00  0.00     0.385 A 
HETATM   14  N3  UNL     1      23.152  -0.558  53.929  1.00  0.00     0.105 N 
HETATM   15  N4  UNL     1      24.130   0.608  52.567  1.00  0.00    -0.336 N 
HETATM   16  H13 UNL     1      25.144   0.759  53.015  1.00  0.00     0.163 HD
ENDROOT
BRANCH   1  17
HETATM   17  C6  UNL     1      25.092   2.484  51.243  1.00  0.00     0.029 C 
HETATM   18  C5  UNL     1      26.373   2.525  51.368  1.00  0.00     0.004 C 
BRANCH  18  19
HETATM   19  C4  UNL     1      27.167   1.497  52.029  1.00  0.00     0.024 C 
HETATM   20  C3  UNL     1      27.759   1.894  53.156  1.00  0.00     0.138 C 
BRANCH  20  21
HETATM   21  O1  UNL     1      28.541   1.666  54.240  1.00  0.00    -0.322 OA
BRANCH  21  22
HETATM   22  C2  UNL     1      28.604   0.372  54.846  1.00  0.00     0.376 C 
HETATM   23  F3  UNL     1      27.296  -0.092  54.895  1.00  0.00    -0.213 F 
BRANCH  22  24
HETATM   24  C1  UNL     1      29.433  -0.597  54.050  1.00  0.00     0.413 C 
HETATM   25  F1  UNL     1      28.568  -1.295  53.203  1.00  0.00    -0.209 F 
HETATM   26  F2  UNL     1      30.374   0.018  53.247  1.00  0.00    -0.209 F 
ENDBRANCH  22  24
ENDBRANCH  21  22
ENDBRANCH  20  21
ENDBRANCH  18  19
ENDBRANCH   1  17
TORSDOF 5
ENDMDL
MODEL 2
REMARK VINA RESULT:      -8.3      3.790      6.632
REMARK  5 active torsions:
REMARK  status: ('A' for Active; 'I' for Inactive)
REMARK    1  A    between atoms: C1_2  and  C2_4 
REMARK    2  A    between atoms: C2_4  and  O1_6 
REMARK    3  A    between atoms: O1_6  and  C3_7 
REMARK    4  A    between atoms: C4_8  and  C5_9 
REMARK    5  A    between atoms: C6_10  and  C7_11 
ROOT
HETATM    1  C7  UNL     1      23.841  -0.351  53.836  1.00  0.00     0.032 C 
HETATM    2  C8  UNL     1      23.864   0.482  52.771  1.00  0.00     0.043 C 
HETATM    3  C9  UNL     1      24.866   1.336  52.020  1.00  0.00    -0.004 A 
HETATM    4  C10 UNL     1      24.293   2.056  51.087  1.00  0.00     0.128 A 
HETATM    5  N1  UNL     1      25.199   2.866  50.543  1.00  0.00    -0.272 NA
HETATM    6  C11 UNL     1      26.490   2.965  50.866  1.00  0.00     0.117 A 
HETATM    7  C12 UNL     1      27.099   2.188  51.871  1.00  0.00     0.034 A 
HETATM    8  C13 UNL     1      26.155   1.331  52.444  1.00  0.00     0.013 A 
HETATM    9  C14 UNL     1      27.133   0.755  53.425  1.00  0.00     0.173 A 
HETATM   10  C15 UNL     1      28.532   0.913  53.198  1.00  0.00     0.066 A 
HETATM   11  C16 UNL     1      28.474   0.210  54.485  1.00  0.00     0.353 A 
HETATM   12  N2  UNL     1      27.380  -0.158  55.098  1.00  0.00    -0.032 NA
HETATM   13  C17 UNL     1      26.197  -0.327  55.334  1.00  0.00     0.385 A 
HETATM   14  N3  UNL     1      27.100   0.120  54.570  1.00  0.00     0.105 N 
HETATM   15  N4  UNL     1      25.099  -0.288  54.593  1.00  0.00    -0.336 N 
HETATM   16  H13 UNL     1      24.999  -1.123  55.332  1.00  0.00     0.163 HD
ENDROOT
BRANCH   1  17
HETATM   17  C6  UNL     1      22.811  -1.178  54.178  1.00  0.00     0.029 C 
HETATM   18  C5  UNL     1      21.550  -1.124  54.434  1.00  0.00     0.004 C 
BRANCH  18  19
HETATM   19  C4  UNL     1      20.761   0.102  54.420  1.00  0.00     0.024 C 
HETATM   20  C3  UNL     1      20.212   0.393  53.240  1.00  0.00     0.138 C 
BRANCH  20  21
HETATM   21  O1  UNL     1      19.456   1.180  52.435  1.00  0.00    -0.322 OA
BRANCH  21  22
HETATM   22  C2  UNL     1      20.061   2.095  51.518  1.00  0.00     0.376 C 
HETATM   23  F3  UNL     1      21.250   2.501  52.111  1.00  0.00    -0.213 F 
BRANCH  22  24
HETATM   24  C1  UNL     1      20.372   1.461  50.191  1.00  0.00     0.413 C 
HETATM   25  F1  UNL     1      21.402   0.538  50.396  1.00  0.00    -0.209 F 
HETATM   26  F2  UNL     1      19.308   0.763  49.655  1.00  0.00    -0.209 F 
ENDBRANCH  22  24
ENDBRANCH  21  22
ENDBRANCH  20  21
ENDBRANCH  18  19
ENDBRANCH   1  17
TORSDOF 5
ENDMDL
MODEL 3
REMARK VINA RESULT:      -8.3      1.016      3.002
REMARK  5 active torsions:
REMARK  status: ('A' for Active; 'I' for Inactive)
REMARK    1  A    between atoms: C1_2  and  C2_4 
REMARK    2  A    between atoms: C2_4  and  O1_6 
REMARK    3  A    between atoms: O1_6  and  C3_7 
REMARK    4  A    between atoms: C4_8  and  C5_9 
REMARK    5  A    between atoms: C6_10  and  C7_11 
ROOT
HETATM    1  C7  UNL     1      23.908   1.987  52.004  1.00  0.00     0.032 C 
HETATM    2  C8  UNL     1      23.965   0.971  52.896  1.00  0.00     0.043 C 
HETATM    3  C9  UNL     1      23.023  -0.023  53.545  1.00  0.00    -0.004 A 
HETATM    4  C10 UNL     1      23.625  -0.743  54.460  1.00  0.00     0.128 A 
HETATM    5  N1  UNL     1      22.726  -1.511  55.071  1.00  0.00    -0.272 NA
HETATM    6  C11 UNL     1      21.416  -1.571  54.828  1.00  0.00     0.117 A 
HETATM    7  C12 UNL     1      20.775  -0.793  53.843  1.00  0.00     0.034 A 
HETATM    8  C13 UNL     1      21.713   0.014  53.193  1.00  0.00     0.013 A 
HETATM    9  C14 UNL     1      20.685   0.666  52.316  1.00  0.00     0.173 A 
HETATM   10  C15 UNL     1      19.409   0.050  52.151  1.00  0.00     0.066 A 
HETATM   11  C16 UNL     1      19.290   1.290  51.375  1.00  0.00     0.353 A 
HETATM   12  N2  UNL     1      20.232   2.186  51.230  1.00  0.00    -0.032 NA
HETATM   13  C17 UNL     1      21.308   2.748  51.331  1.00  0.00     0.385 A 
HETATM   14  N3  UNL     1      20.564   1.763  51.612  1.00  0.00     0.105 N 
HETATM   15  N4  UNL     1      22.519   2.352  51.697  1.00  0.00    -0.336 N 
HETATM   16  H13 UNL     1      22.623   3.077  50.850  1.00  0.00     0.163 HD
ENDROOT
BRANCH   1  17
HETATM   17  C6  UNL     1      24.981   2.597  51.423  1.00  0.00     0.029 C 
HETATM   18  C5  UNL     1      26.262   2.483  51.362  1.00  0.00     0.004 C 
BRANCH  18  19
HETATM   19  C4  UNL     1      27.030   1.456  52.054  1.00  0.00     0.024 C 
HETATM   20  C3  UNL     1      27.628   1.870  53.172  1.00  0.00     0.138 C 
BRANCH  20  21
HETATM   21  O1  UNL     1      28.402   1.655  54.264  1.00  0.00    -0.322 OA
BRANCH  21  22
HETATM   22  C2  UNL     1      28.488   0.359  54.865  1.00  0.00     0.376 C 
HETATM   23  F3  UNL     1      27.191  -0.139  54.886  1.00  0.00    -0.213 F 
BRANCH  22  24
HETATM   24  C1  UNL     1      29.357  -0.582  54.079  1.00  0.00     0.413 C 
HETATM   25  F1  UNL     1      28.529  -1.289  53.203  1.00  0.00    -0.209 F 
HETATM   26  F2  UNL     1      30.304   0.062  53.307  1.00  0.00    -0.209 F 
ENDBRANCH  22  24
ENDBRANCH  21  22
ENDBRANCH  20  21
ENDBRANCH  18  19
ENDBRANCH   1  17
TORSDOF 5
ENDMDL
MODEL 4
REMARK VINA RESULT:      -8.2      2.903      5.089
REMARK  5 active torsions:
REMARK  status: ('A' for Active; 'I' for Inactive)
REMARK    1  A    between atoms: C1_2  and  C2_4 
REMARK    2  A    between atoms: C2_4  and  O1_6 
REMARK    3  A    between atoms: O1_6  and  C3_7 
REMARK    4  A    between atoms: C4_8  and  C5_9 
REMARK    5  A    between atoms: C6_10  and  C7_11 
ROOT
HETATM    1  C7  UNL     1      23.692   2.126  51.932  1.00  0.00     0.032 C 
HETATM    2  C8  UNL     1      22.921   3.236  51.865  1.00  0.00     0.043 C 
HETATM    3  C9  UNL     1      22.986   4.628  51.270  1.00  0.00    -0.004 A 
HETATM    4  C10 UNL     1      21.959   5.360  51.623  1.00  0.00     0.128 A 
HETATM    5  N1  UNL     1      22.129   6.599  51.168  1.00  0.00    -0.272 NA
HETATM    6  C11 UNL     1      23.163   7.067  50.466  1.00  0.00     0.117 A 
HETATM    7  C12 UNL     1      24.266   6.274  50.091  1.00  0.00     0.034 A 
HETATM    8  C13 UNL     1      24.092   4.969  50.561  1.00  0.00     0.013 A 
HETATM    9  C14 UNL     1      25.412   4.499  50.025  1.00  0.00     0.173 A 
HETATM   10  C15 UNL     1      26.076   5.266  49.021  1.00  0.00     0.066 A 
HETATM   11  C16 UNL     1      27.014   4.168  49.286  1.00  0.00     0.353 A 
HETATM   12  N2  UNL     1      26.823   3.199  50.144  1.00  0.00    -0.032 NA
HETATM   13  C17 UNL     1      26.294   2.505  50.993  1.00  0.00     0.385 A 
HETATM   14  N3  UNL     1      26.257   3.522  50.242  1.00  0.00     0.105 N 
HETATM   15  N4  UNL     1      25.050   2.387  51.437  1.00  0.00    -0.336 N 
HETATM   16  H13 UNL     1      25.514   1.369  51.404  1.00  0.00     0.163 HD
ENDROOT
BRANCH   1  17
HETATM   17  C6  UNL     1      23.285   0.900  52.370  1.00  0.00     0.029 C 
HETATM   18  C5  UNL     1      23.684  -0.051  53.141  1.00  0.00     0.004 C 
BRANCH  18  19
HETATM   19  C4  UNL     1      24.940  -0.035  53.882  1.00  0.00     0.024 C 
HETATM   20  C3  UNL     1      25.871  -0.866  53.411  1.00  0.00     0.138 C 
BRANCH  20  21
HETATM   21  O1  UNL     1      27.108  -1.419  53.448  1.00  0.00    -0.322 OA
BRANCH  21  22
HETATM   22  C2  UNL     1      28.274  -0.609  53.627  1.00  0.00     0.376 C 
HETATM   23  F3  UNL     1      28.336  -0.324  54.985  1.00  0.00    -0.213 F 
BRANCH  22  24
HETATM   24  C1  UNL     1      29.535  -1.319  53.221  1.00  0.00     0.413 C 
HETATM   25  F1  UNL     1      30.607  -0.651  53.821  1.00  0.00    -0.209 F 
HETATM   26  F2  UNL     1      29.588  -2.631  53.650  1.00  0.00    -0.209 F 
ENDBRANCH  22  24
ENDBRANCH  21  22
ENDBRANCH  20  21
ENDBRANCH  18  19
ENDBRANCH   1  17
TORSDOF 5
ENDMDL
MODEL 5
REMARK VINA RESULT:      -8.1      1.573      3.425
REMARK  5 active torsions:
REMARK  status: ('A' for Active; 'I' for Inactive)
REMARK    1  A    between atoms: C1_2  and  C2_4 
REMARK    2  A    between atoms: C2_4  and  O1_6 
REMARK    3  A    between atoms: O1_6  and  C3_7 
REMARK    4  A    between atoms: C4_8  and  C5_9 
REMARK    5  A    between atoms: C6_10  and  C7_11 
ROOT
HETATM    1  C7  UNL     1      22.244  -0.542  53.992  1.00  0.00     0.032 C 
HETATM    2  C8  UNL     1      20.926  -0.816  53.861  1.00  0.00     0.043 C 
HETATM    3  C9  UNL     1      19.807  -0.561  52.871  1.00  0.00    -0.004 A 
HETATM    4  C10 UNL     1      18.650  -0.978  53.322  1.00  0.00     0.128 A 
HETATM    5  N1  UNL     1      17.695  -0.625  52.465  1.00  0.00    -0.272 NA
HETATM    6  C11 UNL     1      17.843   0.049  51.323  1.00  0.00     0.117 A 
HETATM    7  C12 UNL     1      19.091   0.496  50.845  1.00  0.00     0.034 A 
HETATM    8  C13 UNL     1      20.101   0.124  51.737  1.00  0.00     0.013 A 
HETATM    9  C14 UNL     1      21.183   0.783  50.935  1.00  0.00     0.173 A 
HETATM   10  C15 UNL     1      20.942   1.118  49.569  1.00  0.00     0.066 A 
HETATM   11  C16 UNL     1      22.298   1.625  49.808  1.00  0.00     0.353 A 
HETATM   12  N2  UNL     1      22.952   1.537  50.937  1.00  0.00    -0.032 NA
HETATM   13  C17 UNL     1      23.211   1.265  52.095  1.00  0.00     0.385 A 
HETATM   14  N3  UNL     1      22.398   1.234  51.127  1.00  0.00     0.105 N 
HETATM   15  N4  UNL     1      22.694   0.421  52.978  1.00  0.00    -0.336 N 
HETATM   16  H13 UNL     1      23.806   0.431  53.105  1.00  0.00     0.163 HD
ENDROOT
BRANCH   1  17
HETATM   17  C6  UNL     1      23.083  -1.091  54.917  1.00  0.00     0.029 C 
HETATM   18  C5  UNL     1      24.344  -1.203  55.157  1.00  0.00     0.004 C 
BRANCH  18  19
HETATM   19  C4  UNL     1      25.393  -0.652  54.308  1.00  0.00     0.024 C 
HETATM   20  C3  UNL     1      26.178   0.243  54.909  1.00  0.00     0.138 C 
BRANCH  20  21
HETATM   21  O1  UNL     1      27.218   1.113  54.907  1.00  0.00    -0.322 OA
BRANCH  21  22
HETATM   22  C2  UNL     1      28.014   1.312  53.735  1.00  0.00     0.376 C 
HETATM   23  F3  UNL     1      28.686   2.512  53.929  1.00  0.00    -0.213 F 
BRANCH  22  24
HETATM   24  C1  UNL     1      29.024   0.217  53.533  1.00  0.00     0.413 C 
HETATM   25  F1  UNL     1      29.396  -0.252  54.796  1.00  0.00    -0.209 F 
HETATM   26  F2  UNL     1      28.527  -0.864  52.832  1.00  0.00    -0.209 F 
ENDBRANCH  22  24
ENDBRANCH  21  22
ENDBRANCH  20  21
ENDBRANCH  18  19
ENDBRANCH   1  17
TORSDOF 5
ENDMDL
MODEL 6
REMARK VINA RESULT:      -8.1      2.085      4.209
REMARK  5 active torsions:
REMARK  status: ('A' for Active; 'I' for Inactive)
REMARK    1  A    between atoms: C1_2  and  C2_4 
REMARK    2  A    between atoms: C2_4  and  O1_6 
REMARK    3  A    between atoms: O1_6  and  C3_7 
REMARK    4  A    between atoms: C4_8  and  C5_9 
REMARK    5  A    between atoms: C6_10  and  C7_11 
ROOT
HETATM    1  C7  UNL     1      21.865   1.085  52.911  1.00  0.00     0.032 C 
HETATM    2  C8  UNL     1      21.276   1.049  51.693  1.00  0.00     0.043 C 
HETATM    3  C9  UNL     1      21.568   1.507  50.278  1.00  0.00    -0.004 A 
HETATM    4  C10 UNL     1      20.553   1.297  49.477  1.00  0.00     0.128 A 
HETATM    5  N1  UNL     1      20.824   1.821  48.283  1.00  0.00    -0.272 NA
HETATM    6  C11 UNL     1      21.933   2.467  47.919  1.00  0.00     0.117 A 
HETATM    7  C12 UNL     1      23.020   2.691  48.786  1.00  0.00     0.034 A 
HETATM    8  C13 UNL     1      22.746   2.138  50.041  1.00  0.00     0.013 A 
HETATM    9  C14 UNL     1      24.043   2.603  50.634  1.00  0.00     0.173 A 
HETATM   10  C15 UNL     1      25.113   2.987  49.773  1.00  0.00     0.066 A 
HETATM   11  C16 UNL     1      25.649   3.244  51.114  1.00  0.00     0.353 A 
HETATM   12  N2  UNL     1      25.013   3.031  52.237  1.00  0.00    -0.032 NA
HETATM   13  C17 UNL     1      24.134   2.708  53.016  1.00  0.00     0.385 A 
HETATM   14  N3  UNL     1      24.541   2.830  51.824  1.00  0.00     0.105 N 
HETATM   15  N4  UNL     1      23.044   1.961  52.910  1.00  0.00    -0.336 N 
HETATM   16  H13 UNL     1      23.507   1.773  53.911  1.00  0.00     0.163 HD
ENDROOT
BRANCH   1  17
HETATM   17  C6  UNL     1      21.460   0.388  54.011  1.00  0.00     0.029 C 
HETATM   18  C5  UNL     1      21.829  -0.615  54.730  1.00  0.00     0.004 C 
BRANCH  18  19
HETATM   19  C4  UNL     1      23.021  -1.414  54.474  1.00  0.00     0.024 C 
HETATM   20  C3  UNL     1      24.152  -0.889  54.947  1.00  0.00     0.138 C 
BRANCH  20  21
HETATM   21  O1  UNL     1      25.492  -0.920  55.147  1.00  0.00    -0.322 OA
BRANCH  21  22
HETATM   22  C2  UNL     1      26.365  -0.032  54.443  1.00  0.00     0.376 C 
HETATM   23  F3  UNL     1      27.560  -0.029  55.153  1.00  0.00    -0.213 F 
BRANCH  22  24
HETATM   24  C1  UNL     1      26.637  -0.487  53.037  1.00  0.00     0.413 C 
HETATM   25  F1  UNL     1      26.688  -1.883  53.047  1.00  0.00    -0.209 F 
HETATM   26  F2  UNL     1      25.646  -0.127  52.144  1.00  0.00    -0.209 F 
ENDBRANCH  22  24
ENDBRANCH  21  22
ENDBRANCH  20  21
ENDBRANCH  18  19
ENDBRANCH   1  17
TORSDOF 5
ENDMDL
MODEL 7
REMARK VINA RESULT:      -8.0      4.191      6.801
REMARK  5 active torsions:
REMARK  status: ('A' for Active; 'I' for Inactive)
REMARK    1  A    between atoms: C1_2  and  C2_4 
REMARK    2  A    between atoms: C2_4  and  O1_6 
REMARK    3  A    between atoms: O1_6  and  C3_7 
REMARK    4  A    between atoms: C4_8  and  C5_9 
REMARK    5  A    between atoms: C6_10  and  C7_11 
ROOT
HETATM    1  C7  UNL     1      24.540   3.648  50.192  1.00  0.00     0.032 C 
HETATM    2  C8  UNL     1      25.770   3.884  49.680  1.00  0.00     0.043 C 
HETATM    3  C9  UNL     1      26.589   5.063  49.192  1.00  0.00    -0.004 A 
HETATM    4  C10 UNL     1      27.731   4.684  48.675  1.00  0.00     0.128 A 
HETATM    5  N1  UNL     1      28.351   5.745  48.163  1.00  0.00    -0.272 NA
HETATM    6  C11 UNL     1      27.917   7.006  48.152  1.00  0.00     0.117 A 
HETATM    7  C12 UNL     1      26.686   7.406  48.708  1.00  0.00     0.034 A 
HETATM    8  C13 UNL     1      26.031   6.298  49.253  1.00  0.00     0.013 A 
HETATM    9  C14 UNL     1      24.830   7.094  49.672  1.00  0.00     0.173 A 
HETATM   10  C15 UNL     1      24.926   8.515  49.764  1.00  0.00     0.066 A 
HETATM   11  C16 UNL     1      23.520   8.248  50.088  1.00  0.00     0.353 A 
HETATM   12  N2  UNL     1      22.965   7.064  50.135  1.00  0.00    -0.032 NA
HETATM   13  C17 UNL     1      22.833   5.855  50.080  1.00  0.00     0.385 A 
HETATM   14  N3  UNL     1      23.575   6.874  49.972  1.00  0.00     0.105 N 
HETATM   15  N4  UNL     1      23.683   4.837  50.096  1.00  0.00    -0.336 N 
HETATM   16  H13 UNL     1      22.776   4.551  50.686  1.00  0.00     0.163 HD
ENDROOT
BRANCH   1  17
HETATM   17  C6  UNL     1      24.124   2.479  50.758  1.00  0.00     0.029 C 
HETATM   18  C5  UNL     1      24.123   1.886  51.901  1.00  0.00     0.004 C 
BRANCH  18  19
HETATM   19  C4  UNL     1      24.694   2.449  53.118  1.00  0.00     0.024 C 
HETATM   20  C3  UNL     1      25.937   2.045  53.384  1.00  0.00     0.138 C 
BRANCH  20  21
HETATM   21  O1  UNL     1      27.056   2.045  54.150  1.00  0.00    -0.322 OA
BRANCH  21  22
HETATM   22  C2  UNL     1      28.342   1.782  53.581  1.00  0.00     0.376 C 
HETATM   23  F3  UNL     1      29.014   2.998  53.577  1.00  0.00    -0.213 F 
BRANCH  22  24
HETATM   24  C1  UNL     1      29.136   0.791  54.385  1.00  0.00     0.413 C 
HETATM   25  F1  UNL     1      28.227  -0.041  55.045  1.00  0.00    -0.209 F 
HETATM   26  F2  UNL     1      29.939  -0.023  53.611  1.00  0.00    -0.209 F 
ENDBRANCH  22  24
ENDBRANCH  21  22
ENDBRANCH  20  21
ENDBRANCH  18  19
ENDBRANCH   1  17
TORSDOF 5
ENDMDL
MODEL 8
REMARK VINA RESULT:      -8.0      3.174      5.635
REMARK  5 active torsions:
REMARK  status: ('A' for Active; 'I' for Inactive)
REMARK    1  A    between atoms: C1_2  and  C2_4 
REMARK    2  A    between atoms: C2_4  and  O1_6 
REMARK    3  A    between atoms: O1_6  and  C3_7 
REMARK    4  A    between atoms: C4_8  and  C5_9 
REMARK    5  A    between atoms: C6_10  and  C7_11 
ROOT
HETATM    1  C7  UNL     1      23.220   2.265  51.212  1.00  0.00     0.032 C 
HETATM    2  C8  UNL     1      24.446   2.470  50.678  1.00  0.00     0.043 C 
HETATM    3  C9  UNL     1      25.270   3.621  50.136  1.00  0.00    -0.004 A 
HETATM    4  C10 UNL     1      26.404   3.213  49.623  1.00  0.00     0.128 A 
HETATM    5  N1  UNL     1      27.027   4.247  49.063  1.00  0.00    -0.272 NA
HETATM    6  C11 UNL     1      26.602   5.510  49.005  1.00  0.00     0.117 A 
HETATM    7  C12 UNL     1      25.380   5.942  49.558  1.00  0.00     0.034 A 
HETATM    8  C13 UNL     1      24.722   4.863  50.154  1.00  0.00     0.013 A 
HETATM    9  C14 UNL     1      23.532   5.685  50.552  1.00  0.00     0.173 A 
HETATM   10  C15 UNL     1      23.640   7.107  50.586  1.00  0.00     0.066 A 
HETATM   11  C16 UNL     1      22.236   6.865  50.935  1.00  0.00     0.353 A 
HETATM   12  N2  UNL     1      21.672   5.689  51.035  1.00  0.00    -0.032 NA
HETATM   13  C17 UNL     1      21.530   4.479  51.030  1.00  0.00     0.385 A 
HETATM   14  N3  UNL     1      22.278   5.487  50.874  1.00  0.00     0.105 N 
HETATM   15  N4  UNL     1      22.372   3.457  51.077  1.00  0.00    -0.336 N 
HETATM   16  H13 UNL     1      21.468   3.202  51.687  1.00  0.00     0.163 HD
ENDROOT
BRANCH   1  17
HETATM   17  C6  UNL     1      22.801   1.122  51.828  1.00  0.00     0.029 C 
HETATM   18  C5  UNL     1      23.163   0.326  52.773  1.00  0.00     0.004 C 
BRANCH  18  19
HETATM   19  C4  UNL     1      24.369   0.496  53.574  1.00  0.00     0.024 C 
HETATM   20  C3  UNL     1      25.231  -0.519  53.499  1.00  0.00     0.138 C 
BRANCH  20  21
HETATM   21  O1  UNL     1      26.398  -1.123  53.832  1.00  0.00    -0.322 OA
BRANCH  21  22
HETATM   22  C2  UNL     1      27.526  -1.087  52.953  1.00  0.00     0.376 C 
HETATM   23  F3  UNL     1      27.126  -0.343  51.849  1.00  0.00    -0.213 F 
BRANCH  22  24
HETATM   24  C1  UNL     1      28.721  -0.424  53.578  1.00  0.00     0.413 C 
HETATM   25  F1  UNL     1      28.463  -0.290  54.945  1.00  0.00    -0.209 F 
HETATM   26  F2  UNL     1      29.882  -1.163  53.458  1.00  0.00    -0.209 F 
ENDBRANCH  22  24
ENDBRANCH  21  22
ENDBRANCH  20  21
ENDBRANCH  18  19
ENDBRANCH   1  17
TORSDOF 5
ENDMDL
MODEL 9
REMARK VINA RESULT:      -7.8      4.298      6.518
REMARK  5 active torsions:
REMARK  status: ('A' for Active; 'I' for Inactive)
REMARK    1  A    between atoms: C1_2  and  C2_4 
REMARK    2  A    between atoms: C2_4  and  O1_6 
REMARK    3  A    between atoms: O1_6  and  C3_7 
REMARK    4  A    between atoms: C4_8  and  C5_9 
REMARK    5  A    between atoms: C6_10  and  C7_11 
ROOT
HETATM    1  C7  UNL     1      26.189   2.851  50.718  1.00  0.00     0.032 C 
HETATM    2  C8  UNL     1      27.015   2.396  51.688  1.00  0.00     0.043 C 
HETATM    3  C9  UNL     1      26.952   1.478  52.893  1.00  0.00    -0.004 A 
HETATM    4  C10 UNL     1      28.072   1.485  53.572  1.00  0.00     0.128 A 
HETATM    5  N1  UNL     1      27.918   0.756  54.675  1.00  0.00    -0.272 NA
HETATM    6  C11 UNL     1      26.820   0.108  55.067  1.00  0.00     0.117 A 
HETATM    7  C12 UNL     1      25.618   0.106  54.332  1.00  0.00     0.034 A 
HETATM    8  C13 UNL     1      25.773   0.865  53.169  1.00  0.00     0.013 A 
HETATM    9  C14 UNL     1      24.355   0.656  52.729  1.00  0.00     0.173 A 
HETATM   10  C15 UNL     1      23.592  -0.409  53.296  1.00  0.00     0.066 A 
HETATM   11  C16 UNL     1      22.636   0.256  52.405  1.00  0.00     0.353 A 
HETATM   12  N2  UNL     1      22.894   1.298  51.658  1.00  0.00    -0.032 NA
HETATM   13  C17 UNL     1      23.503   2.216  51.138  1.00  0.00     0.385 A 
HETATM   14  N3  UNL     1      23.490   1.231  51.932  1.00  0.00     0.105 N 
HETATM   15  N4  UNL     1      24.790   2.499  50.996  1.00  0.00    -0.336 N 
HETATM   16  H13 UNL     1      24.257   2.792  50.058  1.00  0.00     0.163 HD
ENDROOT
BRANCH   1  17
HETATM   17  C6  UNL     1      26.574   3.528  49.598  1.00  0.00     0.029 C 
HETATM   18  C5  UNL     1      26.475   4.701  49.076  1.00  0.00     0.004 C 
BRANCH  18  19
HETATM   19  C4  UNL     1      25.770   5.818  49.693  1.00  0.00     0.024 C 
HETATM   20  C3  UNL     1      24.511   5.972  49.282  1.00  0.00     0.138 C 
BRANCH  20  21
HETATM   21  O1  UNL     1      23.316   6.613  49.304  1.00  0.00    -0.322 OA
BRANCH  21  22
HETATM   22  C2  UNL     1      22.739   7.059  50.535  1.00  0.00     0.376 C 
HETATM   23  F3  UNL     1      21.749   7.968  50.185  1.00  0.00    -0.213 F 
BRANCH  22  24
HETATM   24  C1  UNL     1      22.115   5.938  51.317  1.00  0.00     0.413 C 
HETATM   25  F1  UNL     1      21.682   4.975  50.401  1.00  0.00    -0.209 F 
HETATM   26  F2  UNL     1      22.997   5.310  52.174  1.00  0.00    -0.209 F 
ENDBRANCH  22  24
ENDBRANCH  21  22
ENDBRANCH  20  21
ENDBRANCH  18  19
ENDBRANCH   1  17
TORSDOF 5
ENDMDL
