MODEL 1
REMARK VINA RESULT:      -7.6      0.000      0.000
REMARK  1 active torsions:
REMARK  status: ('A' for Active; 'I' for Inactive)
REMARK    1  A    between atoms: C7_7  and  O1_8 
ROOT
HETATM    1  C1  UNL     1      25.492   0.602  52.364  1.00  0.00     0.050 C 
HETATM    2  C2  UNL     1      24.098   0.610  52.790  1.00  0.00    -0.037 C 
HETATM    3  C3  UNL     1      23.713  -0.536  53.386  1.00  0.00     0.008 C 
HETATM    4  C4  UNL     1      22.345  -1.070  53.581  1.00  0.00    -0.003 C 
HETATM    5  C5  UNL     1      21.117  -0.518  53.582  1.00  0.00    -0.021 C 
HETATM    6  C6  UNL     1      20.542   0.812  53.764  1.00  0.00     0.104 C 
HETATM    7  C7  UNL     1      20.789   1.793  52.645  1.00  0.00     0.223 C 
HETATM    8  C8  UNL     1      20.000   1.487  51.484  1.00  0.00    -0.026 C 
HETATM    9  C9  UNL     1      19.371   1.239  50.522  1.00  0.00    -0.015 C 
HETATM   10  N1  UNL     1      18.661   0.954  49.392  1.00  0.00    -0.249 NA
HETATM   11  C10 UNL     1      18.870   2.339  48.973  1.00  0.00     0.140 C 
HETATM   12  C11 UNL     1      20.290   2.723  49.280  1.00  0.00    -0.044 A 
HETATM   13  C12 UNL     1      21.251   1.819  48.913  1.00  0.00     0.009 A 
HETATM   14  C13 UNL     1      22.560   2.068  49.252  1.00  0.00     0.012 A 
HETATM   15  C14 UNL     1      22.712   3.240  49.944  1.00  0.00    -0.034 A 
HETATM   16  C15 UNL     1      21.752   4.145  50.308  1.00  0.00     0.012 A 
HETATM   17  C16 UNL     1      20.443   3.899  49.969  1.00  0.00     0.009 A 
HETATM   18  P1  UNL     1      24.414   3.584  50.564  1.00  0.00    -0.089 P 
HETATM   19  C17 UNL     1      24.459   2.888  52.327  1.00  0.00     0.095 C 
HETATM   20  C18 UNL     1      23.388   1.869  52.479  1.00  0.00     0.043 C 
HETATM   21  N2  UNL     1      22.145   2.081  52.353  1.00  0.00    -0.243 NA
HETATM   22  H10 UNL     1      18.654   0.049  49.903  1.00  0.00     0.137 HD
HETATM   23  H17 UNL     1      24.616   4.997  50.625  1.00  0.00     0.062 HD
ENDROOT
BRANCH   7  24
HETATM   24  O1  UNL     1      20.254   3.019  53.146  1.00  0.00    -0.359 OA
HETATM   25  H9  UNL     1      20.681   3.717  52.604  1.00  0.00     0.213 HD
ENDBRANCH   7  24
TORSDOF 1
ENDMDL
MODEL 2
REMARK VINA RESULT:      -7.4      2.687      4.643
REMARK  1 active torsions:
REMARK  status: ('A' for Active; 'I' for Inactive)
REMARK    1  A    between atoms: C7_7  and  O1_8 
ROOT
HETATM    1  C1  UNL     1      20.561   0.356  51.181  1.00  0.00     0.050 C 
HETATM    2  C2  UNL     1      21.925   0.858  51.296  1.00  0.00    -0.037 C 
HETATM    3  C3  UNL     1      22.557   0.443  52.412  1.00  0.00     0.008 C 
HETATM    4  C4  UNL     1      23.742   1.027  53.083  1.00  0.00    -0.003 C 
HETATM    5  C5  UNL     1      24.732   1.848  52.685  1.00  0.00    -0.021 C 
HETATM    6  C6  UNL     1      25.341   2.255  51.421  1.00  0.00     0.104 C 
HETATM    7  C7  UNL     1      24.494   3.138  50.538  1.00  0.00     0.223 C 
HETATM    8  C8  UNL     1      24.400   4.474  51.055  1.00  0.00    -0.026 C 
HETATM    9  C9  UNL     1      24.304   5.569  51.475  1.00  0.00    -0.015 C 
HETATM   10  N1  UNL     1      24.167   6.838  51.957  1.00  0.00    -0.249 NA
HETATM   11  C10 UNL     1      23.790   7.257  50.609  1.00  0.00     0.140 C 
HETATM   12  C11 UNL     1      22.866   6.224  50.028  1.00  0.00    -0.044 A 
HETATM   13  C12 UNL     1      21.852   5.797  50.843  1.00  0.00     0.009 A 
HETATM   14  C13 UNL     1      21.031   4.784  50.407  1.00  0.00     0.012 A 
HETATM   15  C14 UNL     1      21.370   4.331  49.160  1.00  0.00    -0.034 A 
HETATM   16  C15 UNL     1      22.381   4.760  48.342  1.00  0.00     0.012 A 
HETATM   17  C16 UNL     1      23.203   5.774  48.778  1.00  0.00     0.009 A 
HETATM   18  P1  UNL     1      20.412   2.878  48.552  1.00  0.00    -0.089 P 
HETATM   19  C17 UNL     1      21.430   1.357  49.052  1.00  0.00     0.095 C 
HETATM   20  C18 UNL     1      22.338   1.722  50.170  1.00  0.00     0.043 C 
HETATM   21  N2  UNL     1      23.252   2.599  50.122  1.00  0.00    -0.243 NA
HETATM   22  H10 UNL     1      24.456   6.300  52.799  1.00  0.00     0.137 HD
HETATM   23  H17 UNL     1      20.335   2.927  47.126  1.00  0.00     0.062 HD
ENDROOT
BRANCH   7  24
HETATM   24  O1  UNL     1      25.263   3.254  49.340  1.00  0.00    -0.359 OA
HETATM   25  H9  UNL     1      26.178   3.020  49.607  1.00  0.00     0.213 HD
ENDBRANCH   7  24
TORSDOF 1
ENDMDL
MODEL 3
REMARK VINA RESULT:      -7.2      2.995      4.812
REMARK  1 active torsions:
REMARK  status: ('A' for Active; 'I' for Inactive)
REMARK    1  A    between atoms: C7_7  and  O1_8 
ROOT
HETATM    1  C1  UNL     1      25.560   7.235  48.541  1.00  0.00     0.050 C 
HETATM    2  C2  UNL     1      25.721   6.007  49.311  1.00  0.00    -0.037 C 
HETATM    3  C3  UNL     1      26.720   5.220  48.864  1.00  0.00     0.008 C 
HETATM    4  C4  UNL     1      26.936   3.772  49.090  1.00  0.00    -0.003 C 
HETATM    5  C5  UNL     1      26.496   2.893  50.010  1.00  0.00    -0.021 C 
HETATM    6  C6  UNL     1      25.948   2.945  51.362  1.00  0.00     0.104 C 
HETATM    7  C7  UNL     1      24.550   3.501  51.484  1.00  0.00     0.223 C 
HETATM    8  C8  UNL     1      23.565   2.575  50.997  1.00  0.00    -0.026 C 
HETATM    9  C9  UNL     1      22.750   1.833  50.588  1.00  0.00    -0.015 C 
HETATM   10  N1  UNL     1      21.793   0.990  50.103  1.00  0.00    -0.249 NA
HETATM   11  C10 UNL     1      20.811   1.731  50.891  1.00  0.00     0.140 C 
HETATM   12  C11 UNL     1      21.110   3.199  50.772  1.00  0.00    -0.044 A 
HETATM   13  C12 UNL     1      21.355   3.662  49.507  1.00  0.00     0.009 A 
HETATM   14  C13 UNL     1      21.729   4.975  49.341  1.00  0.00     0.012 A 
HETATM   15  C14 UNL     1      21.805   5.655  50.527  1.00  0.00    -0.034 A 
HETATM   16  C15 UNL     1      21.557   5.193  51.793  1.00  0.00     0.012 A 
HETATM   17  C16 UNL     1      21.182   3.881  51.959  1.00  0.00     0.009 A 
HETATM   18  P1  UNL     1      22.437   7.383  50.416  1.00  0.00    -0.089 P 
HETATM   19  C17 UNL     1      24.306   7.258  50.713  1.00  0.00     0.095 C 
HETATM   20  C18 UNL     1      24.756   5.872  50.423  1.00  0.00     0.043 C 
HETATM   21  N2  UNL     1      24.362   4.827  51.023  1.00  0.00    -0.243 NA
HETATM   22  H10 UNL     1      22.661   0.640  49.650  1.00  0.00     0.137 HD
HETATM   23  H17 UNL     1      21.859   8.164  51.464  1.00  0.00     0.062 HD
ENDROOT
BRANCH   7  24
HETATM   24  O1  UNL     1      24.334   3.568  52.893  1.00  0.00    -0.359 OA
HETATM   25  H9  UNL     1      25.210   3.807  53.268  1.00  0.00     0.213 HD
ENDBRANCH   7  24
TORSDOF 1
ENDMDL
MODEL 4
REMARK VINA RESULT:      -7.1      2.622      3.680
REMARK  1 active torsions:
REMARK  status: ('A' for Active; 'I' for Inactive)
REMARK    1  A    between atoms: C7_7  and  O1_8 
ROOT
HETATM    1  C1  UNL     1      27.068   4.283  48.949  1.00  0.00     0.050 C 
HETATM    2  C2  UNL     1      26.243   3.951  50.104  1.00  0.00    -0.037 C 
HETATM    3  C3  UNL     1      26.569   2.776  50.677  1.00  0.00     0.008 C 
HETATM    4  C4  UNL     1      25.755   1.917  51.568  1.00  0.00    -0.003 C 
HETATM    5  C5  UNL     1      24.678   2.132  52.346  1.00  0.00    -0.021 C 
HETATM    6  C6  UNL     1      24.027   3.276  52.980  1.00  0.00     0.104 C 
HETATM    7  C7  UNL     1      23.324   4.231  52.047  1.00  0.00     0.223 C 
HETATM    8  C8  UNL     1      22.103   3.674  51.536  1.00  0.00    -0.026 C 
HETATM    9  C9  UNL     1      21.108   3.224  51.099  1.00  0.00    -0.015 C 
HETATM   10  N1  UNL     1      19.960   2.711  50.569  1.00  0.00    -0.249 NA
HETATM   11  C10 UNL     1      19.546   4.080  50.268  1.00  0.00     0.140 C 
HETATM   12  C11 UNL     1      20.731   4.832  49.734  1.00  0.00    -0.044 A 
HETATM   13  C12 UNL     1      21.470   4.190  48.775  1.00  0.00     0.009 A 
HETATM   14  C13 UNL     1      22.622   4.785  48.316  1.00  0.00     0.012 A 
HETATM   15  C14 UNL     1      22.869   5.989  48.918  1.00  0.00    -0.034 A 
HETATM   16  C15 UNL     1      22.130   6.633  49.874  1.00  0.00     0.012 A 
HETATM   17  C16 UNL     1      20.977   6.040  50.333  1.00  0.00     0.009 A 
HETATM   18  P1  UNL     1      24.467   6.792  48.467  1.00  0.00    -0.089 P 
HETATM   19  C17 UNL     1      25.708   6.219  49.782  1.00  0.00     0.095 C 
HETATM   20  C18 UNL     1      25.213   4.967  50.411  1.00  0.00     0.043 C 
HETATM   21  N2  UNL     1      24.129   4.844  51.056  1.00  0.00    -0.243 NA
HETATM   22  H10 UNL     1      20.471   1.861  50.882  1.00  0.00     0.137 HD
HETATM   23  H17 UNL     1      24.324   8.211  48.561  1.00  0.00     0.062 HD
ENDROOT
BRANCH   7  24
HETATM   24  O1  UNL     1      22.918   5.300  52.902  1.00  0.00    -0.359 OA
HETATM   25  H9  UNL     1      22.540   4.858  53.692  1.00  0.00     0.213 HD
ENDBRANCH   7  24
TORSDOF 1
ENDMDL
MODEL 5
REMARK VINA RESULT:      -7.0     12.327     13.854
REMARK  1 active torsions:
REMARK  status: ('A' for Active; 'I' for Inactive)
REMARK    1  A    between atoms: C7_7  and  O1_8 
ROOT
HETATM    1  C1  UNL     1      33.477   4.722  43.854  1.00  0.00     0.050 C 
HETATM    2  C2  UNL     1      34.009   5.206  45.122  1.00  0.00    -0.037 C 
HETATM    3  C3  UNL     1      34.446   4.221  45.931  1.00  0.00     0.008 C 
HETATM    4  C4  UNL     1      34.662   4.247  47.397  1.00  0.00    -0.003 C 
HETATM    5  C5  UNL     1      34.847   5.231  48.297  1.00  0.00    -0.021 C 
HETATM    6  C6  UNL     1      35.282   6.625  48.284  1.00  0.00     0.104 C 
HETATM    7  C7  UNL     1      34.315   7.609  47.673  1.00  0.00     0.223 C 
HETATM    8  C8  UNL     1      33.187   7.849  48.529  1.00  0.00    -0.026 C 
HETATM    9  C9  UNL     1      32.251   8.044  49.214  1.00  0.00    -0.015 C 
HETATM   10  N1  UNL     1      31.151   8.268  49.989  1.00  0.00    -0.249 NA
HETATM   11  C10 UNL     1      30.939   9.507  49.242  1.00  0.00     0.140 C 
HETATM   12  C11 UNL     1      31.189   9.236  47.786  1.00  0.00    -0.044 A 
HETATM   13  C12 UNL     1      30.609   8.106  47.275  1.00  0.00     0.009 A 
HETATM   14  C13 UNL     1      30.878   7.751  45.974  1.00  0.00     0.012 A 
HETATM   15  C14 UNL     1      31.731   8.626  45.355  1.00  0.00    -0.034 A 
HETATM   16  C15 UNL     1      32.308   9.758  45.864  1.00  0.00     0.012 A 
HETATM   17  C16 UNL     1      32.039  10.114  47.164  1.00  0.00     0.009 A 
HETATM   18  P1  UNL     1      32.260   8.153  43.653  1.00  0.00    -0.089 P 
HETATM   19  C17 UNL     1      33.883   7.197  43.876  1.00  0.00     0.095 C 
HETATM   20  C18 UNL     1      33.957   6.677  45.266  1.00  0.00     0.043 C 
HETATM   21  N2  UNL     1      33.965   7.382  46.319  1.00  0.00    -0.243 NA
HETATM   22  H10 UNL     1      31.512   7.365  50.356  1.00  0.00     0.137 HD
HETATM   23  H17 UNL     1      32.526   9.336  42.897  1.00  0.00     0.062 HD
ENDROOT
BRANCH   7  24
HETATM   24  O1  UNL     1      35.044   8.836  47.662  1.00  0.00    -0.359 OA
HETATM   25  H9  UNL     1      35.981   8.571  47.785  1.00  0.00     0.213 HD
ENDBRANCH   7  24
TORSDOF 1
ENDMDL
MODEL 6
REMARK VINA RESULT:      -7.0      9.209     10.925
REMARK  1 active torsions:
REMARK  status: ('A' for Active; 'I' for Inactive)
REMARK    1  A    between atoms: C7_7  and  O1_8 
ROOT
HETATM    1  C1  UNL     1      30.767   5.447  47.764  1.00  0.00     0.050 C 
HETATM    2  C2  UNL     1      29.629   6.142  48.353  1.00  0.00    -0.037 C 
HETATM    3  C3  UNL     1      28.490   5.420  48.332  1.00  0.00     0.008 C 
HETATM    4  C4  UNL     1      27.089   5.889  48.444  1.00  0.00    -0.003 C 
HETATM    5  C5  UNL     1      26.512   7.006  48.925  1.00  0.00    -0.021 C 
HETATM    6  C6  UNL     1      26.865   8.078  49.851  1.00  0.00     0.104 C 
HETATM    7  C7  UNL     1      27.919   9.043  49.369  1.00  0.00     0.223 C 
HETATM    8  C8  UNL     1      27.409   9.928  48.359  1.00  0.00    -0.026 C 
HETATM    9  C9  UNL     1      27.007  10.650  47.521  1.00  0.00    -0.015 C 
HETATM   10  N1  UNL     1      26.562  11.483  46.537  1.00  0.00    -0.249 NA
HETATM   11  C10 UNL     1      27.676  12.374  46.856  1.00  0.00     0.140 C 
HETATM   12  C11 UNL     1      28.906  11.542  47.084  1.00  0.00    -0.044 A 
HETATM   13  C12 UNL     1      29.150  10.563  46.156  1.00  0.00     0.009 A 
HETATM   14  C13 UNL     1      30.205   9.705  46.359  1.00  0.00     0.012 A 
HETATM   15  C14 UNL     1      30.886   9.971  47.517  1.00  0.00    -0.034 A 
HETATM   16  C15 UNL     1      30.644  10.951  48.443  1.00  0.00     0.012 A 
HETATM   17  C16 UNL     1      29.590  11.810  48.241  1.00  0.00     0.009 A 
HETATM   18  P1  UNL     1      32.229   8.782  47.942  1.00  0.00    -0.089 P 
HETATM   19  C17 UNL     1      31.421   7.487  49.068  1.00  0.00     0.095 C 
HETATM   20  C18 UNL     1      29.951   7.497  48.848  1.00  0.00     0.043 C 
HETATM   21  N2  UNL     1      29.181   8.483  49.050  1.00  0.00    -0.243 NA
HETATM   22  H10 UNL     1      25.876  10.703  46.507  1.00  0.00     0.137 HD
HETATM   23  H17 UNL     1      33.243   9.463  48.684  1.00  0.00     0.062 HD
ENDROOT
BRANCH   7  24
HETATM   24  O1  UNL     1      28.163   9.873  50.505  1.00  0.00    -0.359 OA
HETATM   25  H9  UNL     1      27.494   9.593  51.167  1.00  0.00     0.213 HD
ENDBRANCH   7  24
TORSDOF 1
ENDMDL
MODEL 7
REMARK VINA RESULT:      -6.9      3.293      6.451
REMARK  1 active torsions:
REMARK  status: ('A' for Active; 'I' for Inactive)
REMARK    1  A    between atoms: C7_7  and  O1_8 
ROOT
HETATM    1  C1  UNL     1      19.323   5.483  49.347  1.00  0.00     0.050 C 
HETATM    2  C2  UNL     1      20.529   6.173  49.790  1.00  0.00    -0.037 C 
HETATM    3  C3  UNL     1      20.677   7.397  49.245  1.00  0.00     0.008 C 
HETATM    4  C4  UNL     1      21.905   8.214  49.113  1.00  0.00    -0.003 C 
HETATM    5  C5  UNL     1      23.098   8.218  49.736  1.00  0.00    -0.021 C 
HETATM    6  C6  UNL     1      23.643   7.741  51.004  1.00  0.00     0.104 C 
HETATM    7  C7  UNL     1      23.776   6.244  51.141  1.00  0.00     0.223 C 
HETATM    8  C8  UNL     1      24.859   5.731  50.350  1.00  0.00    -0.026 C 
HETATM    9  C9  UNL     1      25.735   5.296  49.697  1.00  0.00    -0.015 C 
HETATM   10  N1  UNL     1      26.736   4.773  48.931  1.00  0.00    -0.249 NA
HETATM   11  C10 UNL     1      26.713   3.594  49.794  1.00  0.00     0.140 C 
HETATM   12  C11 UNL     1      25.281   3.238  50.079  1.00  0.00    -0.044 A 
HETATM   13  C12 UNL     1      24.438   3.224  49.000  1.00  0.00     0.009 A 
HETATM   14  C13 UNL     1      23.097   3.000  49.208  1.00  0.00     0.012 A 
HETATM   15  C14 UNL     1      22.793   2.816  50.530  1.00  0.00    -0.034 A 
HETATM   16  C15 UNL     1      23.636   2.826  51.609  1.00  0.00     0.012 A 
HETATM   17  C16 UNL     1      24.976   3.049  51.402  1.00  0.00     0.009 A 
HETATM   18  P1  UNL     1      20.998   2.651  50.918  1.00  0.00    -0.089 P 
HETATM   19  C17 UNL     1      20.407   4.404  51.335  1.00  0.00     0.095 C 
HETATM   20  C18 UNL     1      21.346   5.391  50.742  1.00  0.00     0.043 C 
HETATM   21  N2  UNL     1      22.578   5.497  51.019  1.00  0.00    -0.243 NA
HETATM   22  H10 UNL     1      26.558   5.694  48.481  1.00  0.00     0.137 HD
HETATM   23  H17 UNL     1      20.840   1.828  52.076  1.00  0.00     0.062 HD
ENDROOT
BRANCH   7  24
HETATM   24  O1  UNL     1      24.184   6.063  52.497  1.00  0.00    -0.359 OA
HETATM   25  H9  UNL     1      25.164   6.116  52.472  1.00  0.00     0.213 HD
ENDBRANCH   7  24
TORSDOF 1
ENDMDL
MODEL 8
REMARK VINA RESULT:      -6.8     10.054     11.871
REMARK  1 active torsions:
REMARK  status: ('A' for Active; 'I' for Inactive)
REMARK    1  A    between atoms: C7_7  and  O1_8 
ROOT
HETATM    1  C1  UNL     1      33.728   6.690  43.882  1.00  0.00     0.050 C 
HETATM    2  C2  UNL     1      33.332   5.996  45.102  1.00  0.00    -0.037 C 
HETATM    3  C3  UNL     1      33.365   4.653  44.989  1.00  0.00     0.008 C 
HETATM    4  C4  UNL     1      32.677   3.633  45.815  1.00  0.00    -0.003 C 
HETATM    5  C5  UNL     1      32.141   3.635  47.049  1.00  0.00    -0.021 C 
HETATM    6  C6  UNL     1      32.272   4.425  48.270  1.00  0.00     0.104 C 
HETATM    7  C7  UNL     1      31.702   5.821  48.214  1.00  0.00     0.223 C 
HETATM    8  C8  UNL     1      30.266   5.812  48.237  1.00  0.00    -0.026 C 
HETATM    9  C9  UNL     1      29.090   5.817  48.241  1.00  0.00    -0.015 C 
HETATM   10  N1  UNL     1      27.725   5.841  48.227  1.00  0.00    -0.249 NA
HETATM   11  C10 UNL     1      27.795   7.233  48.665  1.00  0.00     0.140 C 
HETATM   12  C11 UNL     1      28.888   7.923  47.898  1.00  0.00    -0.044 A 
HETATM   13  C12 UNL     1      28.905   7.704  46.546  1.00  0.00     0.009 A 
HETATM   14  C13 UNL     1      29.936   8.228  45.802  1.00  0.00     0.012 A 
HETATM   15  C14 UNL     1      30.836   8.923  46.565  1.00  0.00    -0.034 A 
HETATM   16  C15 UNL     1      30.817   9.145  47.916  1.00  0.00     0.012 A 
HETATM   17  C16 UNL     1      29.787   8.622  48.661  1.00  0.00     0.009 A 
HETATM   18  P1  UNL     1      32.327   9.540  45.673  1.00  0.00    -0.089 P 
HETATM   19  C17 UNL     1      33.641   8.190  45.890  1.00  0.00     0.095 C 
HETATM   20  C18 UNL     1      32.972   6.903  46.212  1.00  0.00     0.043 C 
HETATM   21  N2  UNL     1      32.250   6.681  47.230  1.00  0.00    -0.243 NA
HETATM   22  H10 UNL     1      27.943   4.869  47.926  1.00  0.00     0.137 HD
HETATM   23  H17 UNL     1      32.792  10.736  46.303  1.00  0.00     0.062 HD
ENDROOT
BRANCH   7  24
HETATM   24  O1  UNL     1      32.092   6.396  49.461  1.00  0.00    -0.359 OA
HETATM   25  H9  UNL     1      32.987   6.763  49.297  1.00  0.00     0.213 HD
ENDBRANCH   7  24
TORSDOF 1
ENDMDL
MODEL 9
REMARK VINA RESULT:      -6.6      2.748      5.713
REMARK  1 active torsions:
REMARK  status: ('A' for Active; 'I' for Inactive)
REMARK    1  A    between atoms: C7_7  and  O1_8 
ROOT
HETATM    1  C1  UNL     1      22.273   5.494  46.635  1.00  0.00     0.050 C 
HETATM    2  C2  UNL     1      22.848   5.808  47.937  1.00  0.00    -0.037 C 
HETATM    3  C3  UNL     1      24.037   6.437  47.861  1.00  0.00     0.008 C 
HETATM    4  C4  UNL     1      25.096   6.553  48.890  1.00  0.00    -0.003 C 
HETATM    5  C5  UNL     1      25.117   6.425  50.230  1.00  0.00    -0.021 C 
HETATM    6  C6  UNL     1      24.152   6.484  51.324  1.00  0.00     0.104 C 
HETATM    7  C7  UNL     1      23.180   5.333  51.407  1.00  0.00     0.223 C 
HETATM    8  C8  UNL     1      23.814   4.134  51.878  1.00  0.00    -0.026 C 
HETATM    9  C9  UNL     1      24.323   3.141  52.249  1.00  0.00    -0.015 C 
HETATM   10  N1  UNL     1      24.903   1.977  52.662  1.00  0.00    -0.249 NA
HETATM   11  C10 UNL     1      23.569   1.495  53.014  1.00  0.00     0.140 C 
HETATM   12  C11 UNL     1      22.614   1.891  51.924  1.00  0.00    -0.044 A 
HETATM   13  C12 UNL     1      23.033   1.654  50.642  1.00  0.00     0.009 A 
HETATM   14  C13 UNL     1      22.247   2.080  49.597  1.00  0.00     0.012 A 
HETATM   15  C14 UNL     1      21.108   2.712  50.018  1.00  0.00    -0.034 A 
HETATM   16  C15 UNL     1      20.687   2.947  51.300  1.00  0.00     0.012 A 
HETATM   17  C16 UNL     1      21.471   2.520  52.345  1.00  0.00     0.009 A 
HETATM   18  P1  UNL     1      20.064   3.444  48.687  1.00  0.00    -0.089 P 
HETATM   19  C17 UNL     1      20.641   5.243  48.523  1.00  0.00     0.095 C 
HETATM   20  C18 UNL     1      22.014   5.369  49.077  1.00  0.00     0.043 C 
HETATM   21  N2  UNL     1      22.351   5.133  50.275  1.00  0.00    -0.243 NA
HETATM   22  H10 UNL     1      25.717   2.538  52.338  1.00  0.00     0.137 HD
HETATM   23  H17 UNL     1      18.696   3.439  49.103  1.00  0.00     0.062 HD
ENDROOT
BRANCH   7  24
HETATM   24  O1  UNL     1      22.286   5.719  52.451  1.00  0.00    -0.359 OA
HETATM   25  H9  UNL     1      21.475   5.190  52.293  1.00  0.00     0.213 HD
ENDBRANCH   7  24
TORSDOF 1
ENDMDL
