MODEL 1
REMARK VINA RESULT:      -7.2      0.000      0.000
REMARK  5 active torsions:
REMARK  status: ('A' for Active; 'I' for Inactive)
REMARK    1  A    between atoms: N1_2  and  C2_3 
REMARK    2  A    between atoms: C3_5  and  N3_6 
REMARK    3  A    between atoms: N3_6  and  C4_7 
REMARK    4  A    between atoms: C11_15  and  O1_16 
REMARK    5  A    between atoms: O1_16  and  C12_17 
ROOT
HETATM    1  C2  UNL     1      27.416  -0.220  53.000  1.00  0.00     0.269 A 
HETATM    2  N2  UNL     1      27.493   1.167  52.741  1.00  0.00    -0.239 NA
HETATM    3  C3  UNL     1      26.290   1.404  53.014  1.00  0.00     0.137 A 
HETATM    4  C10 UNL     1      26.014   0.040  53.319  1.00  0.00     0.055 A 
HETATM    5  C11 UNL     1      24.934  -0.596  53.707  1.00  0.00     0.150 C 
ENDROOT
BRANCH   3   6
HETATM    6  N3  UNL     1      25.658   2.701  52.955  1.00  0.00    -0.341 N 
HETATM    7  H4  UNL     1      26.141   3.486  53.483  1.00  0.00     0.167 HD
BRANCH   6   8
HETATM    8  C4  UNL     1      24.445   2.972  52.234  1.00  0.00     0.035 A 
HETATM    9  C5  UNL     1      23.655   3.962  52.797  1.00  0.00     0.029 A 
HETATM   10  C6  UNL     1      22.454   4.353  52.240  1.00  0.00     0.004 A 
HETATM   11  C7  UNL     1      22.081   3.705  51.088  1.00  0.00     0.024 A 
HETATM   12  C8  UNL     1      22.838   2.706  50.485  1.00  0.00     0.036 A 
HETATM   13 CL1  UNL     1      22.313   1.920  49.025  1.00  0.00    -0.084 Cl
HETATM   14  C9  UNL     1      24.015   2.355  51.074  1.00  0.00     0.053 A 
ENDBRANCH   6   8
ENDBRANCH   3   6
BRANCH   1  15
HETATM   15  N1  UNL     1      28.215  -0.624  54.131  1.00  0.00    -0.280 NA
HETATM   16  C1  UNL     1      29.473  -0.814  53.875  1.00  0.00     0.145 C 
ENDBRANCH   1  15
BRANCH   5  17
HETATM   17  O1  UNL     1      23.625  -0.496  54.029  1.00  0.00    -0.355 OA
BRANCH  17  18
HETATM   18  C12 UNL     1      22.539  -1.143  53.452  1.00  0.00     0.157 C 
HETATM   19  C13 UNL     1      21.772  -0.167  52.541  1.00  0.00     0.064 C 
HETATM   20  C14 UNL     1      21.117   0.719  53.601  1.00  0.00     0.272 C 
HETATM   21  N4  UNL     1      20.951  -0.083  54.774  1.00  0.00     0.086 N 
HETATM   22  C15 UNL     1      21.420  -1.416  54.467  1.00  0.00     0.301 C 
HETATM   23  H15 UNL     1      20.038  -0.049  55.236  1.00  0.00     0.315 HD
ENDBRANCH  17  18
ENDBRANCH   5  17
TORSDOF 5
ENDMDL
MODEL 2
REMARK VINA RESULT:      -7.1      2.426      4.580
REMARK  5 active torsions:
REMARK  status: ('A' for Active; 'I' for Inactive)
REMARK    1  A    between atoms: N1_2  and  C2_3 
REMARK    2  A    between atoms: C3_5  and  N3_6 
REMARK    3  A    between atoms: N3_6  and  C4_7 
REMARK    4  A    between atoms: C11_15  and  O1_16 
REMARK    5  A    between atoms: O1_16  and  C12_17 
ROOT
HETATM    1  C2  UNL     1      27.951   0.320  54.688  1.00  0.00     0.269 A 
HETATM    2  N2  UNL     1      26.865  -0.572  54.542  1.00  0.00    -0.239 NA
HETATM    3  C3  UNL     1      26.371   0.007  53.542  1.00  0.00     0.137 A 
HETATM    4  C10 UNL     1      27.387   1.005  53.527  1.00  0.00     0.055 A 
HETATM    5  C11 UNL     1      27.619   2.043  52.759  1.00  0.00     0.150 C 
ENDROOT
BRANCH   3   6
HETATM    6  N3  UNL     1      25.177  -0.404  52.844  1.00  0.00    -0.341 N 
HETATM    7  H4  UNL     1      25.318  -0.867  51.897  1.00  0.00     0.167 HD
BRANCH   6   8
HETATM    8  C4  UNL     1      23.845  -0.224  53.353  1.00  0.00     0.035 A 
HETATM    9  C5  UNL     1      23.523  -1.055  54.415  1.00  0.00     0.029 A 
HETATM   10  C6  UNL     1      22.287  -1.020  55.029  1.00  0.00     0.004 A 
HETATM   11  C7  UNL     1      21.386  -0.110  54.529  1.00  0.00     0.024 A 
HETATM   12  C8  UNL     1      21.663   0.744  53.467  1.00  0.00     0.036 A 
HETATM   13 CL1  UNL     1      20.482   1.876  52.878  1.00  0.00    -0.084 Cl
HETATM   14  C9  UNL     1      22.897   0.671  52.894  1.00  0.00     0.053 A 
ENDBRANCH   6   8
ENDBRANCH   3   6
BRANCH   1  15
HETATM   15  N1  UNL     1      29.227  -0.307  54.442  1.00  0.00    -0.280 NA
HETATM   16  C1  UNL     1      29.217  -1.232  53.532  1.00  0.00     0.145 C 
ENDBRANCH   1  15
BRANCH   5  17
HETATM   17  O1  UNL     1      27.206   2.770  51.696  1.00  0.00    -0.355 OA
BRANCH  17  18
HETATM   18  C12 UNL     1      26.219   2.463  50.768  1.00  0.00     0.157 C 
HETATM   19  C13 UNL     1      26.473   3.234  49.459  1.00  0.00     0.064 C 
HETATM   20  C14 UNL     1      26.090   4.644  49.909  1.00  0.00     0.272 C 
HETATM   21  N4  UNL     1      25.125   4.502  50.957  1.00  0.00     0.086 N 
HETATM   22  C15 UNL     1      24.865   3.091  51.129  1.00  0.00     0.301 C 
HETATM   23  H15 UNL     1      24.286   5.085  50.898  1.00  0.00     0.315 HD
ENDBRANCH  17  18
ENDBRANCH   5  17
TORSDOF 5
ENDMDL
MODEL 3
REMARK VINA RESULT:      -6.9      2.481      5.343
REMARK  5 active torsions:
REMARK  status: ('A' for Active; 'I' for Inactive)
REMARK    1  A    between atoms: N1_2  and  C2_3 
REMARK    2  A    between atoms: C3_5  and  N3_6 
REMARK    3  A    between atoms: N3_6  and  C4_7 
REMARK    4  A    between atoms: C11_15  and  O1_16 
REMARK    5  A    between atoms: O1_16  and  C12_17 
ROOT
HETATM    1  C2  UNL     1      25.349   3.520  49.802  1.00  0.00     0.269 A 
HETATM    2  N2  UNL     1      24.130   3.708  50.491  1.00  0.00    -0.239 NA
HETATM    3  C3  UNL     1      24.445   3.004  51.483  1.00  0.00     0.137 A 
HETATM    4  C10 UNL     1      25.730   2.697  50.948  1.00  0.00     0.055 A 
HETATM    5  C11 UNL     1      26.738   1.977  51.381  1.00  0.00     0.150 C 
ENDROOT
BRANCH   3   6
HETATM    6  N3  UNL     1      23.608   2.754  52.631  1.00  0.00    -0.341 N 
HETATM    7  H4  UNL     1      23.500   3.555  53.321  1.00  0.00     0.167 HD
BRANCH   6   8
HETATM    8  C4  UNL     1      22.932   1.510  52.877  1.00  0.00     0.035 A 
HETATM    9  C5  UNL     1      23.758   0.489  53.323  1.00  0.00     0.029 A 
HETATM   10  C6  UNL     1      23.280  -0.774  53.610  1.00  0.00     0.004 A 
HETATM   11  C7  UNL     1      21.931  -0.967  53.429  1.00  0.00     0.024 A 
HETATM   12  C8  UNL     1      21.062   0.024  52.984  1.00  0.00     0.036 A 
HETATM   13 CL1  UNL     1      19.364  -0.281  52.774  1.00  0.00    -0.084 Cl
HETATM   14  C9  UNL     1      21.583   1.254  52.714  1.00  0.00     0.053 A 
ENDBRANCH   6   8
ENDBRANCH   3   6
BRANCH   1  15
HETATM   15  N1  UNL     1      26.111   4.737  49.670  1.00  0.00    -0.280 NA
HETATM   16  C1  UNL     1      27.146   4.655  48.891  1.00  0.00     0.145 C 
ENDBRANCH   1  15
BRANCH   5  17
HETATM   17  O1  UNL     1      27.214   1.193  52.375  1.00  0.00    -0.355 OA
BRANCH  17  18
HETATM   18  C12 UNL     1      27.432   1.520  53.707  1.00  0.00     0.157 C 
HETATM   19  C13 UNL     1      28.938   1.723  53.958  1.00  0.00     0.064 C 
HETATM   20  C14 UNL     1      29.412   0.271  53.882  1.00  0.00     0.272 C 
HETATM   21  N4  UNL     1      28.310  -0.551  54.280  1.00  0.00     0.086 N 
HETATM   22  C15 UNL     1      27.216   0.322  54.642  1.00  0.00     0.301 C 
HETATM   23  H15 UNL     1      28.505  -1.293  54.958  1.00  0.00     0.315 HD
ENDBRANCH  17  18
ENDBRANCH   5  17
TORSDOF 5
ENDMDL
MODEL 4
REMARK VINA RESULT:      -6.8      1.993      4.118
REMARK  5 active torsions:
REMARK  status: ('A' for Active; 'I' for Inactive)
REMARK    1  A    between atoms: N1_2  and  C2_3 
REMARK    2  A    between atoms: C3_5  and  N3_6 
REMARK    3  A    between atoms: N3_6  and  C4_7 
REMARK    4  A    between atoms: C11_15  and  O1_16 
REMARK    5  A    between atoms: O1_16  and  C12_17 
ROOT
HETATM    1  C2  UNL     1      26.795   0.243  54.955  1.00  0.00     0.269 A 
HETATM    2  N2  UNL     1      25.843  -0.791  54.802  1.00  0.00    -0.239 NA
HETATM    3  C3  UNL     1      25.310  -0.308  53.771  1.00  0.00     0.137 A 
HETATM    4  C10 UNL     1      26.184   0.817  53.758  1.00  0.00     0.055 A 
HETATM    5  C11 UNL     1      26.302   1.858  52.967  1.00  0.00     0.150 C 
ENDROOT
BRANCH   3   6
HETATM    6  N3  UNL     1      24.206  -0.893  53.048  1.00  0.00    -0.341 N 
HETATM    7  H4  UNL     1      24.444  -1.691  52.387  1.00  0.00     0.167 HD
BRANCH   6   8
HETATM    8  C4  UNL     1      22.842  -0.462  53.179  1.00  0.00     0.035 A 
HETATM    9  C5  UNL     1      22.364  -0.464  54.481  1.00  0.00     0.029 A 
HETATM   10  C6  UNL     1      21.076  -0.081  54.794  1.00  0.00     0.004 A 
HETATM   11  C7  UNL     1      20.285   0.308  53.739  1.00  0.00     0.024 A 
HETATM   12  C8  UNL     1      20.718   0.328  52.417  1.00  0.00     0.036 A 
HETATM   13 CL1  UNL     1      19.672   0.830  51.123  1.00  0.00    -0.084 Cl
HETATM   14  C9  UNL     1      21.999  -0.061  52.160  1.00  0.00     0.053 A 
ENDBRANCH   6   8
ENDBRANCH   3   6
BRANCH   1  15
HETATM   15  N1  UNL     1      28.151  -0.213  54.766  1.00  0.00    -0.280 NA
HETATM   16  C1  UNL     1      29.033   0.731  54.638  1.00  0.00     0.145 C 
ENDBRANCH   1  15
BRANCH   5  17
HETATM   17  O1  UNL     1      25.831   2.496  51.872  1.00  0.00    -0.355 OA
BRANCH  17  18
HETATM   18  C12 UNL     1      24.535   2.518  51.372  1.00  0.00     0.157 C 
HETATM   19  C13 UNL     1      24.512   3.228  50.005  1.00  0.00     0.064 C 
HETATM   20  C14 UNL     1      24.726   4.672  50.460  1.00  0.00     0.272 C 
HETATM   21  N4  UNL     1      24.199   4.777  51.786  1.00  0.00     0.086 N 
HETATM   22  C15 UNL     1      23.633   3.495  52.139  1.00  0.00     0.301 C 
HETATM   23  H15 UNL     1      23.594   5.578  51.985  1.00  0.00     0.315 HD
ENDBRANCH  17  18
ENDBRANCH   5  17
TORSDOF 5
ENDMDL
MODEL 5
REMARK VINA RESULT:      -6.3      2.403      5.568
REMARK  5 active torsions:
REMARK  status: ('A' for Active; 'I' for Inactive)
REMARK    1  A    between atoms: N1_2  and  C2_3 
REMARK    2  A    between atoms: C3_5  and  N3_6 
REMARK    3  A    between atoms: N3_6  and  C4_7 
REMARK    4  A    between atoms: C11_15  and  O1_16 
REMARK    5  A    between atoms: O1_16  and  C12_17 
ROOT
HETATM    1  C2  UNL     1      23.671   4.286  50.926  1.00  0.00     0.269 A 
HETATM    2  N2  UNL     1      22.679   3.394  50.462  1.00  0.00    -0.239 NA
HETATM    3  C3  UNL     1      23.161   2.379  51.024  1.00  0.00     0.137 A 
HETATM    4  C10 UNL     1      24.245   3.114  51.585  1.00  0.00     0.055 A 
HETATM    5  C11 UNL     1      25.260   2.783  52.347  1.00  0.00     0.150 C 
ENDROOT
BRANCH   3   6
HETATM    6  N3  UNL     1      22.610   1.047  50.960  1.00  0.00    -0.341 N 
HETATM    7  H4  UNL     1      22.724   0.531  50.037  1.00  0.00     0.167 HD
BRANCH   6   8
HETATM    8  C4  UNL     1      21.937   0.401  52.054  1.00  0.00     0.035 A 
HETATM    9  C5  UNL     1      22.760   0.087  53.125  1.00  0.00     0.029 A 
HETATM   10  C6  UNL     1      22.285  -0.536  54.262  1.00  0.00     0.004 A 
HETATM   11  C7  UNL     1      20.942  -0.829  54.276  1.00  0.00     0.024 A 
HETATM   12  C8  UNL     1      20.077  -0.534  53.228  1.00  0.00     0.036 A 
HETATM   13 CL1  UNL     1      18.386  -0.929  53.304  1.00  0.00    -0.084 Cl
HETATM   14  C9  UNL     1      20.595   0.081  52.127  1.00  0.00     0.053 A 
ENDBRANCH   6   8
ENDBRANCH   3   6
BRANCH   1  15
HETATM   15  N1  UNL     1      23.151   5.279  51.834  1.00  0.00    -0.280 NA
HETATM   16  C1  UNL     1      22.038   5.833  51.462  1.00  0.00     0.145 C 
ENDBRANCH   1  15
BRANCH   5  17
HETATM   17  O1  UNL     1      25.893   1.786  53.006  1.00  0.00    -0.355 OA
BRANCH  17  18
HETATM   18  C12 UNL     1      27.052   1.109  52.646  1.00  0.00     0.157 C 
HETATM   19  C13 UNL     1      26.694  -0.274  52.071  1.00  0.00     0.064 C 
HETATM   20  C14 UNL     1      26.268  -0.987  53.355  1.00  0.00     0.272 C 
HETATM   21  N4  UNL     1      26.981  -0.372  54.432  1.00  0.00     0.086 N 
HETATM   22  C15 UNL     1      27.851   0.635  53.868  1.00  0.00     0.301 C 
HETATM   23  H15 UNL     1      27.433  -0.995  55.107  1.00  0.00     0.315 HD
ENDBRANCH  17  18
ENDBRANCH   5  17
TORSDOF 5
ENDMDL
MODEL 6
REMARK VINA RESULT:      -6.3      2.104      4.840
REMARK  5 active torsions:
REMARK  status: ('A' for Active; 'I' for Inactive)
REMARK    1  A    between atoms: N1_2  and  C2_3 
REMARK    2  A    between atoms: C3_5  and  N3_6 
REMARK    3  A    between atoms: N3_6  and  C4_7 
REMARK    4  A    between atoms: C11_15  and  O1_16 
REMARK    5  A    between atoms: O1_16  and  C12_17 
ROOT
HETATM    1  C2  UNL     1      22.438   0.234  53.647  1.00  0.00     0.269 A 
HETATM    2  N2  UNL     1      22.511   1.110  52.541  1.00  0.00    -0.239 NA
HETATM    3  C3  UNL     1      23.749   0.985  52.372  1.00  0.00     0.137 A 
HETATM    4  C10 UNL     1      23.880   0.080  53.465  1.00  0.00     0.055 A 
HETATM    5  C11 UNL     1      24.900  -0.556  53.991  1.00  0.00     0.150 C 
ENDROOT
BRANCH   3   6
HETATM    6  N3  UNL     1      24.525   1.645  51.350  1.00  0.00    -0.341 N 
HETATM    7  H4  UNL     1      25.413   1.151  51.037  1.00  0.00     0.167 HD
BRANCH   6   8
HETATM    8  C4  UNL     1      24.163   2.900  50.751  1.00  0.00     0.035 A 
HETATM    9  C5  UNL     1      23.579   2.787  49.498  1.00  0.00     0.029 A 
HETATM   10  C6  UNL     1      23.168   3.889  48.774  1.00  0.00     0.004 A 
HETATM   11  C7  UNL     1      23.370   5.113  49.366  1.00  0.00     0.024 A 
HETATM   12  C8  UNL     1      23.951   5.277  50.619  1.00  0.00     0.036 A 
HETATM   13 CL1  UNL     1      24.179   6.853  51.317  1.00  0.00    -0.084 Cl
HETATM   14  C9  UNL     1      24.340   4.159  51.293  1.00  0.00     0.053 A 
ENDBRANCH   6   8
ENDBRANCH   3   6
BRANCH   1  15
HETATM   15  N1  UNL     1      21.677  -0.959  53.369  1.00  0.00    -0.280 NA
HETATM   16  C1  UNL     1      21.326  -1.642  54.415  1.00  0.00     0.145 C 
ENDBRANCH   1  15
BRANCH   5  17
HETATM   17  O1  UNL     1      26.231  -0.787  53.934  1.00  0.00    -0.355 OA
BRANCH  17  18
HETATM   18  C12 UNL     1      27.165  -0.261  53.051  1.00  0.00     0.157 C 
HETATM   19  C13 UNL     1      28.563  -0.822  53.370  1.00  0.00     0.064 C 
HETATM   20  C14 UNL     1      28.857  -0.066  54.666  1.00  0.00     0.272 C 
HETATM   21  N4  UNL     1      28.131   1.165  54.607  1.00  0.00     0.086 N 
HETATM   22  C15 UNL     1      27.458   1.220  53.330  1.00  0.00     0.301 C 
HETATM   23  H15 UNL     1      28.640   2.018  54.857  1.00  0.00     0.315 HD
ENDBRANCH  17  18
ENDBRANCH   5  17
TORSDOF 5
ENDMDL
MODEL 7
REMARK VINA RESULT:      -6.2      2.814      4.971
REMARK  5 active torsions:
REMARK  status: ('A' for Active; 'I' for Inactive)
REMARK    1  A    between atoms: N1_2  and  C2_3 
REMARK    2  A    between atoms: C3_5  and  N3_6 
REMARK    3  A    between atoms: N3_6  and  C4_7 
REMARK    4  A    between atoms: C11_15  and  O1_16 
REMARK    5  A    between atoms: O1_16  and  C12_17 
ROOT
HETATM    1  C2  UNL     1      25.861   4.316  49.230  1.00  0.00     0.269 A 
HETATM    2  N2  UNL     1      24.659   4.909  49.676  1.00  0.00    -0.239 NA
HETATM    3  C3  UNL     1      24.610   4.276  50.760  1.00  0.00     0.137 A 
HETATM    4  C10 UNL     1      25.817   3.570  50.486  1.00  0.00     0.055 A 
HETATM    5  C11 UNL     1      26.501   2.665  51.145  1.00  0.00     0.150 C 
ENDROOT
BRANCH   3   6
HETATM    6  N3  UNL     1      23.577   4.406  51.759  1.00  0.00    -0.341 N 
HETATM    7  H4  UNL     1      23.492   5.354  52.231  1.00  0.00     0.167 HD
BRANCH   6   8
HETATM    8  C4  UNL     1      22.681   3.345  52.131  1.00  0.00     0.035 A 
HETATM    9  C5  UNL     1      21.344   3.710  52.160  1.00  0.00     0.029 A 
HETATM   10  C6  UNL     1      20.344   2.820  52.497  1.00  0.00     0.004 A 
HETATM   11  C7  UNL     1      20.747   1.543  52.803  1.00  0.00     0.024 A 
HETATM   12  C8  UNL     1      22.074   1.128  52.789  1.00  0.00     0.036 A 
HETATM   13 CL1  UNL     1      22.524  -0.503  53.187  1.00  0.00    -0.084 Cl
HETATM   14  C9  UNL     1      23.024   2.045  52.451  1.00  0.00     0.053 A 
ENDBRANCH   6   8
ENDBRANCH   3   6
BRANCH   1  15
HETATM   15  N1  UNL     1      26.950   5.257  49.139  1.00  0.00    -0.280 NA
HETATM   16  C1  UNL     1      26.723   6.288  48.384  1.00  0.00     0.145 C 
ENDBRANCH   1  15
BRANCH   5  17
HETATM   17  O1  UNL     1      26.582   1.912  52.265  1.00  0.00    -0.355 OA
BRANCH  17  18
HETATM   18  C12 UNL     1      27.229   0.696  52.447  1.00  0.00     0.157 C 
HETATM   19  C13 UNL     1      26.212  -0.381  52.867  1.00  0.00     0.064 C 
HETATM   20  C14 UNL     1      25.930   0.073  54.299  1.00  0.00     0.272 C 
HETATM   21  N4  UNL     1      27.103   0.748  54.764  1.00  0.00     0.086 N 
HETATM   22  C15 UNL     1      28.094   0.683  53.715  1.00  0.00     0.301 C 
HETATM   23  H15 UNL     1      27.449   0.493  55.693  1.00  0.00     0.315 HD
ENDBRANCH  17  18
ENDBRANCH   5  17
TORSDOF 5
ENDMDL
MODEL 8
REMARK VINA RESULT:      -6.1      2.277      4.289
REMARK  5 active torsions:
REMARK  status: ('A' for Active; 'I' for Inactive)
REMARK    1  A    between atoms: N1_2  and  C2_3 
REMARK    2  A    between atoms: C3_5  and  N3_6 
REMARK    3  A    between atoms: N3_6  and  C4_7 
REMARK    4  A    between atoms: C11_15  and  O1_16 
REMARK    5  A    between atoms: O1_16  and  C12_17 
ROOT
HETATM    1  C2  UNL     1      25.371  -0.223  53.628  1.00  0.00     0.269 A 
HETATM    2  N2  UNL     1      24.113  -0.867  53.652  1.00  0.00    -0.239 NA
HETATM    3  C3  UNL     1      23.443   0.174  53.439  1.00  0.00     0.137 A 
HETATM    4  C10 UNL     1      24.605   0.997  53.382  1.00  0.00     0.055 A 
HETATM    5  C11 UNL     1      24.791   2.281  53.186  1.00  0.00     0.150 C 
ENDROOT
BRANCH   3   6
HETATM    6  N3  UNL     1      22.005   0.238  53.337  1.00  0.00    -0.341 N 
HETATM    7  H4  UNL     1      21.460   0.080  54.236  1.00  0.00     0.167 HD
BRANCH   6   8
HETATM    8  C4  UNL     1      21.297   0.500  52.114  1.00  0.00     0.035 A 
HETATM    9  C5  UNL     1      19.916   0.469  52.237  1.00  0.00     0.029 A 
HETATM   10  C6  UNL     1      19.076   0.697  51.165  1.00  0.00     0.004 A 
HETATM   11  C7  UNL     1      19.686   0.960  49.962  1.00  0.00     0.024 A 
HETATM   12  C8  UNL     1      21.065   1.003  49.789  1.00  0.00     0.036 A 
HETATM   13 CL1  UNL     1      21.779   1.342  48.241  1.00  0.00    -0.084 Cl
HETATM   14  C9  UNL     1      21.851   0.770  50.878  1.00  0.00     0.053 A 
ENDBRANCH   6   8
ENDBRANCH   3   6
BRANCH   1  15
HETATM   15  N1  UNL     1      26.192  -0.640  52.518  1.00  0.00    -0.280 NA
HETATM   16  C1  UNL     1      27.471  -0.559  52.721  1.00  0.00     0.145 C 
ENDBRANCH   1  15
BRANCH   5  17
HETATM   17  O1  UNL     1      24.208   3.479  52.955  1.00  0.00    -0.355 OA
BRANCH  17  18
HETATM   18  C12 UNL     1      23.212   3.796  52.041  1.00  0.00     0.157 C 
HETATM   19  C13 UNL     1      23.823   3.963  50.637  1.00  0.00     0.064 C 
HETATM   20  C14 UNL     1      24.547   5.297  50.827  1.00  0.00     0.272 C 
HETATM   21  N4  UNL     1      23.833   6.023  51.832  1.00  0.00     0.086 N 
HETATM   22  C15 UNL     1      22.690   5.228  52.222  1.00  0.00     0.301 C 
HETATM   23  H15 UNL     1      23.620   7.004  51.634  1.00  0.00     0.315 HD
ENDBRANCH  17  18
ENDBRANCH   5  17
TORSDOF 5
ENDMDL
MODEL 9
REMARK VINA RESULT:      -6.1      2.992      5.281
REMARK  5 active torsions:
REMARK  status: ('A' for Active; 'I' for Inactive)
REMARK    1  A    between atoms: N1_2  and  C2_3 
REMARK    2  A    between atoms: C3_5  and  N3_6 
REMARK    3  A    between atoms: N3_6  and  C4_7 
REMARK    4  A    between atoms: C11_15  and  O1_16 
REMARK    5  A    between atoms: O1_16  and  C12_17 
ROOT
HETATM    1  C2  UNL     1      21.632   1.748  51.808  1.00  0.00     0.269 A 
HETATM    2  N2  UNL     1      21.899   3.078  51.413  1.00  0.00    -0.239 NA
HETATM    3  C3  UNL     1      23.056   3.115  51.899  1.00  0.00     0.137 A 
HETATM    4  C10 UNL     1      22.976   1.776  52.380  1.00  0.00     0.055 A 
HETATM    5  C11 UNL     1      23.808   1.004  53.039  1.00  0.00     0.150 C 
ENDROOT
BRANCH   3   6
HETATM    6  N3  UNL     1      23.948   4.249  51.851  1.00  0.00    -0.341 N 
HETATM    7  H4  UNL     1      23.850   4.962  52.634  1.00  0.00     0.167 HD
BRANCH   6   8
HETATM    8  C4  UNL     1      24.935   4.453  50.826  1.00  0.00     0.035 A 
HETATM    9  C5  UNL     1      25.695   3.330  50.535  1.00  0.00     0.029 A 
HETATM   10  C6  UNL     1      26.690   3.342  49.578  1.00  0.00     0.004 A 
HETATM   11  C7  UNL     1      26.887   4.534  48.923  1.00  0.00     0.024 A 
HETATM   12  C8  UNL     1      26.151   5.686  49.179  1.00  0.00     0.036 A 
HETATM   13 CL1  UNL     1      26.446   7.166  48.317  1.00  0.00    -0.084 Cl
HETATM   14  C9  UNL     1      25.181   5.623  50.134  1.00  0.00     0.053 A 
ENDBRANCH   6   8
ENDBRANCH   3   6
BRANCH   1  15
HETATM   15  N1  UNL     1      21.485   0.850  50.688  1.00  0.00    -0.280 NA
HETATM   16  C1  UNL     1      20.573   1.188  49.829  1.00  0.00     0.145 C 
ENDBRANCH   1  15
BRANCH   5  17
HETATM   17  O1  UNL     1      25.028   0.896  53.611  1.00  0.00    -0.355 OA
BRANCH  17  18
HETATM   18  C12 UNL     1      25.647  -0.236  54.126  1.00  0.00     0.157 C 
HETATM   19  C13 UNL     1      26.918   0.166  54.896  1.00  0.00     0.064 C 
HETATM   20  C14 UNL     1      27.823   0.544  53.724  1.00  0.00     0.272 C 
HETATM   21  N4  UNL     1      27.392  -0.225  52.596  1.00  0.00     0.086 N 
HETATM   22  C15 UNL     1      26.314  -1.082  53.032  1.00  0.00     0.301 C 
HETATM   23  H15 UNL     1      28.118  -0.698  52.051  1.00  0.00     0.315 HD
ENDBRANCH  17  18
ENDBRANCH   5  17
TORSDOF 5
ENDMDL
