MODEL 1
REMARK VINA RESULT:      -8.1      0.000      0.000
REMARK  1 active torsions:
REMARK  status: ('A' for Active; 'I' for Inactive)
REMARK    1  A    between atoms: C14_16  and  C15_17 
ROOT
HETATM    1  C1  UNL     1      23.277   1.594  51.402  1.00  0.00     0.031 C 
HETATM    2  C2  UNL     1      22.379   1.653  50.326  1.00  0.00    -0.004 C 
HETATM    3  C3  UNL     1      21.859   3.114  50.218  1.00  0.00     0.039 A 
HETATM    4  C4  UNL     1      20.612   3.016  50.750  1.00  0.00    -0.007 A 
HETATM    5  C5  UNL     1      20.471   4.227  51.469  1.00  0.00    -0.005 A 
HETATM    6  C6  UNL     1      21.569   5.059  51.418  1.00  0.00    -0.006 A 
HETATM    7  C7  UNL     1      22.637   4.640  50.689  1.00  0.00     0.046 A 
HETATM    8  C8  UNL     1      23.870   5.187  50.591  1.00  0.00    -0.043 A 
HETATM    9  C9  UNL     1      25.131   5.155  50.105  1.00  0.00     0.006 A 
HETATM   10  C10 UNL     1      25.260   3.986  49.318  1.00  0.00     0.001 A 
HETATM   11  C11 UNL     1      24.124   3.169  49.241  1.00  0.00     0.006 A 
HETATM   12  C12 UNL     1      23.059   3.605  49.912  1.00  0.00    -0.044 A 
HETATM   13  C13 UNL     1      23.991   5.850  51.978  1.00  0.00     0.177 C 
HETATM   14  N1  UNL     1      23.637   4.664  52.902  1.00  0.00    -0.309 N 
HETATM   15  N2  UNL     1      23.489   3.380  52.285  1.00  0.00    -0.179 NA
HETATM   16  C14 UNL     1      24.009   2.318  52.552  1.00  0.00     0.086 C 
HETATM   17  H11 UNL     1      23.571   5.073  53.881  1.00  0.00     0.182 HD
ENDROOT
BRANCH  16  18
HETATM   18  C15 UNL     1      24.669   1.098  52.957  1.00  0.00    -0.006 A 
HETATM   19  C16 UNL     1      24.773   0.041  53.779  1.00  0.00     0.014 A 
HETATM   20  C17 UNL     1      25.757  -0.875  53.715  1.00  0.00     0.001 A 
HETATM   21  C18 UNL     1      26.754  -0.807  52.790  1.00  0.00     0.000 A 
HETATM   22  C19 UNL     1      26.768   0.247  51.867  1.00  0.00     0.001 A 
HETATM   23  C20 UNL     1      25.721   1.168  51.982  1.00  0.00     0.014 A 
ENDBRANCH  16  18
TORSDOF 1
ENDMDL
MODEL 2
REMARK VINA RESULT:      -8.0      8.203     11.018
REMARK  1 active torsions:
REMARK  status: ('A' for Active; 'I' for Inactive)
REMARK    1  A    between atoms: C14_16  and  C15_17 
ROOT
HETATM    1  C1  UNL     1      32.037   7.161  47.689  1.00  0.00     0.031 C 
HETATM    2  C2  UNL     1      33.222   7.862  47.420  1.00  0.00    -0.004 C 
HETATM    3  C3  UNL     1      34.394   6.842  47.437  1.00  0.00     0.039 A 
HETATM    4  C4  UNL     1      34.977   7.092  48.640  1.00  0.00    -0.007 A 
HETATM    5  C5  UNL     1      35.355   5.805  49.090  1.00  0.00    -0.005 A 
HETATM    6  C6  UNL     1      35.026   4.774  48.234  1.00  0.00    -0.006 A 
HETATM    7  C7  UNL     1      34.399   5.103  47.074  1.00  0.00     0.046 A 
HETATM    8  C8  UNL     1      33.849   4.291  46.143  1.00  0.00    -0.043 A 
HETATM    9  C9  UNL     1      33.168   4.126  44.987  1.00  0.00     0.006 A 
HETATM   10  C10 UNL     1      32.852   5.411  44.486  1.00  0.00     0.001 A 
HETATM   11  C11 UNL     1      33.278   6.495  45.264  1.00  0.00     0.006 A 
HETATM   12  C12 UNL     1      33.939   6.177  46.376  1.00  0.00    -0.044 A 
HETATM   13  C13 UNL     1      33.439   3.094  47.024  1.00  0.00     0.177 C 
HETATM   14  N1  UNL     1      32.640   3.808  48.135  1.00  0.00    -0.309 N 
HETATM   15  N2  UNL     1      32.380   5.205  47.956  1.00  0.00    -0.179 NA
HETATM   16  C14 UNL     1      31.337   5.820  47.998  1.00  0.00     0.086 C 
HETATM   17  H11 UNL     1      32.429   3.062  48.862  1.00  0.00     0.182 HD
ENDROOT
BRANCH  16  18
HETATM   18  C15 UNL     1      30.047   6.465  48.084  1.00  0.00    -0.006 A 
HETATM   19  C16 UNL     1      29.293   7.576  48.114  1.00  0.00     0.014 A 
HETATM   20  C17 UNL     1      27.960   7.583  48.294  1.00  0.00     0.001 A 
HETATM   21  C18 UNL     1      27.244   6.437  48.464  1.00  0.00     0.000 A 
HETATM   22  C19 UNL     1      27.904   5.202  48.452  1.00  0.00     0.001 A 
HETATM   23  C20 UNL     1      29.290   5.257  48.262  1.00  0.00     0.014 A 
ENDBRANCH  16  18
TORSDOF 1
ENDMDL
MODEL 3
REMARK VINA RESULT:      -8.0      2.154      4.019
REMARK  1 active torsions:
REMARK  status: ('A' for Active; 'I' for Inactive)
REMARK    1  A    between atoms: C14_16  and  C15_17 
ROOT
HETATM    1  C1  UNL     1      24.057   1.631  52.665  1.00  0.00     0.031 C 
HETATM    2  C2  UNL     1      25.112   2.525  52.904  1.00  0.00    -0.004 C 
HETATM    3  C3  UNL     1      25.311   3.382  51.622  1.00  0.00     0.039 A 
HETATM    4  C4  UNL     1      26.422   2.824  51.072  1.00  0.00    -0.007 A 
HETATM    5  C5  UNL     1      26.153   2.869  49.684  1.00  0.00    -0.005 A 
HETATM    6  C6  UNL     1      24.931   3.413  49.350  1.00  0.00    -0.006 A 
HETATM    7  C7  UNL     1      24.142   3.847  50.368  1.00  0.00     0.046 A 
HETATM    8  C8  UNL     1      22.862   4.283  50.329  1.00  0.00    -0.043 A 
HETATM    9  C9  UNL     1      21.757   4.733  50.965  1.00  0.00     0.006 A 
HETATM   10  C10 UNL     1      22.042   4.767  52.350  1.00  0.00     0.001 A 
HETATM   11  C11 UNL     1      23.321   4.337  52.726  1.00  0.00     0.006 A 
HETATM   12  C12 UNL     1      24.115   3.960  51.724  1.00  0.00    -0.044 A 
HETATM   13  C13 UNL     1      22.333   3.482  49.122  1.00  0.00     0.177 C 
HETATM   14  N1  UNL     1      22.752   2.049  49.514  1.00  0.00    -0.309 N 
HETATM   15  N2  UNL     1      23.293   1.865  50.828  1.00  0.00    -0.179 NA
HETATM   16  C14 UNL     1      22.976   1.091  51.704  1.00  0.00     0.086 C 
HETATM   17  H11 UNL     1      22.536   1.445  48.667  1.00  0.00     0.182 HD
ENDROOT
BRANCH  16  18
HETATM   18  C15 UNL     1      22.533   0.122  52.680  1.00  0.00    -0.006 A 
HETATM   19  C16 UNL     1      22.794  -0.877  53.539  1.00  0.00     0.014 A 
HETATM   20  C17 UNL     1      21.854  -1.542  54.236  1.00  0.00     0.001 A 
HETATM   21  C18 UNL     1      20.528  -1.251  54.128  1.00  0.00     0.000 A 
HETATM   22  C19 UNL     1      20.114  -0.228  53.266  1.00  0.00     0.001 A 
HETATM   23  C20 UNL     1      21.134   0.427  52.568  1.00  0.00     0.014 A 
ENDBRANCH  16  18
TORSDOF 1
ENDMDL
MODEL 4
REMARK VINA RESULT:      -7.8      1.623      3.108
REMARK  1 active torsions:
REMARK  status: ('A' for Active; 'I' for Inactive)
REMARK    1  A    between atoms: C14_16  and  C15_17 
ROOT
HETATM    1  C1  UNL     1      24.828   2.345  52.662  1.00  0.00     0.031 C 
HETATM    2  C2  UNL     1      23.859   3.052  53.390  1.00  0.00    -0.004 C 
HETATM    3  C3  UNL     1      23.068   3.942  52.391  1.00  0.00     0.039 A 
HETATM    4  C4  UNL     1      23.588   5.176  52.630  1.00  0.00    -0.007 A 
HETATM    5  C5  UNL     1      23.641   5.759  51.341  1.00  0.00    -0.005 A 
HETATM    6  C6  UNL     1      23.193   4.947  50.321  1.00  0.00    -0.006 A 
HETATM    7  C7  UNL     1      22.749   3.708  50.659  1.00  0.00     0.046 A 
HETATM    8  C8  UNL     1      22.396   2.680  49.854  1.00  0.00    -0.043 A 
HETATM    9  C9  UNL     1      21.979   1.404  49.697  1.00  0.00     0.006 A 
HETATM   10  C10 UNL     1      21.846   0.833  50.985  1.00  0.00     0.001 A 
HETATM   11  C11 UNL     1      22.174   1.666  52.063  1.00  0.00     0.006 A 
HETATM   12  C12 UNL     1      22.559   2.899  51.737  1.00  0.00    -0.044 A 
HETATM   13  C13 UNL     1      23.297   2.960  48.634  1.00  0.00     0.177 C 
HETATM   14  N1  UNL     1      24.677   3.098  49.314  1.00  0.00    -0.309 N 
HETATM   15  N2  UNL     1      24.750   2.782  50.709  1.00  0.00    -0.179 NA
HETATM   16  C14 UNL     1      25.489   2.029  51.304  1.00  0.00     0.086 C 
HETATM   17  H11 UNL     1      25.341   3.423  48.550  1.00  0.00     0.182 HD
ENDROOT
BRANCH  16  18
HETATM   18  C15 UNL     1      26.425   1.118  51.923  1.00  0.00    -0.006 A 
HETATM   19  C16 UNL     1      26.817  -0.130  52.227  1.00  0.00     0.014 A 
HETATM   20  C17 UNL     1      27.889  -0.424  52.985  1.00  0.00     0.001 A 
HETATM   21  C18 UNL     1      28.688   0.541  53.519  1.00  0.00     0.000 A 
HETATM   22  C19 UNL     1      28.396   1.890  53.280  1.00  0.00     0.001 A 
HETATM   23  C20 UNL     1      27.269   2.135  52.487  1.00  0.00     0.014 A 
ENDBRANCH  16  18
TORSDOF 1
ENDMDL
MODEL 5
REMARK VINA RESULT:      -7.7      2.135      5.399
REMARK  1 active torsions:
REMARK  status: ('A' for Active; 'I' for Inactive)
REMARK    1  A    between atoms: C14_16  and  C15_17 
ROOT
HETATM    1  C1  UNL     1      25.889   4.263  49.580  1.00  0.00     0.031 C 
HETATM    2  C2  UNL     1      25.870   2.866  49.711  1.00  0.00    -0.004 C 
HETATM    3  C3  UNL     1      24.901   2.509  50.872  1.00  0.00     0.039 A 
HETATM    4  C4  UNL     1      25.760   2.203  51.881  1.00  0.00    -0.007 A 
HETATM    5  C5  UNL     1      25.116   2.732  53.025  1.00  0.00    -0.005 A 
HETATM    6  C6  UNL     1      23.913   3.356  52.774  1.00  0.00    -0.006 A 
HETATM    7  C7  UNL     1      23.482   3.385  51.486  1.00  0.00     0.046 A 
HETATM    8  C8  UNL     1      22.428   4.044  50.953  1.00  0.00    -0.043 A 
HETATM    9  C9  UNL     1      21.683   4.392  49.880  1.00  0.00     0.006 A 
HETATM   10  C10 UNL     1      22.275   3.803  48.737  1.00  0.00     0.001 A 
HETATM   11  C11 UNL     1      23.436   3.053  48.964  1.00  0.00     0.006 A 
HETATM   12  C12 UNL     1      23.831   2.980  50.234  1.00  0.00    -0.044 A 
HETATM   13  C13 UNL     1      22.346   5.253  51.907  1.00  0.00     0.177 C 
HETATM   14  N1  UNL     1      23.803   5.762  51.861  1.00  0.00    -0.309 N 
HETATM   15  N2  UNL     1      24.678   5.146  50.910  1.00  0.00    -0.179 NA
HETATM   16  C14 UNL     1      25.385   5.641  50.059  1.00  0.00     0.086 C 
HETATM   17  H11 UNL     1      23.864   6.525  52.599  1.00  0.00     0.182 HD
ENDROOT
BRANCH  16  18
HETATM   18  C15 UNL     1      26.203   6.327  49.086  1.00  0.00    -0.006 A 
HETATM   19  C16 UNL     1      27.409   6.671  48.605  1.00  0.00     0.014 A 
HETATM   20  C17 UNL     1      27.601   7.494  47.558  1.00  0.00     0.001 A 
HETATM   21  C18 UNL     1      26.565   8.061  46.880  1.00  0.00     0.000 A 
HETATM   22  C19 UNL     1      25.249   7.786  47.275  1.00  0.00     0.001 A 
HETATM   23  C20 UNL     1      25.112   6.925  48.370  1.00  0.00     0.014 A 
ENDBRANCH  16  18
TORSDOF 1
ENDMDL
MODEL 6
REMARK VINA RESULT:      -7.4      2.332      4.917
REMARK  1 active torsions:
REMARK  status: ('A' for Active; 'I' for Inactive)
REMARK    1  A    between atoms: C14_16  and  C15_17 
ROOT
HETATM    1  C1  UNL     1      23.789   5.064  48.427  1.00  0.00     0.031 C 
HETATM    2  C2  UNL     1      22.493   4.973  47.899  1.00  0.00    -0.004 C 
HETATM    3  C3  UNL     1      21.795   3.749  48.556  1.00  0.00     0.039 A 
HETATM    4  C4  UNL     1      21.846   2.821  47.563  1.00  0.00    -0.007 A 
HETATM    5  C5  UNL     1      22.091   1.614  48.260  1.00  0.00    -0.005 A 
HETATM    6  C6  UNL     1      22.206   1.751  49.627  1.00  0.00    -0.006 A 
HETATM    7  C7  UNL     1      22.062   2.999  50.144  1.00  0.00     0.046 A 
HETATM    8  C8  UNL     1      22.265   3.426  51.412  1.00  0.00    -0.043 A 
HETATM    9  C9  UNL     1      22.297   4.426  52.320  1.00  0.00     0.006 A 
HETATM   10  C10 UNL     1      21.976   5.629  51.648  1.00  0.00     0.001 A 
HETATM   11  C11 UNL     1      21.729   5.518  50.274  1.00  0.00     0.006 A 
HETATM   12  C12 UNL     1      21.817   4.286  49.775  1.00  0.00    -0.044 A 
HETATM   13  C13 UNL     1      23.353   2.434  51.868  1.00  0.00     0.177 C 
HETATM   14  N1  UNL     1      24.382   2.581  50.726  1.00  0.00    -0.309 N 
HETATM   15  N2  UNL     1      24.145   3.617  49.766  1.00  0.00    -0.179 NA
HETATM   16  C14 UNL     1      24.870   4.506  49.377  1.00  0.00     0.086 C 
HETATM   17  H11 UNL     1      25.112   1.828  50.899  1.00  0.00     0.182 HD
ENDROOT
BRANCH  16  18
HETATM   18  C15 UNL     1      25.814   5.521  48.969  1.00  0.00    -0.006 A 
HETATM   19  C16 UNL     1      26.090   6.786  48.611  1.00  0.00     0.014 A 
HETATM   20  C17 UNL     1      27.306   7.215  48.224  1.00  0.00     0.001 A 
HETATM   21  C18 UNL     1      28.383   6.386  48.161  1.00  0.00     0.000 A 
HETATM   22  C19 UNL     1      28.237   5.037  48.509  1.00  0.00     0.001 A 
HETATM   23  C20 UNL     1      26.952   4.648  48.903  1.00  0.00     0.014 A 
ENDBRANCH  16  18
TORSDOF 1
ENDMDL
MODEL 7
REMARK VINA RESULT:      -7.4      7.165      9.902
REMARK  1 active torsions:
REMARK  status: ('A' for Active; 'I' for Inactive)
REMARK    1  A    between atoms: C14_16  and  C15_17 
ROOT
HETATM    1  C1  UNL     1      30.657   5.957  48.964  1.00  0.00     0.031 C 
HETATM    2  C2  UNL     1      31.861   5.931  49.685  1.00  0.00    -0.004 C 
HETATM    3  C3  UNL     1      32.959   6.590  48.803  1.00  0.00     0.039 A 
HETATM    4  C4  UNL     1      33.655   5.511  48.356  1.00  0.00    -0.007 A 
HETATM    5  C5  UNL     1      33.980   5.866  47.025  1.00  0.00    -0.005 A 
HETATM    6  C6  UNL     1      33.513   7.100  46.626  1.00  0.00    -0.006 A 
HETATM    7  C7  UNL     1      32.816   7.828  47.537  1.00  0.00     0.046 A 
HETATM    8  C8  UNL     1      32.137   8.986  47.365  1.00  0.00    -0.043 A 
HETATM    9  C9  UNL     1      31.353   9.969  47.861  1.00  0.00     0.006 A 
HETATM   10  C10 UNL     1      31.085   9.664  49.216  1.00  0.00     0.001 A 
HETATM   11  C11 UNL     1      31.646   8.476  49.701  1.00  0.00     0.006 A 
HETATM   12  C12 UNL     1      32.373   7.787  48.824  1.00  0.00    -0.044 A 
HETATM   13  C13 UNL     1      31.722   8.847  45.887  1.00  0.00     0.177 C 
HETATM   14  N1  UNL     1      31.067   7.449  45.896  1.00  0.00    -0.309 N 
HETATM   15  N2  UNL     1      30.888   6.821  47.171  1.00  0.00    -0.179 NA
HETATM   16  C14 UNL     1      29.897   6.344  47.678  1.00  0.00     0.086 C 
HETATM   17  H11 UNL     1      30.867   7.219  44.878  1.00  0.00     0.182 HD
ENDROOT
BRANCH  16  18
HETATM   18  C15 UNL     1      28.664   5.790  48.189  1.00  0.00    -0.006 A 
HETATM   19  C16 UNL     1      27.929   4.737  48.583  1.00  0.00     0.014 A 
HETATM   20  C17 UNL     1      26.639   4.812  48.958  1.00  0.00     0.001 A 
HETATM   21  C18 UNL     1      25.953   5.987  48.972  1.00  0.00     0.000 A 
HETATM   22  C19 UNL     1      26.600   7.168  48.585  1.00  0.00     0.001 A 
HETATM   23  C20 UNL     1      27.939   7.029  48.204  1.00  0.00     0.014 A 
ENDBRANCH  16  18
TORSDOF 1
ENDMDL
MODEL 8
REMARK VINA RESULT:      -7.3      2.202      4.851
REMARK  1 active torsions:
REMARK  status: ('A' for Active; 'I' for Inactive)
REMARK    1  A    between atoms: C14_16  and  C15_17 
ROOT
HETATM    1  C1  UNL     1      23.549   5.969  50.134  1.00  0.00     0.031 C 
HETATM    2  C2  UNL     1      22.553   6.437  51.004  1.00  0.00    -0.004 C 
HETATM    3  C3  UNL     1      21.492   5.312  51.163  1.00  0.00     0.039 A 
HETATM    4  C4  UNL     1      20.475   5.762  50.380  1.00  0.00    -0.007 A 
HETATM    5  C5  UNL     1      19.978   4.579  49.784  1.00  0.00    -0.005 A 
HETATM    6  C6  UNL     1      20.641   3.426  50.148  1.00  0.00    -0.006 A 
HETATM    7  C7  UNL     1      21.668   3.549  51.028  1.00  0.00     0.046 A 
HETATM    8  C8  UNL     1      22.559   2.616  51.435  1.00  0.00    -0.043 A 
HETATM    9  C9  UNL     1      23.646   2.271  52.161  1.00  0.00     0.006 A 
HETATM   10  C10 UNL     1      24.107   3.432  52.825  1.00  0.00     0.001 A 
HETATM   11  C11 UNL     1      23.385   4.607  52.580  1.00  0.00     0.006 A 
HETATM   12  C12 UNL     1      22.344   4.479  51.758  1.00  0.00    -0.044 A 
HETATM   13  C13 UNL     1      22.612   1.718  50.182  1.00  0.00     0.177 C 
HETATM   14  N1  UNL     1      22.891   2.766  49.082  1.00  0.00    -0.309 N 
HETATM   15  N2  UNL     1      23.170   4.103  49.512  1.00  0.00    -0.179 NA
HETATM   16  C14 UNL     1      24.098   4.835  49.243  1.00  0.00     0.086 C 
HETATM   17  H11 UNL     1      22.813   2.242  48.161  1.00  0.00     0.182 HD
ENDROOT
BRANCH  16  18
HETATM   18  C15 UNL     1      25.235   5.635  48.850  1.00  0.00    -0.006 A 
HETATM   19  C16 UNL     1      25.752   6.782  48.380  1.00  0.00     0.014 A 
HETATM   20  C17 UNL     1      27.059   6.973  48.121  1.00  0.00     0.001 A 
HETATM   21  C18 UNL     1      27.989   5.999  48.318  1.00  0.00     0.000 A 
HETATM   22  C19 UNL     1      27.587   4.749  48.807  1.00  0.00     0.001 A 
HETATM   23  C20 UNL     1      26.217   4.608  49.058  1.00  0.00     0.014 A 
ENDBRANCH  16  18
TORSDOF 1
ENDMDL
MODEL 9
REMARK VINA RESULT:      -7.2      1.318      3.183
REMARK  1 active torsions:
REMARK  status: ('A' for Active; 'I' for Inactive)
REMARK    1  A    between atoms: C14_16  and  C15_17 
ROOT
HETATM    1  C1  UNL     1      23.790   3.048  52.449  1.00  0.00     0.031 C 
HETATM    2  C2  UNL     1      23.515   4.386  52.773  1.00  0.00    -0.004 C 
HETATM    3  C3  UNL     1      22.980   5.086  51.492  1.00  0.00     0.039 A 
HETATM    4  C4  UNL     1      24.057   5.810  51.089  1.00  0.00    -0.007 A 
HETATM    5  C5  UNL     1      24.004   5.710  49.678  1.00  0.00    -0.005 A 
HETATM    6  C6  UNL     1      22.959   4.953  49.192  1.00  0.00    -0.006 A 
HETATM    7  C7  UNL     1      22.108   4.408  50.101  1.00  0.00     0.046 A 
HETATM    8  C8  UNL     1      21.104   3.523  49.905  1.00  0.00    -0.043 A 
HETATM    9  C9  UNL     1      20.116   2.744  50.399  1.00  0.00     0.006 A 
HETATM   10  C10 UNL     1      20.109   2.897  51.805  1.00  0.00     0.001 A 
HETATM   11  C11 UNL     1      21.079   3.757  52.334  1.00  0.00     0.006 A 
HETATM   12  C12 UNL     1      21.882   4.334  51.441  1.00  0.00    -0.044 A 
HETATM   13  C13 UNL     1      21.639   2.763  48.675  1.00  0.00     0.177 C 
HETATM   14  N1  UNL     1      23.054   2.379  49.161  1.00  0.00    -0.309 N 
HETATM   15  N2  UNL     1      23.368   2.650  50.532  1.00  0.00    -0.179 NA
HETATM   16  C14 UNL     1      23.808   1.922  51.394  1.00  0.00     0.086 C 
HETATM   17  H11 UNL     1      23.543   1.959  48.316  1.00  0.00     0.182 HD
ENDROOT
BRANCH  16  18
HETATM   18  C15 UNL     1      24.346   0.979  52.348  1.00  0.00    -0.006 A 
HETATM   19  C16 UNL     1      24.189   0.164  53.403  1.00  0.00     0.014 A 
HETATM   20  C17 UNL     1      25.191  -0.520  53.988  1.00  0.00     0.001 A 
HETATM   21  C18 UNL     1      26.477  -0.442  53.549  1.00  0.00     0.000 A 
HETATM   22  C19 UNL     1      26.783   0.373  52.452  1.00  0.00     0.001 A 
HETATM   23  C20 UNL     1      25.703   1.060  51.886  1.00  0.00     0.014 A 
ENDBRANCH  16  18
TORSDOF 1
ENDMDL
