MODEL 1
REMARK VINA RESULT:      -8.3      0.000      0.000
REMARK  7 active torsions:
REMARK  status: ('A' for Active; 'I' for Inactive)
REMARK    1  A    between atoms: O1_2  and  C2_3 
REMARK    2  A    between atoms: C6_9  and  N3_10 
REMARK    3  A    between atoms: N3_10  and  C7_11 
REMARK    4  A    between atoms: C15_21  and  O2_22 
REMARK    5  A    between atoms: O2_22  and  C16_23 
REMARK    6  A    between atoms: C16_23  and  C17_24 
REMARK    7  A    between atoms: C17_24  and  N4_25 
ROOT
HETATM    1  C2  UNL     1      20.069  -0.089  52.355  1.00  0.00     0.103 A 
HETATM    2  C3  UNL     1      20.331  -0.667  53.605  1.00  0.00     0.072 A 
HETATM    3  C4  UNL     1      21.629  -0.807  54.040  1.00  0.00     0.075 A 
HETATM    4  N1  UNL     1      21.948  -1.345  55.225  1.00  0.00    -0.241 NA
HETATM    5  C5  UNL     1      23.238  -1.441  55.581  1.00  0.00     0.236 A 
HETATM    6  N2  UNL     1      24.226  -1.013  54.779  1.00  0.00    -0.224 NA
HETATM    7  C6  UNL     1      23.964  -0.455  53.559  1.00  0.00     0.142 A 
HETATM    8  C13 UNL     1      22.636  -0.363  53.212  1.00  0.00     0.042 A 
HETATM    9  C14 UNL     1      22.413   0.206  51.982  1.00  0.00     0.057 A 
HETATM   10  C15 UNL     1      21.116   0.351  51.536  1.00  0.00     0.103 A 
ENDROOT
BRANCH   7  11
HETATM   11  N3  UNL     1      25.119  -0.065  52.846  1.00  0.00    -0.340 N 
HETATM   12  H6  UNL     1      24.817   0.398  51.966  1.00  0.00     0.167 HD
BRANCH  11  13
HETATM   13  C7  UNL     1      26.520  -0.186  53.111  1.00  0.00     0.035 A 
HETATM   14  C8  UNL     1      27.188  -1.364  52.799  1.00  0.00     0.032 A 
HETATM   15  C9  UNL     1      28.539  -1.438  53.051  1.00  0.00     0.046 A 
HETATM   16  C10 UNL     1      29.246  -0.389  53.600  1.00  0.00     0.138 A 
HETATM   17  F1  UNL     1      30.570  -0.641  53.778  1.00  0.00    -0.204 F 
HETATM   18  C11 UNL     1      28.605   0.787  53.916  1.00  0.00     0.074 A 
HETATM   19 CL1  UNL     1      29.549   2.068  54.606  1.00  0.00    -0.081 Cl
HETATM   20  C12 UNL     1      27.261   0.844  53.659  1.00  0.00     0.056 A 
ENDBRANCH  11  13
ENDBRANCH   7  11
BRANCH  10  21
HETATM   21  O2  UNL     1      20.585   0.867  50.400  1.00  0.00    -0.347 OA
BRANCH  21  22
HETATM   22  C16 UNL     1      20.850   2.057  49.715  1.00  0.00     0.190 C 
BRANCH  22  23
HETATM   23  C17 UNL     1      20.523   3.270  50.587  1.00  0.00     0.121 C 
BRANCH  23  24
HETATM   24  N4  UNL     1      21.542   4.281  50.464  1.00  0.00    -0.290 NA
HETATM   25  C18 UNL     1      21.932   4.813  51.751  1.00  0.00     0.095 C 
HETATM   26  C19 UNL     1      22.823   3.791  52.422  1.00  0.00     0.020 C 
HETATM   27  C20 UNL     1      24.039   3.680  51.491  1.00  0.00     0.048 C 
HETATM   28  P1  UNL     1      23.106   3.524  49.875  1.00  0.00    -0.055 P 
HETATM   29  H21 UNL     1      22.820   2.088  49.754  1.00  0.00     0.074 HD
ENDBRANCH  23  24
ENDBRANCH  22  23
ENDBRANCH  21  22
ENDBRANCH  10  21
BRANCH   1  30
HETATM   30  O1  UNL     1      18.727  -0.020  52.070  1.00  0.00    -0.353 OA
HETATM   31  C1  UNL     1      17.730  -0.864  52.576  1.00  0.00     0.210 C 
ENDBRANCH   1  30
TORSDOF 7
ENDMDL
MODEL 2
REMARK VINA RESULT:      -7.8      1.543      2.003
REMARK  7 active torsions:
REMARK  status: ('A' for Active; 'I' for Inactive)
REMARK    1  A    between atoms: O1_2  and  C2_3 
REMARK    2  A    between atoms: C6_9  and  N3_10 
REMARK    3  A    between atoms: N3_10  and  C7_11 
REMARK    4  A    between atoms: C15_21  and  O2_22 
REMARK    5  A    between atoms: O2_22  and  C16_23 
REMARK    6  A    between atoms: C16_23  and  C17_24 
REMARK    7  A    between atoms: C17_24  and  N4_25 
ROOT
HETATM    1  C2  UNL     1      19.940  -0.218  52.715  1.00  0.00     0.103 A 
HETATM    2  C3  UNL     1      20.333  -0.900  53.876  1.00  0.00     0.072 A 
HETATM    3  C4  UNL     1      21.660  -0.932  54.239  1.00  0.00     0.075 A 
HETATM    4  N1  UNL     1      22.101  -1.561  55.337  1.00  0.00    -0.241 NA
HETATM    5  C5  UNL     1      23.410  -1.541  55.628  1.00  0.00     0.236 A 
HETATM    6  N2  UNL     1      24.298  -0.907  54.847  1.00  0.00    -0.224 NA
HETATM    7  C6  UNL     1      23.910  -0.248  53.714  1.00  0.00     0.142 A 
HETATM    8  C13 UNL     1      22.563  -0.277  53.433  1.00  0.00     0.042 A 
HETATM    9  C14 UNL     1      22.211   0.400  52.291  1.00  0.00     0.057 A 
HETATM   10  C15 UNL     1      20.885   0.438  51.916  1.00  0.00     0.103 A 
ENDROOT
BRANCH   7  11
HETATM   11  N3  UNL     1      24.973   0.359  53.009  1.00  0.00    -0.340 N 
HETATM   12  H6  UNL     1      24.568   0.944  52.252  1.00  0.00     0.167 HD
BRANCH  11  13
HETATM   13  C7  UNL     1      26.396   0.311  53.153  1.00  0.00     0.035 A 
HETATM   14  C8  UNL     1      27.113   1.481  53.364  1.00  0.00     0.032 A 
HETATM   15  C9  UNL     1      28.479   1.394  53.516  1.00  0.00     0.046 A 
HETATM   16  C10 UNL     1      29.153   0.193  53.465  1.00  0.00     0.138 A 
HETATM   17  F1  UNL     1      30.497   0.298  53.635  1.00  0.00    -0.204 F 
HETATM   18  C11 UNL     1      28.462  -0.979  53.257  1.00  0.00     0.074 A 
HETATM   19 CL1  UNL     1      29.366  -2.459  53.200  1.00  0.00    -0.081 Cl
HETATM   20  C12 UNL     1      27.104  -0.875  53.108  1.00  0.00     0.056 A 
ENDBRANCH  11  13
ENDBRANCH   7  11
BRANCH  10  21
HETATM   21  O2  UNL     1      20.239   1.014  50.872  1.00  0.00    -0.347 OA
BRANCH  21  22
HETATM   22  C16 UNL     1      20.038   2.357  50.539  1.00  0.00     0.190 C 
BRANCH  22  23
HETATM   23  C17 UNL     1      20.432   2.621  49.085  1.00  0.00     0.121 C 
BRANCH  23  24
HETATM   24  N4  UNL     1      21.846   2.421  48.891  1.00  0.00    -0.290 NA
HETATM   25  C18 UNL     1      22.267   2.804  47.561  1.00  0.00     0.095 C 
HETATM   26  C19 UNL     1      22.327   4.315  47.514  1.00  0.00     0.020 C 
HETATM   27  C20 UNL     1      23.400   4.683  48.549  1.00  0.00     0.048 C 
HETATM   28  P1  UNL     1      22.793   3.589  49.942  1.00  0.00    -0.055 P 
HETATM   29  H21 UNL     1      21.778   4.401  50.630  1.00  0.00     0.074 HD
ENDBRANCH  23  24
ENDBRANCH  22  23
ENDBRANCH  21  22
ENDBRANCH  10  21
BRANCH   1  30
HETATM   30  O1  UNL     1      18.586  -0.278  52.493  1.00  0.00    -0.353 OA
HETATM   31  C1  UNL     1      17.711  -1.255  52.985  1.00  0.00     0.210 C 
ENDBRANCH   1  30
TORSDOF 7
ENDMDL
MODEL 3
REMARK VINA RESULT:      -7.8      3.448      6.151
REMARK  7 active torsions:
REMARK  status: ('A' for Active; 'I' for Inactive)
REMARK    1  A    between atoms: O1_2  and  C2_3 
REMARK    2  A    between atoms: C6_9  and  N3_10 
REMARK    3  A    between atoms: N3_10  and  C7_11 
REMARK    4  A    between atoms: C15_21  and  O2_22 
REMARK    5  A    between atoms: O2_22  and  C16_23 
REMARK    6  A    between atoms: C16_23  and  C17_24 
REMARK    7  A    between atoms: C17_24  and  N4_25 
ROOT
HETATM    1  C2  UNL     1      22.411  -0.009  52.817  1.00  0.00     0.103 A 
HETATM    2  C3  UNL     1      21.342   0.617  52.158  1.00  0.00     0.072 A 
HETATM    3  C4  UNL     1      21.495   1.889  51.656  1.00  0.00     0.075 A 
HETATM    4  N1  UNL     1      20.517   2.542  51.012  1.00  0.00    -0.241 NA
HETATM    5  C5  UNL     1      20.745   3.778  50.545  1.00  0.00     0.236 A 
HETATM    6  N2  UNL     1      21.931   4.386  50.705  1.00  0.00    -0.224 NA
HETATM    7  C6  UNL     1      22.967   3.773  51.353  1.00  0.00     0.142 A 
HETATM    8  C13 UNL     1      22.715   2.504  51.823  1.00  0.00     0.042 A 
HETATM    9  C14 UNL     1      23.780   1.919  52.463  1.00  0.00     0.057 A 
HETATM   10  C15 UNL     1      23.640   0.645  52.971  1.00  0.00     0.103 A 
ENDROOT
BRANCH   7  11
HETATM   11  N3  UNL     1      24.138   4.557  51.435  1.00  0.00    -0.340 N 
HETATM   12  H6  UNL     1      24.173   4.992  52.378  1.00  0.00     0.167 HD
BRANCH  11  13
HETATM   13  C7  UNL     1      25.201   4.828  50.515  1.00  0.00     0.035 A 
HETATM   14  C8  UNL     1      26.022   3.797  50.078  1.00  0.00     0.032 A 
HETATM   15  C9  UNL     1      27.023   4.091  49.179  1.00  0.00     0.046 A 
HETATM   16  C10 UNL     1      27.235   5.368  48.703  1.00  0.00     0.138 A 
HETATM   17  F1  UNL     1      28.266   5.472  47.824  1.00  0.00    -0.204 F 
HETATM   18  C11 UNL     1      26.433   6.404  49.123  1.00  0.00     0.074 A 
HETATM   19 CL1  UNL     1      26.752   7.988  48.490  1.00  0.00    -0.081 Cl
HETATM   20  C12 UNL     1      25.442   6.094  50.017  1.00  0.00     0.056 A 
ENDBRANCH  11  13
ENDBRANCH   7  11
BRANCH  10  21
HETATM   21  O2  UNL     1      24.486  -0.182  53.631  1.00  0.00    -0.347 OA
BRANCH  21  22
HETATM   22  C16 UNL     1      25.436  -1.096  53.163  1.00  0.00     0.190 C 
BRANCH  22  23
HETATM   23  C17 UNL     1      26.805  -0.429  53.017  1.00  0.00     0.121 C 
BRANCH  23  24
HETATM   24  N4  UNL     1      27.063   0.461  54.120  1.00  0.00    -0.290 NA
HETATM   25  C18 UNL     1      28.288   0.120  54.811  1.00  0.00     0.095 C 
HETATM   26  C19 UNL     1      29.445   0.601  53.964  1.00  0.00     0.020 C 
HETATM   27  C20 UNL     1      29.262   2.124  53.904  1.00  0.00     0.048 C 
HETATM   28  P1  UNL     1      27.436   2.144  53.492  1.00  0.00    -0.055 P 
HETATM   29  H21 UNL     1      27.389   2.030  52.028  1.00  0.00     0.074 HD
ENDBRANCH  23  24
ENDBRANCH  22  23
ENDBRANCH  21  22
ENDBRANCH  10  21
BRANCH   1  30
HETATM   30  O1  UNL     1      22.099  -1.273  53.256  1.00  0.00    -0.353 OA
HETATM   31  C1  UNL     1      21.522  -1.600  54.490  1.00  0.00     0.210 C 
ENDBRANCH   1  30
TORSDOF 7
ENDMDL
MODEL 4
REMARK VINA RESULT:      -7.7      2.513      5.034
REMARK  7 active torsions:
REMARK  status: ('A' for Active; 'I' for Inactive)
REMARK    1  A    between atoms: O1_2  and  C2_3 
REMARK    2  A    between atoms: C6_9  and  N3_10 
REMARK    3  A    between atoms: N3_10  and  C7_11 
REMARK    4  A    between atoms: C15_21  and  O2_22 
REMARK    5  A    between atoms: O2_22  and  C16_23 
REMARK    6  A    between atoms: C16_23  and  C17_24 
REMARK    7  A    between atoms: C17_24  and  N4_25 
ROOT
HETATM    1  C2  UNL     1      22.159   4.420  50.364  1.00  0.00     0.103 A 
HETATM    2  C3  UNL     1      23.237   4.622  49.490  1.00  0.00     0.072 A 
HETATM    3  C4  UNL     1      24.491   4.168  49.829  1.00  0.00     0.075 A 
HETATM    4  N1  UNL     1      25.562   4.324  49.039  1.00  0.00    -0.241 NA
HETATM    5  C5  UNL     1      26.752   3.848  49.437  1.00  0.00     0.236 A 
HETATM    6  N2  UNL     1      26.902   3.217  50.612  1.00  0.00    -0.224 NA
HETATM    7  C6  UNL     1      25.849   3.027  51.461  1.00  0.00     0.142 A 
HETATM    8  C13 UNL     1      24.637   3.521  51.035  1.00  0.00     0.042 A 
HETATM    9  C14 UNL     1      23.602   3.307  51.913  1.00  0.00     0.057 A 
HETATM   10  C15 UNL     1      22.341   3.757  51.584  1.00  0.00     0.103 A 
ENDROOT
BRANCH   7  11
HETATM   11  N3  UNL     1      26.186   2.350  52.653  1.00  0.00    -0.340 N 
HETATM   12  H6  UNL     1      25.508   2.628  53.389  1.00  0.00     0.167 HD
BRANCH  11  13
HETATM   13  C7  UNL     1      27.218   1.417  52.990  1.00  0.00     0.035 A 
HETATM   14  C8  UNL     1      28.383   1.861  53.602  1.00  0.00     0.032 A 
HETATM   15  C9  UNL     1      29.347   0.933  53.929  1.00  0.00     0.046 A 
HETATM   16  C10 UNL     1      29.194  -0.412  53.669  1.00  0.00     0.138 A 
HETATM   17  F1  UNL     1      30.247  -1.179  54.059  1.00  0.00    -0.204 F 
HETATM   18  C11 UNL     1      28.048  -0.874  53.064  1.00  0.00     0.074 A 
HETATM   19 CL1  UNL     1      27.917  -2.577  52.761  1.00  0.00    -0.081 Cl
HETATM   20  C12 UNL     1      27.099   0.063  52.746  1.00  0.00     0.056 A 
ENDBRANCH  11  13
ENDBRANCH   7  11
BRANCH  10  21
HETATM   21  O2  UNL     1      21.145   3.695  52.221  1.00  0.00    -0.347 OA
BRANCH  21  22
HETATM   22  C16 UNL     1      20.280   2.622  52.456  1.00  0.00     0.190 C 
BRANCH  22  23
HETATM   23  C17 UNL     1      21.020   1.290  52.333  1.00  0.00     0.121 C 
BRANCH  23  24
HETATM   24  N4  UNL     1      21.603   0.908  53.594  1.00  0.00    -0.290 NA
HETATM   25  C18 UNL     1      20.632   0.290  54.471  1.00  0.00     0.095 C 
HETATM   26  C19 UNL     1      20.403  -1.124  53.984  1.00  0.00     0.020 C 
HETATM   27  C20 UNL     1      21.774  -1.800  54.130  1.00  0.00     0.048 C 
HETATM   28  P1  UNL     1      22.807  -0.453  53.339  1.00  0.00    -0.055 P 
HETATM   29  H21 UNL     1      22.757  -0.750  51.901  1.00  0.00     0.074 HD
ENDBRANCH  23  24
ENDBRANCH  22  23
ENDBRANCH  21  22
ENDBRANCH  10  21
BRANCH   1  30
HETATM   30  O1  UNL     1      20.978   4.929  49.881  1.00  0.00    -0.353 OA
HETATM   31  C1  UNL     1      20.394   4.628  48.643  1.00  0.00     0.210 C 
ENDBRANCH   1  30
TORSDOF 7
ENDMDL
MODEL 5
REMARK VINA RESULT:      -7.7      2.203      2.960
REMARK  7 active torsions:
REMARK  status: ('A' for Active; 'I' for Inactive)
REMARK    1  A    between atoms: O1_2  and  C2_3 
REMARK    2  A    between atoms: C6_9  and  N3_10 
REMARK    3  A    between atoms: N3_10  and  C7_11 
REMARK    4  A    between atoms: C15_21  and  O2_22 
REMARK    5  A    between atoms: O2_22  and  C16_23 
REMARK    6  A    between atoms: C16_23  and  C17_24 
REMARK    7  A    between atoms: C17_24  and  N4_25 
ROOT
HETATM    1  C2  UNL     1      20.967   2.145  51.288  1.00  0.00     0.103 A 
HETATM    2  C3  UNL     1      20.478   1.518  52.443  1.00  0.00     0.072 A 
HETATM    3  C4  UNL     1      21.298   0.694  53.178  1.00  0.00     0.075 A 
HETATM    4  N1  UNL     1      20.896   0.069  54.293  1.00  0.00    -0.241 NA
HETATM    5  C5  UNL     1      21.757  -0.715  54.959  1.00  0.00     0.236 A 
HETATM    6  N2  UNL     1      23.019  -0.894  54.538  1.00  0.00    -0.224 NA
HETATM    7  C6  UNL     1      23.489  -0.284  53.409  1.00  0.00     0.142 A 
HETATM    8  C13 UNL     1      22.591   0.517  52.740  1.00  0.00     0.042 A 
HETATM    9  C14 UNL     1      23.101   1.116  51.614  1.00  0.00     0.057 A 
HETATM   10  C15 UNL     1      22.289   1.944  50.869  1.00  0.00     0.103 A 
ENDROOT
BRANCH   7  11
HETATM   11  N3  UNL     1      24.836  -0.586  53.110  1.00  0.00    -0.340 N 
HETATM   12  H6  UNL     1      24.862  -1.494  52.605  1.00  0.00     0.167 HD
BRANCH  11  13
HETATM   13  C7  UNL     1      26.070   0.093  53.363  1.00  0.00     0.035 A 
HETATM   14  C8  UNL     1      26.071   1.456  53.632  1.00  0.00     0.032 A 
HETATM   15  C9  UNL     1      27.275   2.074  53.887  1.00  0.00     0.046 A 
HETATM   16  C10 UNL     1      28.470   1.388  53.885  1.00  0.00     0.138 A 
HETATM   17  F1  UNL     1      29.557   2.158  54.158  1.00  0.00    -0.204 F 
HETATM   18  C11 UNL     1      28.493   0.037  53.621  1.00  0.00     0.074 A 
HETATM   19 CL1  UNL     1      30.030  -0.768  53.629  1.00  0.00    -0.081 Cl
HETATM   20  C12 UNL     1      27.287  -0.561  53.369  1.00  0.00     0.056 A 
ENDBRANCH  11  13
ENDBRANCH   7  11
BRANCH  10  21
HETATM   21  O2  UNL     1      22.496   2.666  49.740  1.00  0.00    -0.347 OA
BRANCH  21  22
HETATM   22  C16 UNL     1      23.637   3.313  49.256  1.00  0.00     0.190 C 
BRANCH  22  23
HETATM   23  C17 UNL     1      23.563   4.817  49.523  1.00  0.00     0.121 C 
BRANCH  23  24
HETATM   24  N4  UNL     1      24.628   5.237  50.397  1.00  0.00    -0.290 NA
HETATM   25  C18 UNL     1      25.928   4.889  49.866  1.00  0.00     0.095 C 
HETATM   26  C19 UNL     1      26.253   5.871  48.762  1.00  0.00     0.020 C 
HETATM   27  C20 UNL     1      26.302   7.233  49.469  1.00  0.00     0.048 C 
HETATM   28  P1  UNL     1      24.713   7.069  50.445  1.00  0.00    -0.055 P 
HETATM   29  H21 UNL     1      23.667   7.529  49.521  1.00  0.00     0.074 HD
ENDBRANCH  23  24
ENDBRANCH  22  23
ENDBRANCH  21  22
ENDBRANCH  10  21
BRANCH   1  30
HETATM   30  O1  UNL     1      20.028   2.934  50.670  1.00  0.00    -0.353 OA
HETATM   31  C1  UNL     1      19.781   4.287  50.937  1.00  0.00     0.210 C 
ENDBRANCH   1  30
TORSDOF 7
ENDMDL
MODEL 6
REMARK VINA RESULT:      -7.5      3.759      5.383
REMARK  7 active torsions:
REMARK  status: ('A' for Active; 'I' for Inactive)
REMARK    1  A    between atoms: O1_2  and  C2_3 
REMARK    2  A    between atoms: C6_9  and  N3_10 
REMARK    3  A    between atoms: N3_10  and  C7_11 
REMARK    4  A    between atoms: C15_21  and  O2_22 
REMARK    5  A    between atoms: O2_22  and  C16_23 
REMARK    6  A    between atoms: C16_23  and  C17_24 
REMARK    7  A    between atoms: C17_24  and  N4_25 
ROOT
HETATM    1  C2  UNL     1      23.194   0.013  53.034  1.00  0.00     0.103 A 
HETATM    2  C3  UNL     1      24.483   0.096  53.580  1.00  0.00     0.072 A 
HETATM    3  C4  UNL     1      25.436   0.883  52.976  1.00  0.00     0.075 A 
HETATM    4  N1  UNL     1      26.684   1.011  53.448  1.00  0.00    -0.241 NA
HETATM    5  C5  UNL     1      27.556   1.804  52.806  1.00  0.00     0.236 A 
HETATM    6  N2  UNL     1      27.213   2.477  51.696  1.00  0.00    -0.224 NA
HETATM    7  C6  UNL     1      25.956   2.388  51.166  1.00  0.00     0.142 A 
HETATM    8  C13 UNL     1      25.076   1.572  51.839  1.00  0.00     0.042 A 
HETATM    9  C14 UNL     1      23.823   1.512  51.280  1.00  0.00     0.057 A 
HETATM   10  C15 UNL     1      22.859   0.726  51.876  1.00  0.00     0.103 A 
ENDROOT
BRANCH   7  11
HETATM   11  N3  UNL     1      25.769   3.158  49.997  1.00  0.00    -0.340 N 
HETATM   12  H6  UNL     1      25.245   2.582  49.309  1.00  0.00     0.167 HD
BRANCH  11  13
HETATM   13  C7  UNL     1      26.147   4.489  49.631  1.00  0.00     0.035 A 
HETATM   14  C8  UNL     1      27.249   4.699  48.813  1.00  0.00     0.032 A 
HETATM   15  C9  UNL     1      27.572   5.992  48.466  1.00  0.00     0.046 A 
HETATM   16  C10 UNL     1      26.843   7.077  48.903  1.00  0.00     0.138 A 
HETATM   17  F1  UNL     1      27.307   8.276  48.462  1.00  0.00    -0.204 F 
HETATM   18  C11 UNL     1      25.747   6.892  49.714  1.00  0.00     0.074 A 
HETATM   19 CL1  UNL     1      24.871   8.297  50.233  1.00  0.00    -0.081 Cl
HETATM   20  C12 UNL     1      25.439   5.599  50.049  1.00  0.00     0.056 A 
ENDBRANCH  11  13
ENDBRANCH   7  11
BRANCH  10  21
HETATM   21  O2  UNL     1      21.562   0.471  51.575  1.00  0.00    -0.347 OA
BRANCH  21  22
HETATM   22  C16 UNL     1      20.437   1.301  51.566  1.00  0.00     0.190 C 
BRANCH  22  23
HETATM   23  C17 UNL     1      20.614   2.467  52.540  1.00  0.00     0.121 C 
BRANCH  23  24
HETATM   24  N4  UNL     1      20.024   3.671  52.013  1.00  0.00    -0.290 NA
HETATM   25  C18 UNL     1      21.026   4.664  51.690  1.00  0.00     0.095 C 
HETATM   26  C19 UNL     1      21.687   4.248  50.394  1.00  0.00     0.020 C 
HETATM   27  C20 UNL     1      20.548   4.271  49.365  1.00  0.00     0.048 C 
HETATM   28  P1  UNL     1      19.277   3.335  50.371  1.00  0.00    -0.055 P 
HETATM   29  H21 UNL     1      19.564   1.920  50.098  1.00  0.00     0.074 HD
ENDBRANCH  23  24
ENDBRANCH  22  23
ENDBRANCH  21  22
ENDBRANCH  10  21
BRANCH   1  30
HETATM   30  O1  UNL     1      22.363  -0.810  53.753  1.00  0.00    -0.353 OA
HETATM   31  C1  UNL     1      21.589  -0.440  54.861  1.00  0.00     0.210 C 
ENDBRANCH   1  30
TORSDOF 7
ENDMDL
MODEL 7
REMARK VINA RESULT:      -7.3      3.939      6.447
REMARK  7 active torsions:
REMARK  status: ('A' for Active; 'I' for Inactive)
REMARK    1  A    between atoms: O1_2  and  C2_3 
REMARK    2  A    between atoms: C6_9  and  N3_10 
REMARK    3  A    between atoms: N3_10  and  C7_11 
REMARK    4  A    between atoms: C15_21  and  O2_22 
REMARK    5  A    between atoms: O2_22  and  C16_23 
REMARK    6  A    between atoms: C16_23  and  C17_24 
REMARK    7  A    between atoms: C17_24  and  N4_25 
ROOT
HETATM    1  C2  UNL     1      25.467   3.701  50.208  1.00  0.00     0.103 A 
HETATM    2  C3  UNL     1      26.364   2.658  50.478  1.00  0.00     0.072 A 
HETATM    3  C4  UNL     1      26.049   1.706  51.420  1.00  0.00     0.075 A 
HETATM    4  N1  UNL     1      26.858   0.681  51.723  1.00  0.00    -0.241 NA
HETATM    5  C5  UNL     1      26.477  -0.210  52.650  1.00  0.00     0.236 A 
HETATM    6  N2  UNL     1      25.301  -0.106  53.289  1.00  0.00    -0.224 NA
HETATM    7  C6  UNL     1      24.433   0.916  53.025  1.00  0.00     0.142 A 
HETATM    8  C13 UNL     1      24.841   1.820  52.070  1.00  0.00     0.042 A 
HETATM    9  C14 UNL     1      23.940   2.829  51.829  1.00  0.00     0.057 A 
HETATM   10  C15 UNL     1      24.245   3.789  50.887  1.00  0.00     0.103 A 
ENDROOT
BRANCH   7  11
HETATM   11  N3  UNL     1      23.247   0.875  53.791  1.00  0.00    -0.340 N 
HETATM   12  H6  UNL     1      23.366   1.506  54.608  1.00  0.00     0.167 HD
BRANCH  11  13
HETATM   13  C7  UNL     1      22.010   0.172  53.641  1.00  0.00     0.035 A 
HETATM   14  C8  UNL     1      21.759  -0.964  54.399  1.00  0.00     0.032 A 
HETATM   15  C9  UNL     1      20.550  -1.604  54.241  1.00  0.00     0.046 A 
HETATM   16  C10 UNL     1      19.588  -1.158  53.361  1.00  0.00     0.138 A 
HETATM   17  F1  UNL     1      18.458  -1.913  53.338  1.00  0.00    -0.204 F 
HETATM   18  C11 UNL     1      19.815  -0.034  52.600  1.00  0.00     0.074 A 
HETATM   19 CL1  UNL     1      18.566   0.476  51.509  1.00  0.00    -0.081 Cl
HETATM   20  C12 UNL     1      21.023   0.591  52.769  1.00  0.00     0.056 A 
ENDBRANCH  11  13
ENDBRANCH   7  11
BRANCH  10  21
HETATM   21  O2  UNL     1      23.578   4.877  50.432  1.00  0.00    -0.347 OA
BRANCH  21  22
HETATM   22  C16 UNL     1      22.243   5.049  50.052  1.00  0.00     0.190 C 
BRANCH  22  23
HETATM   23  C17 UNL     1      22.106   5.037  48.529  1.00  0.00     0.121 C 
BRANCH  23  24
HETATM   24  N4  UNL     1      21.110   4.084  48.111  1.00  0.00    -0.290 NA
HETATM   25  C18 UNL     1      21.652   3.106  47.193  1.00  0.00     0.095 C 
HETATM   26  C19 UNL     1      22.467   2.119  47.998  1.00  0.00     0.020 C 
HETATM   27  C20 UNL     1      21.445   1.468  48.943  1.00  0.00     0.048 C 
HETATM   28  P1  UNL     1      20.610   3.037  49.532  1.00  0.00    -0.055 P 
HETATM   29  H21 UNL     1      21.437   3.492  50.658  1.00  0.00     0.074 HD
ENDBRANCH  23  24
ENDBRANCH  22  23
ENDBRANCH  21  22
ENDBRANCH  10  21
BRANCH   1  30
HETATM   30  O1  UNL     1      25.927   4.564  49.244  1.00  0.00    -0.353 OA
HETATM   31  C1  UNL     1      27.258   4.715  48.837  1.00  0.00     0.210 C 
ENDBRANCH   1  30
TORSDOF 7
ENDMDL
MODEL 8
REMARK VINA RESULT:      -7.2      4.084      6.484
REMARK  7 active torsions:
REMARK  status: ('A' for Active; 'I' for Inactive)
REMARK    1  A    between atoms: O1_2  and  C2_3 
REMARK    2  A    between atoms: C6_9  and  N3_10 
REMARK    3  A    between atoms: N3_10  and  C7_11 
REMARK    4  A    between atoms: C15_21  and  O2_22 
REMARK    5  A    between atoms: O2_22  and  C16_23 
REMARK    6  A    between atoms: C16_23  and  C17_24 
REMARK    7  A    between atoms: C17_24  and  N4_25 
ROOT
HETATM    1  C2  UNL     1      27.046   0.863  53.588  1.00  0.00     0.103 A 
HETATM    2  C3  UNL     1      26.601   0.127  54.696  1.00  0.00     0.072 A 
HETATM    3  C4  UNL     1      25.324  -0.387  54.713  1.00  0.00     0.075 A 
HETATM    4  N1  UNL     1      24.839  -1.103  55.736  1.00  0.00    -0.241 NA
HETATM    5  C5  UNL     1      23.585  -1.575  55.676  1.00  0.00     0.236 A 
HETATM    6  N2  UNL     1      22.796  -1.350  54.613  1.00  0.00    -0.224 NA
HETATM    7  C6  UNL     1      23.233  -0.627  53.539  1.00  0.00     0.142 A 
HETATM    8  C13 UNL     1      24.523  -0.152  53.618  1.00  0.00     0.042 A 
HETATM    9  C14 UNL     1      24.928   0.564  52.518  1.00  0.00     0.057 A 
HETATM   10  C15 UNL     1      26.205   1.084  52.490  1.00  0.00     0.103 A 
ENDROOT
BRANCH   7  11
HETATM   11  N3  UNL     1      22.273  -0.484  52.513  1.00  0.00    -0.340 N 
HETATM   12  H6  UNL     1      22.135  -1.411  52.065  1.00  0.00     0.167 HD
BRANCH  11  13
HETATM   13  C7  UNL     1      21.519   0.631  52.029  1.00  0.00     0.035 A 
HETATM   14  C8  UNL     1      20.961   1.535  52.924  1.00  0.00     0.032 A 
HETATM   15  C9  UNL     1      20.257   2.607  52.421  1.00  0.00     0.046 A 
HETATM   16  C10 UNL     1      20.088   2.809  51.068  1.00  0.00     0.138 A 
HETATM   17  F1  UNL     1      19.365   3.917  50.755  1.00  0.00    -0.204 F 
HETATM   18  C11 UNL     1      20.632   1.926  50.163  1.00  0.00     0.074 A 
HETATM   19 CL1  UNL     1      20.381   2.234  48.474  1.00  0.00    -0.081 Cl
HETATM   20  C12 UNL     1      21.329   0.866  50.680  1.00  0.00     0.056 A 
ENDBRANCH  11  13
ENDBRANCH   7  11
BRANCH  10  21
HETATM   21  O2  UNL     1      26.883   1.811  51.569  1.00  0.00    -0.347 OA
BRANCH  21  22
HETATM   22  C16 UNL     1      26.496   2.311  50.322  1.00  0.00     0.190 C 
BRANCH  22  23
HETATM   23  C17 UNL     1      25.978   3.744  50.448  1.00  0.00     0.121 C 
BRANCH  23  24
HETATM   24  N4  UNL     1      25.261   4.138  49.262  1.00  0.00    -0.290 NA
HETATM   25  C18 UNL     1      23.873   3.733  49.313  1.00  0.00     0.095 C 
HETATM   26  C19 UNL     1      23.149   4.684  50.241  1.00  0.00     0.020 C 
HETATM   27  C20 UNL     1      23.290   6.054  49.563  1.00  0.00     0.048 C 
HETATM   28  P1  UNL     1      25.123   5.966  49.192  1.00  0.00    -0.055 P 
HETATM   29  H21 UNL     1      25.769   6.450  50.419  1.00  0.00     0.074 HD
ENDBRANCH  23  24
ENDBRANCH  22  23
ENDBRANCH  21  22
ENDBRANCH  10  21
BRANCH   1  30
HETATM   30  O1  UNL     1      28.340   1.303  53.725  1.00  0.00    -0.353 OA
HETATM   31  C1  UNL     1      29.486   0.499  53.770  1.00  0.00     0.210 C 
ENDBRANCH   1  30
TORSDOF 7
ENDMDL
MODEL 9
REMARK VINA RESULT:      -7.2      4.500      7.077
REMARK  7 active torsions:
REMARK  status: ('A' for Active; 'I' for Inactive)
REMARK    1  A    between atoms: O1_2  and  C2_3 
REMARK    2  A    between atoms: C6_9  and  N3_10 
REMARK    3  A    between atoms: N3_10  and  C7_11 
REMARK    4  A    between atoms: C15_21  and  O2_22 
REMARK    5  A    between atoms: O2_22  and  C16_23 
REMARK    6  A    between atoms: C16_23  and  C17_24 
REMARK    7  A    between atoms: C17_24  and  N4_25 
ROOT
HETATM    1  C2  UNL     1      25.293   1.028  52.374  1.00  0.00     0.103 A 
HETATM    2  C3  UNL     1      25.303   0.078  53.405  1.00  0.00     0.072 A 
HETATM    3  C4  UNL     1      24.120  -0.322  53.984  1.00  0.00     0.075 A 
HETATM    4  N1  UNL     1      24.059  -1.228  54.969  1.00  0.00    -0.241 NA
HETATM    5  C5  UNL     1      22.866  -1.571  55.477  1.00  0.00     0.236 A 
HETATM    6  N2  UNL     1      21.724  -1.029  55.027  1.00  0.00    -0.224 NA
HETATM    7  C6  UNL     1      21.721  -0.099  54.025  1.00  0.00     0.142 A 
HETATM    8  C13 UNL     1      22.953   0.239  53.515  1.00  0.00     0.042 A 
HETATM    9  C14 UNL     1      22.909   1.171  52.507  1.00  0.00     0.057 A 
HETATM   10  C15 UNL     1      24.088   1.580  51.920  1.00  0.00     0.103 A 
ENDROOT
BRANCH   7  11
HETATM   11  N3  UNL     1      20.434   0.369  53.679  1.00  0.00    -0.340 N 
HETATM   12  H6  UNL     1      20.406   1.395  53.842  1.00  0.00     0.167 HD
BRANCH  11  13
HETATM   13  C7  UNL     1      19.260  -0.278  53.179  1.00  0.00     0.035 A 
HETATM   14  C8  UNL     1      18.521   0.311  52.161  1.00  0.00     0.032 A 
HETATM   15  C9  UNL     1      17.407  -0.349  51.692  1.00  0.00     0.046 A 
HETATM   16  C10 UNL     1      17.003  -1.566  52.198  1.00  0.00     0.138 A 
HETATM   17  F1  UNL     1      15.882  -2.069  51.616  1.00  0.00    -0.204 F 
HETATM   18  C11 UNL     1      17.720  -2.168  53.207  1.00  0.00     0.074 A 
HETATM   19 CL1  UNL     1      17.159  -3.698  53.802  1.00  0.00    -0.081 Cl
HETATM   20  C12 UNL     1      18.826  -1.498  53.661  1.00  0.00     0.056 A 
ENDBRANCH  11  13
ENDBRANCH   7  11
BRANCH  10  21
HETATM   21  O2  UNL     1      24.366   2.457  50.925  1.00  0.00    -0.347 OA
BRANCH  21  22
HETATM   22  C16 UNL     1      23.601   2.891  49.837  1.00  0.00     0.190 C 
BRANCH  22  23
HETATM   23  C17 UNL     1      24.202   4.154  49.219  1.00  0.00     0.121 C 
BRANCH  23  24
HETATM   24  N4  UNL     1      25.209   4.718  50.081  1.00  0.00    -0.290 NA
HETATM   25  C18 UNL     1      26.468   4.901  49.391  1.00  0.00     0.095 C 
HETATM   26  C19 UNL     1      26.336   6.120  48.505  1.00  0.00     0.020 C 
HETATM   27  C20 UNL     1      26.083   7.274  49.486  1.00  0.00     0.048 C 
HETATM   28  P1  UNL     1      24.762   6.443  50.519  1.00  0.00    -0.055 P 
HETATM   29  H21 UNL     1      23.510   6.713  49.799  1.00  0.00     0.074 HD
ENDBRANCH  23  24
ENDBRANCH  22  23
ENDBRANCH  21  22
ENDBRANCH  10  21
BRANCH   1  30
HETATM   30  O1  UNL     1      26.550   1.318  51.903  1.00  0.00    -0.353 OA
HETATM   31  C1  UNL     1      27.538   2.045  52.579  1.00  0.00     0.210 C 
ENDBRANCH   1  30
TORSDOF 7
ENDMDL
